MODEL 1
REMARK VINA RESULT: -8.283574868      0.000      0.000
REMARK  5 active torsions:
REMARK  status: ('A' for Active; 'I' for Inactive)
REMARK    1  A    between atoms: C3_4  and  C4_5 
REMARK    2  A    between atoms: C6_7  and  C7_8 
REMARK    3  A    between atoms: C8_9  and  C9_10 
REMARK    4  A    between atoms: C9_10  and  C10_11 
REMARK    5  A    between atoms: C10_11  and  C11_12 
ROOT
HETATM    1  C11 UNL     1      48.241  92.214  37.679  1.00  0.00     0.114 A 
HETATM    2  N1  UNL     1      47.351  91.737  36.792  1.00  0.00    -0.340 N 
ATOM      3  H1  UNL     1      46.764  92.399  36.283  1.00  0.00     0.167 HD
HETATM    4  C12 UNL     1      47.204  90.431  36.551  1.00  0.00     0.069 A 
HETATM    5  C13 UNL     1      46.303  89.945  35.630  1.00  0.00     0.061 A 
HETATM    6 CL1  UNL     1      45.302  91.072  34.766  1.00  0.00    -0.082 Cl
HETATM    7  C14 UNL     1      46.200  88.580  35.405  1.00  0.00     0.026 A 
HETATM    8  C15 UNL     1      47.016  87.702  36.119  1.00  0.00     0.003 A 
HETATM    9  C16 UNL     1      47.924  88.176  37.046  1.00  0.00     0.017 A 
HETATM   10  C17 UNL     1      48.004  89.541  37.248  1.00  0.00     0.030 A 
HETATM   11  C18 UNL     1      48.899  90.028  38.143  1.00  0.00     0.114 A 
HETATM   12  S1  UNL     1      49.876  89.026  39.002  1.00  0.00    -0.059 SA
HETATM   13  N2  UNL     1      49.013  91.367  38.355  1.00  0.00    -0.332 N 
ATOM     14  H2  UNL     1      49.689  91.721  39.031  1.00  0.00     0.168 HD
ENDROOT
BRANCH   1  15
HETATM   15  C10 UNL     1      48.306  93.676  37.926  1.00  0.00     0.104 C 
BRANCH  15  16
HETATM   16  C9  UNL     1      48.044  94.615  37.230  1.00  0.00    -0.124 C 
BRANCH  16  17
HETATM   17  C8  UNL     1      47.737  95.720  36.412  1.00  0.00     0.055 C 
HETATM   18  C7  UNL     1      47.481  95.473  35.110  1.00  0.00     0.009 C 
BRANCH  18  19
HETATM   19  C6  UNL     1      47.531  94.128  34.618  1.00  0.00     0.007 C 
HETATM   20  C4  UNL     1      48.593  93.667  33.918  1.00  0.00    -0.059 C 
HETATM   21  C5  UNL     1      49.672  94.631  33.692  1.00  0.00     0.048 C 
BRANCH  20  22
HETATM   22  C3  UNL     1      48.537  92.318  33.480  1.00  0.00     0.044 C 
HETATM   23  C2  UNL     1      49.242  91.282  33.781  1.00  0.00     0.090 C 
HETATM   24  C1  UNL     1      50.366  91.158  34.700  1.00  0.00     0.082 C 
HETATM   25  F1  UNL     1      48.890  90.080  33.132  1.00  0.00    -0.211 F 
ENDBRANCH  20  22
ENDBRANCH  18  19
ENDBRANCH  16  17
ENDBRANCH  15  16
ENDBRANCH   1  15
TORSDOF 5
ENDMDL
MODEL 2
REMARK VINA RESULT: -8.108403160      3.363      5.063
REMARK  5 active torsions:
REMARK  status: ('A' for Active; 'I' for Inactive)
REMARK    1  A    between atoms: C3_4  and  C4_5 
REMARK    2  A    between atoms: C6_7  and  C7_8 
REMARK    3  A    between atoms: C8_9  and  C9_10 
REMARK    4  A    between atoms: C9_10  and  C10_11 
REMARK    5  A    between atoms: C10_11  and  C11_12 
ROOT
HETATM    1  C11 UNL     1      49.228  91.211  33.887  1.00  0.00     0.114 A 
HETATM    2  N1  UNL     1      50.290  91.322  33.069  1.00  0.00    -0.340 N 
ATOM      3  H1  UNL     1      50.301  92.075  32.381  1.00  0.00     0.167 HD
HETATM    4  C12 UNL     1      51.330  90.486  33.123  1.00  0.00     0.069 A 
HETATM    5  C13 UNL     1      52.424  90.610  32.296  1.00  0.00     0.061 A 
HETATM    6 CL1  UNL     1      52.442  91.889  31.121  1.00  0.00    -0.082 Cl
HETATM    7  C14 UNL     1      53.487  89.724  32.403  1.00  0.00     0.026 A 
HETATM    8  C15 UNL     1      53.438  88.705  33.356  1.00  0.00     0.003 A 
HETATM    9  C16 UNL     1      52.347  88.568  34.191  1.00  0.00     0.017 A 
HETATM   10  C17 UNL     1      51.305  89.467  34.061  1.00  0.00     0.030 A 
HETATM   11  C18 UNL     1      50.230  89.359  34.882  1.00  0.00     0.114 A 
HETATM   12  S1  UNL     1      50.138  88.172  36.014  1.00  0.00    -0.059 SA
HETATM   13  N2  UNL     1      49.194  90.235  34.789  1.00  0.00    -0.332 N 
ATOM     14  H2  UNL     1      48.391  90.144  35.411  1.00  0.00     0.168 HD
ENDROOT
BRANCH   1  15
HETATM   15  C10 UNL     1      48.090  92.151  33.728  1.00  0.00     0.104 C 
BRANCH  15  16
HETATM   16  C9  UNL     1      47.102  92.326  34.381  1.00  0.00    -0.124 C 
BRANCH  16  17
HETATM   17  C8  UNL     1      45.939  92.532  35.150  1.00  0.00     0.055 C 
HETATM   18  C7  UNL     1      45.564  93.809  35.374  1.00  0.00     0.009 C 
BRANCH  18  19
HETATM   19  C6  UNL     1      46.344  94.884  34.836  1.00  0.00     0.007 C 
HETATM   20  C4  UNL     1      47.315  95.488  35.559  1.00  0.00    -0.059 C 
HETATM   21  C5  UNL     1      47.505  94.979  36.919  1.00  0.00     0.048 C 
BRANCH  20  22
HETATM   22  C3  UNL     1      48.026  96.541  34.927  1.00  0.00     0.044 C 
HETATM   23  C2  UNL     1      49.013  96.542  34.098  1.00  0.00     0.090 C 
HETATM   24  C1  UNL     1      49.745  95.420  33.525  1.00  0.00     0.082 C 
HETATM   25  F1  UNL     1      49.468  97.808  33.674  1.00  0.00    -0.211 F 
ENDBRANCH  20  22
ENDBRANCH  18  19
ENDBRANCH  16  17
ENDBRANCH  15  16
ENDBRANCH   1  15
TORSDOF 5
ENDMDL
MODEL 3
REMARK VINA RESULT: -8.016110002      2.240      3.101
REMARK  5 active torsions:
REMARK  status: ('A' for Active; 'I' for Inactive)
REMARK    1  A    between atoms: C3_4  and  C4_5 
REMARK    2  A    between atoms: C6_7  and  C7_8 
REMARK    3  A    between atoms: C8_9  and  C9_10 
REMARK    4  A    between atoms: C9_10  and  C10_11 
REMARK    5  A    between atoms: C10_11  and  C11_12 
ROOT
HETATM    1  C11 UNL     1      46.296  91.374  35.476  1.00  0.00     0.114 A 
HETATM    2  N1  UNL     1      46.951  91.609  36.625  1.00  0.00    -0.340 N 
ATOM      3  H1  UNL     1      47.148  92.574  36.889  1.00  0.00     0.167 HD
HETATM    4  C12 UNL     1      47.354  90.627  37.437  1.00  0.00     0.069 A 
HETATM    5  C13 UNL     1      48.011  90.869  38.623  1.00  0.00     0.061 A 
HETATM    6 CL1  UNL     1      48.350  92.513  39.069  1.00  0.00    -0.082 Cl
HETATM    7  C14 UNL     1      48.394  89.814  39.439  1.00  0.00     0.026 A 
HETATM    8  C15 UNL     1      48.109  88.504  39.048  1.00  0.00     0.003 A 
HETATM    9  C16 UNL     1      47.452  88.247  37.861  1.00  0.00     0.017 A 
HETATM   10  C17 UNL     1      47.082  89.319  37.071  1.00  0.00     0.030 A 
HETATM   11  C18 UNL     1      46.421  89.089  35.908  1.00  0.00     0.114 A 
HETATM   12  S1  UNL     1      46.070  87.562  35.416  1.00  0.00    -0.059 SA
HETATM   13  N2  UNL     1      46.031  90.122  35.114  1.00  0.00    -0.332 N 
ATOM     14  H2  UNL     1      45.536  89.936  34.241  1.00  0.00     0.168 HD
ENDROOT
BRANCH   1  15
HETATM   15  C10 UNL     1      45.927  92.519  34.605  1.00  0.00     0.104 C 
BRANCH  15  16
HETATM   16  C9  UNL     1      45.971  93.703  34.782  1.00  0.00    -0.124 C 
BRANCH  16  17
HETATM   17  C8  UNL     1      46.022  95.095  34.990  1.00  0.00     0.055 C 
HETATM   18  C7  UNL     1      47.212  95.623  35.349  1.00  0.00     0.009 C 
BRANCH  18  19
HETATM   19  C6  UNL     1      48.352  94.769  35.502  1.00  0.00     0.007 C 
HETATM   20  C4  UNL     1      49.385  94.799  34.629  1.00  0.00    -0.059 C 
HETATM   21  C5  UNL     1      49.253  95.748  33.521  1.00  0.00     0.048 C 
BRANCH  20  22
HETATM   22  C3  UNL     1      50.462  93.910  34.877  1.00  0.00     0.044 C 
HETATM   23  C2  UNL     1      50.628  92.659  34.615  1.00  0.00     0.090 C 
HETATM   24  C1  UNL     1      49.728  91.721  33.958  1.00  0.00     0.082 C 
HETATM   25  F1  UNL     1      51.856  92.096  35.020  1.00  0.00    -0.211 F 
ENDBRANCH  20  22
ENDBRANCH  18  19
ENDBRANCH  16  17
ENDBRANCH  15  16
ENDBRANCH   1  15
TORSDOF 5
ENDMDL
MODEL 4
REMARK VINA RESULT: -7.985053567      4.049      6.217
REMARK  5 active torsions:
REMARK  status: ('A' for Active; 'I' for Inactive)
REMARK    1  A    between atoms: C3_4  and  C4_5 
REMARK    2  A    between atoms: C6_7  and  C7_8 
REMARK    3  A    between atoms: C8_9  and  C9_10 
REMARK    4  A    between atoms: C9_10  and  C10_11 
REMARK    5  A    between atoms: C10_11  and  C11_12 
ROOT
HETATM    1  C11 UNL     1      49.158  91.127  33.789  1.00  0.00     0.114 A 
HETATM    2  N1  UNL     1      49.041  92.465  33.765  1.00  0.00    -0.340 N 
ATOM      3  H1  UNL     1      49.761  93.011  33.291  1.00  0.00     0.167 HD
HETATM    4  C12 UNL     1      48.020  93.109  34.337  1.00  0.00     0.069 A 
HETATM    5  C13 UNL     1      47.892  94.480  34.297  1.00  0.00     0.061 A 
HETATM    6 CL1  UNL     1      49.120  95.409  33.494  1.00  0.00    -0.082 Cl
HETATM    7  C14 UNL     1      46.803  95.099  34.893  1.00  0.00     0.026 A 
HETATM    8  C15 UNL     1      45.836  94.322  35.534  1.00  0.00     0.003 A 
HETATM    9  C16 UNL     1      45.952  92.946  35.581  1.00  0.00     0.017 A 
HETATM   10  C17 UNL     1      47.048  92.359  34.978  1.00  0.00     0.030 A 
HETATM   11  C18 UNL     1      47.172  91.008  35.000  1.00  0.00     0.114 A 
HETATM   12  S1  UNL     1      46.056  90.062  35.745  1.00  0.00    -0.059 SA
HETATM   13  N2  UNL     1      48.232  90.397  34.404  1.00  0.00    -0.332 N 
ATOM     14  H2  UNL     1      48.315  89.381  34.428  1.00  0.00     0.168 HD
ENDROOT
BRANCH   1  15
HETATM   15  C10 UNL     1      50.351  90.492  33.173  1.00  0.00     0.104 C 
BRANCH  15  16
HETATM   16  C9  UNL     1      51.299  90.956  32.608  1.00  0.00    -0.124 C 
BRANCH  16  17
HETATM   17  C8  UNL     1      52.416  91.502  31.943  1.00  0.00     0.055 C 
HETATM   18  C7  UNL     1      53.631  91.018  32.278  1.00  0.00     0.009 C 
BRANCH  18  19
HETATM   19  C6  UNL     1      53.740  89.993  33.272  1.00  0.00     0.007 C 
HETATM   20  C4  UNL     1      54.190  88.754  32.969  1.00  0.00    -0.059 C 
HETATM   21  C5  UNL     1      54.546  88.532  31.566  1.00  0.00     0.048 C 
BRANCH  20  22
HETATM   22  C3  UNL     1      54.258  87.817  34.033  1.00  0.00     0.044 C 
HETATM   23  C2  UNL     1      55.229  87.442  34.793  1.00  0.00     0.090 C 
HETATM   24  C1  UNL     1      56.620  87.874  34.804  1.00  0.00     0.082 C 
HETATM   25  F1  UNL     1      54.917  86.467  35.764  1.00  0.00    -0.211 F 
ENDBRANCH  20  22
ENDBRANCH  18  19
ENDBRANCH  16  17
ENDBRANCH  15  16
ENDBRANCH   1  15
TORSDOF 5
ENDMDL
MODEL 5
REMARK VINA RESULT: -7.898651142      2.498      5.374
REMARK  5 active torsions:
REMARK  status: ('A' for Active; 'I' for Inactive)
REMARK    1  A    between atoms: C3_4  and  C4_5 
REMARK    2  A    between atoms: C6_7  and  C7_8 
REMARK    3  A    between atoms: C8_9  and  C9_10 
REMARK    4  A    between atoms: C9_10  and  C10_11 
REMARK    5  A    between atoms: C10_11  and  C11_12 
ROOT
HETATM    1  C11 UNL     1      49.892  91.266  36.673  1.00  0.00     0.114 A 
HETATM    2  N1  UNL     1      49.191  92.405  36.807  1.00  0.00    -0.340 N 
ATOM      3  H1  UNL     1      48.667  92.559  37.669  1.00  0.00     0.167 HD
HETATM    4  C12 UNL     1      49.153  93.343  35.857  1.00  0.00     0.069 A 
HETATM    5  C13 UNL     1      48.448  94.517  36.002  1.00  0.00     0.061 A 
HETATM    6 CL1  UNL     1      47.552  94.777  37.468  1.00  0.00    -0.082 Cl
HETATM    7  C14 UNL     1      48.454  95.467  34.991  1.00  0.00     0.026 A 
HETATM    8  C15 UNL     1      49.181  95.225  33.824  1.00  0.00     0.003 A 
HETATM    9  C16 UNL     1      49.892  94.051  33.665  1.00  0.00     0.017 A 
HETATM   10  C17 UNL     1      49.867  93.125  34.690  1.00  0.00     0.030 A 
HETATM   11  C18 UNL     1      50.572  91.973  34.560  1.00  0.00     0.114 A 
HETATM   12  S1  UNL     1      51.438  91.652  33.202  1.00  0.00    -0.059 SA
HETATM   13  N2  UNL     1      50.580  91.046  35.556  1.00  0.00    -0.332 N 
ATOM     14  H2  UNL     1      51.112  90.183  35.446  1.00  0.00     0.168 HD
ENDROOT
BRANCH   1  15
HETATM   15  C10 UNL     1      49.840  90.252  37.755  1.00  0.00     0.104 C 
BRANCH  15  16
HETATM   16  C9  UNL     1      49.064  89.369  37.986  1.00  0.00    -0.124 C 
BRANCH  16  17
HETATM   17  C8  UNL     1      48.151  88.331  38.258  1.00  0.00     0.055 C 
HETATM   18  C7  UNL     1      46.843  88.585  38.038  1.00  0.00     0.009 C 
BRANCH  18  19
HETATM   19  C6  UNL     1      46.441  89.870  37.550  1.00  0.00     0.007 C 
HETATM   20  C4  UNL     1      46.103  90.063  36.255  1.00  0.00    -0.059 C 
HETATM   21  C5  UNL     1      46.187  88.883  35.392  1.00  0.00     0.048 C 
BRANCH  20  22
HETATM   22  C3  UNL     1      45.719  91.377  35.880  1.00  0.00     0.044 C 
HETATM   23  C2  UNL     1      45.940  92.072  34.818  1.00  0.00     0.090 C 
HETATM   24  C1  UNL     1      46.685  91.720  33.616  1.00  0.00     0.082 C 
HETATM   25  F1  UNL     1      45.389  93.371  34.798  1.00  0.00    -0.211 F 
ENDBRANCH  20  22
ENDBRANCH  18  19
ENDBRANCH  16  17
ENDBRANCH  15  16
ENDBRANCH   1  15
TORSDOF 5
ENDMDL
