MODEL 1
REMARK VINA RESULT: -4.731879722      0.000      0.000
REMARK  2 active torsions:
REMARK  status: ('A' for Active; 'I' for Inactive)
REMARK    1  A    between atoms: C2_2  and  O1_3 
REMARK    2  A    between atoms: C7_9  and  O2_10 
ROOT
HETATM    1  C1  UNL     1      27.338  20.951  83.314  1.00  0.00     0.048 C 
HETATM    2  C2  UNL     1      28.520  20.759  84.223  1.00  0.00     0.080 C 
HETATM    3  C3  UNL     1      29.785  20.392  83.437  1.00  0.00     0.040 C 
HETATM    4  C4  UNL     1      30.877  20.240  84.505  1.00  0.00     0.003 C 
HETATM    5  C5  UNL     1      31.301  21.656  84.857  1.00  0.00     0.003 C 
HETATM    6  C6  UNL     1      30.131  22.584  84.853  1.00  0.00     0.035 C 
HETATM    7  C7  UNL     1      28.815  21.922  85.100  1.00  0.00     0.152 C 
ENDROOT
BRANCH   2   8
HETATM    8  O1  UNL     1      28.238  19.613  85.003  1.00  0.00    -0.388 OA
ATOM      9  H1  UNL     1      28.893  19.593  85.692  1.00  0.00     0.210 HD
ENDBRANCH   2   8
BRANCH   7  10
HETATM   10  O2  UNL     1      27.821  22.908  84.959  1.00  0.00    -0.393 OA
ATOM     11  H2  UNL     1      28.028  23.485  84.234  1.00  0.00     0.210 HD
ENDBRANCH   7  10
TORSDOF 2
ENDMDL
MODEL 2
REMARK VINA RESULT: -4.512332492      2.069      3.563
REMARK  2 active torsions:
REMARK  status: ('A' for Active; 'I' for Inactive)
REMARK    1  A    between atoms: C2_2  and  O1_3 
REMARK    2  A    between atoms: C7_9  and  O2_10 
ROOT
HETATM    1  C1  UNL     1      32.422  22.060  83.730  1.00  0.00     0.048 C 
HETATM    2  C2  UNL     1      31.265  21.481  84.497  1.00  0.00     0.080 C 
HETATM    3  C3  UNL     1      30.200  22.543  84.801  1.00  0.00     0.040 C 
HETATM    4  C4  UNL     1      29.108  21.789  85.571  1.00  0.00     0.003 C 
HETATM    5  C5  UNL     1      28.307  21.043  84.517  1.00  0.00     0.003 C 
HETATM    6  C6  UNL     1      29.195  20.532  83.430  1.00  0.00     0.035 C 
HETATM    7  C7  UNL     1      30.615  20.317  83.841  1.00  0.00     0.152 C 
ENDROOT
BRANCH   2   8
HETATM    8  O1  UNL     1      31.774  21.111  85.763  1.00  0.00    -0.388 OA
ATOM      9  H1  UNL     1      31.723  20.164  85.804  1.00  0.00     0.210 HD
ENDBRANCH   2   8
BRANCH   7  10
HETATM   10  O2  UNL     1      31.329  19.942  82.687  1.00  0.00    -0.393 OA
ATOM     11  H2  UNL     1      30.730  19.667  82.002  1.00  0.00     0.210 HD
ENDBRANCH   7  10
TORSDOF 2
ENDMDL
MODEL 3
REMARK VINA RESULT: -4.403537525      1.962      3.026
REMARK  2 active torsions:
REMARK  status: ('A' for Active; 'I' for Inactive)
REMARK    1  A    between atoms: C2_2  and  O1_3 
REMARK    2  A    between atoms: C7_9  and  O2_10 
ROOT
HETATM    1  C1  UNL     1      30.097  23.852  85.083  1.00  0.00     0.048 C 
HETATM    2  C2  UNL     1      30.167  22.357  85.232  1.00  0.00     0.080 C 
HETATM    3  C3  UNL     1      29.062  21.656  84.430  1.00  0.00     0.040 C 
HETATM    4  C4  UNL     1      29.283  20.160  84.689  1.00  0.00     0.003 C 
HETATM    5  C5  UNL     1      30.433  19.755  83.783  1.00  0.00     0.003 C 
HETATM    6  C6  UNL     1      31.455  20.840  83.695  1.00  0.00     0.035 C 
HETATM    7  C7  UNL     1      31.480  21.764  84.869  1.00  0.00     0.152 C 
ENDROOT
BRANCH   2   8
HETATM    8  O1  UNL     1      29.859  22.079  86.584  1.00  0.00    -0.388 OA
ATOM      9  H1  UNL     1      29.868  22.915  87.036  1.00  0.00     0.210 HD
ENDBRANCH   2   8
BRANCH   7  10
HETATM   10  O2  UNL     1      32.413  22.777  84.580  1.00  0.00    -0.393 OA
ATOM     11  H2  UNL     1      31.975  23.540  84.223  1.00  0.00     0.210 HD
ENDBRANCH   7  10
TORSDOF 2
ENDMDL
MODEL 4
REMARK VINA RESULT: -4.253392188      1.424      2.503
REMARK  2 active torsions:
REMARK  status: ('A' for Active; 'I' for Inactive)
REMARK    1  A    between atoms: C2_2  and  O1_3 
REMARK    2  A    between atoms: C7_9  and  O2_10 
ROOT
HETATM    1  C1  UNL     1      26.700  19.663  84.392  1.00  0.00     0.048 C 
HETATM    2  C2  UNL     1      27.744  20.729  84.202  1.00  0.00     0.080 C 
HETATM    3  C3  UNL     1      28.642  20.868  85.438  1.00  0.00     0.040 C 
HETATM    4  C4  UNL     1      29.635  21.979  85.073  1.00  0.00     0.003 C 
HETATM    5  C5  UNL     1      30.674  21.319  84.182  1.00  0.00     0.003 C 
HETATM    6  C6  UNL     1      30.045  20.307  83.282  1.00  0.00     0.035 C 
HETATM    7  C7  UNL     1      28.598  20.544  83.000  1.00  0.00     0.152 C 
ENDROOT
BRANCH   2   8
HETATM    8  O1  UNL     1      27.046  21.957  84.125  1.00  0.00    -0.388 OA
ATOM      9  H1  UNL     1      27.529  22.500  83.514  1.00  0.00     0.210 HD
ENDBRANCH   2   8
BRANCH   7  10
HETATM   10  O2  UNL     1      28.140  19.455  82.235  1.00  0.00    -0.393 OA
ATOM     11  H2  UNL     1      28.793  19.204  81.592  1.00  0.00     0.210 HD
ENDBRANCH   7  10
TORSDOF 2
ENDMDL
MODEL 5
REMARK VINA RESULT: -4.052960283      2.066      2.959
REMARK  2 active torsions:
REMARK  status: ('A' for Active; 'I' for Inactive)
REMARK    1  A    between atoms: C2_2  and  O1_3 
REMARK    2  A    between atoms: C7_9  and  O2_10 
ROOT
HETATM    1  C1  UNL     1      31.023  18.948  83.279  1.00  0.00     0.048 C 
HETATM    2  C2  UNL     1      30.270  20.225  83.535  1.00  0.00     0.080 C 
HETATM    3  C3  UNL     1      29.206  20.045  84.625  1.00  0.00     0.040 C 
HETATM    4  C4  UNL     1      28.548  21.425  84.757  1.00  0.00     0.003 C 
HETATM    5  C5  UNL     1      29.508  22.256  85.592  1.00  0.00     0.003 C 
HETATM    6  C6  UNL     1      30.928  21.934  85.257  1.00  0.00     0.035 C 
HETATM    7  C7  UNL     1      31.130  21.385  83.883  1.00  0.00     0.152 C 
ENDROOT
BRANCH   2   8
HETATM    8  O1  UNL     1      29.535  20.493  82.356  1.00  0.00    -0.388 OA
ATOM      9  H1  UNL     1      29.937  19.976  81.669  1.00  0.00     0.210 HD
ENDBRANCH   2   8
BRANCH   7  10
HETATM   10  O2  UNL     1      32.490  21.041  83.770  1.00  0.00    -0.393 OA
ATOM     11  H2  UNL     1      33.038  21.737  84.113  1.00  0.00     0.210 HD
ENDBRANCH   7  10
TORSDOF 2
ENDMDL
