MODEL 1
REMARK VINA RESULT: -4.950568358      0.000      0.000
REMARK  2 active torsions:
REMARK  status: ('A' for Active; 'I' for Inactive)
REMARK    1  A    between atoms: O1_1  and  C1_3 
REMARK    2  A    between atoms: C7_9  and  O2_10 
ROOT
HETATM    1  C1  UNL     1      30.680  22.738  84.523  1.00  0.00     0.147 C 
HETATM    2  C2  UNL     1      29.411  22.433  85.235  1.00  0.00     0.034 C 
HETATM    3  C3  UNL     1      28.610  21.325  84.683  1.00  0.00     0.002 C 
HETATM    4  C4  UNL     1      29.312  20.471  83.670  1.00  0.00     0.000 C 
HETATM    5  C5  UNL     1      30.520  19.769  84.187  1.00  0.00     0.002 C 
HETATM    6  C6  UNL     1      31.762  20.621  84.010  1.00  0.00     0.034 C 
HETATM    7  C7  UNL     1      31.739  21.776  84.969  1.00  0.00     0.147 C 
ENDROOT
BRANCH   1   8
HETATM    8  O1  UNL     1      31.101  24.035  84.869  1.00  0.00    -0.393 OA
ATOM      9  H1  UNL     1      31.244  24.537  84.076  1.00  0.00     0.210 HD
ENDBRANCH   1   8
BRANCH   7  10
HETATM   10  O2  UNL     1      32.997  22.346  85.084  1.00  0.00    -0.393 OA
ATOM     11  H2  UNL     1      33.225  22.593  85.973  1.00  0.00     0.210 HD
ENDBRANCH   7  10
TORSDOF 2
ENDMDL
MODEL 2
REMARK VINA RESULT: -4.935277991      1.770      2.778
REMARK  2 active torsions:
REMARK  status: ('A' for Active; 'I' for Inactive)
REMARK    1  A    between atoms: O1_1  and  C1_3 
REMARK    2  A    between atoms: C7_9  and  O2_10 
ROOT
HETATM    1  C1  UNL     1      30.496  19.907  83.447  1.00  0.00     0.147 C 
HETATM    2  C2  UNL     1      29.202  20.260  82.803  1.00  0.00     0.034 C 
HETATM    3  C3  UNL     1      28.093  20.586  83.719  1.00  0.00     0.002 C 
HETATM    4  C4  UNL     1      28.487  20.804  85.150  1.00  0.00     0.000 C 
HETATM    5  C5  UNL     1      29.426  21.941  85.363  1.00  0.00     0.002 C 
HETATM    6  C6  UNL     1      30.868  21.482  85.263  1.00  0.00     0.034 C 
HETATM    7  C7  UNL     1      31.212  21.164  83.835  1.00  0.00     0.147 C 
ENDROOT
BRANCH   1   8
HETATM    8  O1  UNL     1      31.299  19.222  82.517  1.00  0.00    -0.393 OA
ATOM      9  H1  UNL     1      31.125  18.291  82.583  1.00  0.00     0.210 HD
ENDBRANCH   1   8
BRANCH   7  10
HETATM   10  O2  UNL     1      32.585  21.098  83.663  1.00  0.00    -0.393 OA
ATOM     11  H2  UNL     1      32.848  20.752  82.818  1.00  0.00     0.210 HD
ENDBRANCH   7  10
TORSDOF 2
ENDMDL
MODEL 3
REMARK VINA RESULT: -4.907331488      1.769      2.704
REMARK  2 active torsions:
REMARK  status: ('A' for Active; 'I' for Inactive)
REMARK    1  A    between atoms: O1_1  and  C1_3 
REMARK    2  A    between atoms: C7_9  and  O2_10 
ROOT
HETATM    1  C1  UNL     1      31.212  21.215  83.824  1.00  0.00     0.147 C 
HETATM    2  C2  UNL     1      31.037  21.406  85.288  1.00  0.00     0.034 C 
HETATM    3  C3  UNL     1      29.729  21.935  85.719  1.00  0.00     0.002 C 
HETATM    4  C4  UNL     1      28.660  21.932  84.667  1.00  0.00     0.000 C 
HETATM    5  C5  UNL     1      28.307  20.579  84.153  1.00  0.00     0.002 C 
HETATM    6  C6  UNL     1      29.172  20.205  82.965  1.00  0.00     0.034 C 
HETATM    7  C7  UNL     1      30.576  19.920  83.418  1.00  0.00     0.147 C 
ENDROOT
BRANCH   1   8
HETATM    8  O1  UNL     1      32.586  21.131  83.533  1.00  0.00    -0.393 OA
ATOM      9  H1  UNL     1      32.903  21.990  83.284  1.00  0.00     0.210 HD
ENDBRANCH   1   8
BRANCH   7  10
HETATM   10  O2  UNL     1      31.280  19.238  82.438  1.00  0.00    -0.393 OA
ATOM     11  H2  UNL     1      30.753  19.002  81.684  1.00  0.00     0.210 HD
ENDBRANCH   7  10
TORSDOF 2
ENDMDL
MODEL 4
REMARK VINA RESULT: -4.813775926      0.450      2.416
REMARK  2 active torsions:
REMARK  status: ('A' for Active; 'I' for Inactive)
REMARK    1  A    between atoms: O1_1  and  C1_3 
REMARK    2  A    between atoms: C7_9  and  O2_10 
ROOT
HETATM    1  C1  UNL     1      31.758  21.799  84.897  1.00  0.00     0.147 C 
HETATM    2  C2  UNL     1      31.839  20.771  83.826  1.00  0.00     0.034 C 
HETATM    3  C3  UNL     1      30.762  19.762  83.815  1.00  0.00     0.002 C 
HETATM    4  C4  UNL     1      29.584  20.074  84.690  1.00  0.00     0.000 C 
HETATM    5  C5  UNL     1      28.860  21.323  84.324  1.00  0.00     0.002 C 
HETATM    6  C6  UNL     1      29.440  22.522  85.049  1.00  0.00     0.034 C 
HETATM    7  C7  UNL     1      30.789  22.865  84.485  1.00  0.00     0.147 C 
ENDROOT
BRANCH   1   8
HETATM    8  O1  UNL     1      33.021  22.399  85.054  1.00  0.00    -0.393 OA
ATOM      9  H1  UNL     1      33.031  23.225  84.586  1.00  0.00     0.210 HD
ENDBRANCH   1   8
BRANCH   7  10
HETATM   10  O2  UNL     1      31.172  24.142  84.864  1.00  0.00    -0.393 OA
ATOM     11  H2  UNL     1      31.760  24.563  84.249  1.00  0.00     0.210 HD
ENDBRANCH   7  10
TORSDOF 2
ENDMDL
MODEL 5
REMARK VINA RESULT: -4.668799899      2.699      3.910
REMARK  2 active torsions:
REMARK  status: ('A' for Active; 'I' for Inactive)
REMARK    1  A    between atoms: O1_1  and  C1_3 
REMARK    2  A    between atoms: C7_9  and  O2_10 
ROOT
HETATM    1  C1  UNL     1      29.684  20.475  83.103  1.00  0.00     0.147 C 
HETATM    2  C2  UNL     1      31.017  20.067  83.620  1.00  0.00     0.034 C 
HETATM    3  C3  UNL     1      31.742  21.080  84.410  1.00  0.00     0.002 C 
HETATM    4  C4  UNL     1      30.926  22.265  84.833  1.00  0.00     0.000 C 
HETATM    5  C5  UNL     1      29.771  21.935  85.713  1.00  0.00     0.002 C 
HETATM    6  C6  UNL     1      28.527  21.646  84.894  1.00  0.00     0.034 C 
HETATM    7  C7  UNL     1      28.667  20.325  84.192  1.00  0.00     0.147 C 
ENDROOT
BRANCH   1   8
HETATM    8  O1  UNL     1      29.318  19.618  82.049  1.00  0.00    -0.393 OA
ATOM      9  H1  UNL     1      29.418  20.079  81.225  1.00  0.00     0.210 HD
ENDBRANCH   1   8
BRANCH   7  10
HETATM   10  O2  UNL     1      27.435  19.873  83.745  1.00  0.00    -0.393 OA
ATOM     11  H2  UNL     1      26.791  20.563  83.637  1.00  0.00     0.210 HD
ENDBRANCH   7  10
TORSDOF 2
ENDMDL
