MODEL 1
REMARK VINA RESULT: -4.108978432      0.000      0.000
REMARK  1 active torsions:
REMARK  status: ('A' for Active; 'I' for Inactive)
REMARK    1  A    between atoms: C6_6  and  O1_8 
ROOT
HETATM    1  C1  UNL     1      32.661  21.864  84.465  1.00  0.00     0.010 C 
HETATM    2  C2  UNL     1      31.456  20.962  84.714  1.00  0.00    -0.016 C 
HETATM    3  C3  UNL     1      30.976  20.467  83.400  1.00  0.00     0.004 C 
HETATM    4  C4  UNL     1      29.534  20.234  83.238  1.00  0.00     0.003 C 
HETATM    5  C5  UNL     1      28.697  20.344  84.465  1.00  0.00     0.037 C 
HETATM    6  C6  UNL     1      29.066  21.469  85.376  1.00  0.00     0.054 C 
HETATM    7  C7  UNL     1      28.386  22.731  84.821  1.00  0.00     0.045 C 
HETATM    8  C8  UNL     1      30.513  21.676  85.583  1.00  0.00     0.041 C 
ENDROOT
BRANCH   6   9
HETATM    9  O1  UNL     1      28.384  21.227  86.576  1.00  0.00    -0.390 OA
ATOM     10  H1  UNL     1      27.800  21.967  86.695  1.00  0.00     0.210 HD
ENDBRANCH   6   9
TORSDOF 1
ENDMDL
MODEL 2
REMARK VINA RESULT: -4.106312600      1.481      2.599
REMARK  1 active torsions:
REMARK  status: ('A' for Active; 'I' for Inactive)
REMARK    1  A    between atoms: C6_6  and  O1_8 
ROOT
HETATM    1  C1  UNL     1      31.033  19.339  83.029  1.00  0.00     0.010 C 
HETATM    2  C2  UNL     1      30.288  20.623  83.377  1.00  0.00    -0.016 C 
HETATM    3  C3  UNL     1      30.826  21.130  84.664  1.00  0.00     0.004 C 
HETATM    4  C4  UNL     1      29.905  21.836  85.565  1.00  0.00     0.003 C 
HETATM    5  C5  UNL     1      28.548  22.139  85.029  1.00  0.00     0.037 C 
HETATM    6  C6  UNL     1      27.937  21.046  84.215  1.00  0.00     0.054 C 
HETATM    7  C7  UNL     1      27.305  20.055  85.206  1.00  0.00     0.045 C 
HETATM    8  C8  UNL     1      28.847  20.367  83.271  1.00  0.00     0.041 C 
ENDROOT
BRANCH   6   9
HETATM    9  O1  UNL     1      26.833  21.621  83.572  1.00  0.00    -0.390 OA
ATOM     10  H1  UNL     1      26.833  21.266  82.691  1.00  0.00     0.210 HD
ENDBRANCH   6   9
TORSDOF 1
ENDMDL
MODEL 3
REMARK VINA RESULT: -4.015252372      1.337      2.185
REMARK  1 active torsions:
REMARK  status: ('A' for Active; 'I' for Inactive)
REMARK    1  A    between atoms: C6_6  and  O1_8 
ROOT
HETATM    1  C1  UNL     1      30.196  24.032  84.992  1.00  0.00     0.010 C 
HETATM    2  C2  UNL     1      30.293  22.532  85.249  1.00  0.00    -0.016 C 
HETATM    3  C3  UNL     1      31.470  22.016  84.508  1.00  0.00     0.004 C 
HETATM    4  C4  UNL     1      31.403  20.649  83.974  1.00  0.00     0.003 C 
HETATM    5  C5  UNL     1      30.223  19.832  84.376  1.00  0.00     0.037 C 
HETATM    6  C6  UNL     1      28.928  20.574  84.405  1.00  0.00     0.054 C 
HETATM    7  C7  UNL     1      28.397  20.597  82.963  1.00  0.00     0.045 C 
HETATM    8  C8  UNL     1      28.980  21.930  84.988  1.00  0.00     0.041 C 
ENDROOT
BRANCH   6   9
HETATM    9  O1  UNL     1      28.025  19.739  85.077  1.00  0.00    -0.390 OA
ATOM     10  H1  UNL     1      27.309  20.300  85.351  1.00  0.00     0.210 HD
ENDBRANCH   6   9
TORSDOF 1
ENDMDL
MODEL 4
REMARK VINA RESULT: -3.953374918      4.404      5.918
REMARK  1 active torsions:
REMARK  status: ('A' for Active; 'I' for Inactive)
REMARK    1  A    between atoms: C6_6  and  O1_8 
ROOT
HETATM    1  C1  UNL     1      24.115  20.869  79.310  1.00  0.00     0.010 C 
HETATM    2  C2  UNL     1      25.332  21.172  80.178  1.00  0.00    -0.016 C 
HETATM    3  C3  UNL     1      26.445  20.303  79.723  1.00  0.00     0.004 C 
HETATM    4  C4  UNL     1      27.411  19.839  80.729  1.00  0.00     0.003 C 
HETATM    5  C5  UNL     1      27.290  20.426  82.093  1.00  0.00     0.037 C 
HETATM    6  C6  UNL     1      25.888  20.595  82.580  1.00  0.00     0.054 C 
HETATM    7  C7  UNL     1      25.447  19.236  83.146  1.00  0.00     0.045 C 
HETATM    8  C8  UNL     1      24.924  21.110  81.587  1.00  0.00     0.041 C 
ENDROOT
BRANCH   6   9
HETATM    9  O1  UNL     1      25.975  21.414  83.714  1.00  0.00    -0.390 OA
ATOM     10  H1  UNL     1      25.113  21.798  83.822  1.00  0.00     0.210 HD
ENDBRANCH   6   9
TORSDOF 1
ENDMDL
MODEL 5
REMARK VINA RESULT: -3.863287576      1.715      3.392
REMARK  1 active torsions:
REMARK  status: ('A' for Active; 'I' for Inactive)
REMARK    1  A    between atoms: C6_6  and  O1_8 
ROOT
HETATM    1  C1  UNL     1      28.787  20.148  82.217  1.00  0.00     0.010 C 
HETATM    2  C2  UNL     1      29.352  20.328  83.622  1.00  0.00    -0.016 C 
HETATM    3  C3  UNL     1      28.717  21.527  84.221  1.00  0.00     0.004 C 
HETATM    4  C4  UNL     1      29.514  22.335  85.154  1.00  0.00     0.003 C 
HETATM    5  C5  UNL     1      30.836  21.779  85.557  1.00  0.00     0.037 C 
HETATM    6  C6  UNL     1      31.605  21.128  84.455  1.00  0.00     0.054 C 
HETATM    7  C7  UNL     1      32.329  22.250  83.696  1.00  0.00     0.045 C 
HETATM    8  C8  UNL     1      30.816  20.274  83.544  1.00  0.00     0.041 C 
ENDROOT
BRANCH   6   9
HETATM    9  O1  UNL     1      32.645  20.425  85.079  1.00  0.00    -0.390 OA
ATOM     10  H1  UNL     1      33.307  21.075  85.287  1.00  0.00     0.210 HD
ENDBRANCH   6   9
TORSDOF 1
ENDMDL
