MODEL 1
REMARK VINA RESULT: -4.774827628      0.000      0.000
REMARK  2 active torsions:
REMARK  status: ('A' for Active; 'I' for Inactive)
REMARK    1  A    between atoms: C2_2  and  O1_3 
REMARK    2  A    between atoms: C5_7  and  O2_8 
ROOT
HETATM    1  C1  UNL     1      32.509  22.205  83.944  1.00  0.00     0.045 C 
HETATM    2  C2  UNL     1      31.266  21.510  84.445  1.00  0.00     0.054 C 
HETATM    3  C3  UNL     1      30.217  22.536  84.848  1.00  0.00     0.040 C 
HETATM    4  C4  UNL     1      29.162  21.704  85.582  1.00  0.00     0.034 C 
HETATM    5  C5  UNL     1      28.434  20.915  84.551  1.00  0.00     0.118 C 
HETATM    6  C6  UNL     1      29.220  20.506  83.371  1.00  0.00     0.034 C 
HETATM    7  C7  UNL     1      30.687  20.573  83.461  1.00  0.00     0.040 C 
ENDROOT
BRANCH   2   8
HETATM    8  O1  UNL     1      31.630  20.855  85.642  1.00  0.00    -0.390 OA
ATOM      9  H1  UNL     1      31.763  21.536  86.291  1.00  0.00     0.210 HD
ENDBRANCH   2   8
BRANCH   5  10
HETATM   10  O2  UNL     1      27.315  21.689  84.160  1.00  0.00    -0.396 OA
ATOM     11  H2  UNL     1      26.551  21.285  84.555  1.00  0.00     0.210 HD
ENDBRANCH   5  10
TORSDOF 2
ENDMDL
MODEL 2
REMARK VINA RESULT: -4.767531796      1.304      3.544
REMARK  2 active torsions:
REMARK  status: ('A' for Active; 'I' for Inactive)
REMARK    1  A    between atoms: C2_2  and  O1_3 
REMARK    2  A    between atoms: C5_7  and  O2_8 
ROOT
HETATM    1  C1  UNL     1      27.189  20.816  83.256  1.00  0.00     0.045 C 
HETATM    2  C2  UNL     1      28.409  20.808  84.145  1.00  0.00     0.054 C 
HETATM    3  C3  UNL     1      29.643  20.427  83.340  1.00  0.00     0.040 C 
HETATM    4  C4  UNL     1      30.711  20.189  84.409  1.00  0.00     0.034 C 
HETATM    5  C5  UNL     1      31.098  21.522  84.944  1.00  0.00     0.118 C 
HETATM    6  C6  UNL     1      30.037  22.547  84.966  1.00  0.00     0.034 C 
HETATM    7  C7  UNL     1      28.642  22.099  84.823  1.00  0.00     0.040 C 
ENDROOT
BRANCH   2   8
HETATM    8  O1  UNL     1      28.223  19.756  85.068  1.00  0.00    -0.390 OA
ATOM      9  H1  UNL     1      29.069  19.598  85.469  1.00  0.00     0.210 HD
ENDBRANCH   2   8
BRANCH   5  10
HETATM   10  O2  UNL     1      32.201  21.966  84.174  1.00  0.00    -0.396 OA
ATOM     11  H2  UNL     1      32.756  21.208  84.028  1.00  0.00     0.210 HD
ENDBRANCH   5  10
TORSDOF 2
ENDMDL
MODEL 3
REMARK VINA RESULT: -4.659699544      1.335      1.753
REMARK  2 active torsions:
REMARK  status: ('A' for Active; 'I' for Inactive)
REMARK    1  A    between atoms: C2_2  and  O1_3 
REMARK    2  A    between atoms: C5_7  and  O2_8 
ROOT
HETATM    1  C1  UNL     1      31.295  21.151  83.987  1.00  0.00     0.045 C 
HETATM    2  C2  UNL     1      29.944  20.477  84.037  1.00  0.00     0.054 C 
HETATM    3  C3  UNL     1      28.964  21.325  84.835  1.00  0.00     0.040 C 
HETATM    4  C4  UNL     1      27.763  20.398  85.032  1.00  0.00     0.034 C 
HETATM    5  C5  UNL     1      27.073  20.292  83.718  1.00  0.00     0.118 C 
HETATM    6  C6  UNL     1      27.933  20.384  82.523  1.00  0.00     0.034 C 
HETATM    7  C7  UNL     1      29.382  20.201  82.699  1.00  0.00     0.040 C 
ENDROOT
BRANCH   2   8
HETATM    8  O1  UNL     1      30.117  19.295  84.789  1.00  0.00    -0.390 OA
ATOM      9  H1  UNL     1      30.478  18.649  84.194  1.00  0.00     0.210 HD
ENDBRANCH   2   8
BRANCH   5  10
HETATM   10  O2  UNL     1      26.081  21.303  83.696  1.00  0.00    -0.396 OA
ATOM     11  H2  UNL     1      25.299  20.910  83.326  1.00  0.00     0.210 HD
ENDBRANCH   5  10
TORSDOF 2
ENDMDL
MODEL 4
REMARK VINA RESULT: -4.582818683      0.821      3.439
REMARK  2 active torsions:
REMARK  status: ('A' for Active; 'I' for Inactive)
REMARK    1  A    between atoms: C2_2  and  O1_3 
REMARK    2  A    between atoms: C5_7  and  O2_8 
ROOT
HETATM    1  C1  UNL     1      27.025  19.813  84.517  1.00  0.00     0.045 C 
HETATM    2  C2  UNL     1      28.118  20.834  84.311  1.00  0.00     0.054 C 
HETATM    3  C3  UNL     1      28.746  21.208  85.645  1.00  0.00     0.040 C 
HETATM    4  C4  UNL     1      29.609  22.426  85.309  1.00  0.00     0.034 C 
HETATM    5  C5  UNL     1      30.787  21.929  84.548  1.00  0.00     0.118 C 
HETATM    6  C6  UNL     1      30.560  20.744  83.700  1.00  0.00     0.034 C 
HETATM    7  C7  UNL     1      29.171  20.379  83.381  1.00  0.00     0.040 C 
ENDROOT
BRANCH   2   8
HETATM    8  O1  UNL     1      27.483  22.009  83.851  1.00  0.00    -0.390 OA
ATOM      9  H1  UNL     1      27.042  21.778  83.043  1.00  0.00     0.210 HD
ENDBRANCH   2   8
BRANCH   5  10
HETATM   10  O2  UNL     1      31.807  21.674  85.497  1.00  0.00    -0.396 OA
ATOM     11  H2  UNL     1      31.766  20.746  85.699  1.00  0.00     0.210 HD
ENDBRANCH   5  10
TORSDOF 2
ENDMDL
MODEL 5
REMARK VINA RESULT: -4.338303987      1.654      2.511
REMARK  2 active torsions:
REMARK  status: ('A' for Active; 'I' for Inactive)
REMARK    1  A    between atoms: C2_2  and  O1_3 
REMARK    2  A    between atoms: C5_7  and  O2_8 
ROOT
HETATM    1  C1  UNL     1      29.890  23.912  85.155  1.00  0.00     0.045 C 
HETATM    2  C2  UNL     1      30.194  22.433  85.120  1.00  0.00     0.054 C 
HETATM    3  C3  UNL     1      29.128  21.697  84.322  1.00  0.00     0.040 C 
HETATM    4  C4  UNL     1      29.413  20.222  84.615  1.00  0.00     0.034 C 
HETATM    5  C5  UNL     1      30.650  19.861  83.872  1.00  0.00     0.118 C 
HETATM    6  C6  UNL     1      31.644  20.937  83.703  1.00  0.00     0.034 C 
HETATM    7  C7  UNL     1      31.527  22.127  84.560  1.00  0.00     0.040 C 
ENDROOT
BRANCH   2   8
HETATM    8  O1  UNL     1      30.061  21.967  86.446  1.00  0.00    -0.390 OA
ATOM      9  H1  UNL     1      29.573  22.632  86.916  1.00  0.00     0.210 HD
ENDBRANCH   2   8
BRANCH   5  10
HETATM   10  O2  UNL     1      30.238  19.361  82.613  1.00  0.00    -0.396 OA
ATOM     11  H2  UNL     1      30.875  19.666  81.976  1.00  0.00     0.210 HD
ENDBRANCH   5  10
TORSDOF 2
ENDMDL
