MODEL 1
REMARK VINA RESULT: -7.739315029      0.000      0.000
REMARK  3 active torsions:
REMARK  status: ('A' for Active; 'I' for Inactive)
REMARK    1  A    between atoms: O1_2  and  N1_3 
REMARK    2  A    between atoms: C2_5  and  C4_7 
REMARK    3  A    between atoms: C7_15  and  N5_16 
ROOT
HETATM    1  C4  UNL     1      35.349  59.383   8.196  1.00  0.00     0.099 A 
HETATM    2  C5  UNL     1      35.917  60.237   7.297  1.00  0.00     0.149 A 
HETATM    3  N2  UNL     1      36.633  59.792   6.155  1.00  0.00    -0.081 NA
HETATM    4  N3  UNL     1      35.793  61.588   7.506  1.00  0.00    -0.176 N 
ATOM      5  H3  UNL     1      36.216  62.234   6.840  1.00  0.00     0.185 HD
HETATM    6  C6  UNL     1      35.132  62.079   8.564  1.00  0.00     0.711 A 
HETATM    7  N4  UNL     1      35.016  63.409   8.760  1.00  0.00    -0.021 N 
ATOM      8  H4  UNL     1      35.439  64.051   8.090  1.00  0.00     0.203 HD
HETATM    9  C7  UNL     1      34.354  63.906   9.819  1.00  0.00     0.694 A 
HETATM   10  N6  UNL     1      33.776  63.105  10.735  1.00  0.00    -0.140 N 
ATOM     11  H6  UNL     1      33.275  63.488  11.537  1.00  0.00     0.189 HD
HETATM   12  C8  UNL     1      33.887  61.785  10.546  1.00  0.00     0.362 A 
HETATM   13  O2  UNL     1      33.369  61.001  11.366  1.00  0.00    -0.245 OA
HETATM   14  N7  UNL     1      34.558  61.272   9.472  1.00  0.00    -0.057 N 
HETATM   15  C9  UNL     1      34.668  59.959   9.286  1.00  0.00     0.286 A 
HETATM   16  O3  UNL     1      34.154  59.172  10.100  1.00  0.00    -0.266 OA
ENDROOT
BRANCH   1  17
HETATM   17  C2  UNL     1      35.421  57.955   8.069  1.00  0.00     0.047 C 
HETATM   18  N1  UNL     1      36.142  57.244   8.920  1.00  0.00    -0.271 N 
ATOM     19  H1  UNL     1      36.633  57.752   9.656  1.00  0.00     0.194 HD
HETATM   20  C3  UNL     1      34.741  57.164   7.037  1.00  0.00     0.071 C 
BRANCH  18  21
HETATM   21  O1  UNL     1      36.279  55.916   8.894  1.00  0.00    -0.285 OA
HETATM   22  C1  UNL     1      35.473  54.945   9.489  1.00  0.00     0.237 C 
ENDBRANCH  18  21
ENDBRANCH   1  17
BRANCH   9  23
HETATM   23  N5  UNL     1      34.258  65.173   9.982  1.00  0.00    -0.234 N 
ATOM     24  H52 UNL     1      34.517  65.777   9.202  1.00  0.00     0.174 HD
ATOM     25  H51 UNL     1      33.932  65.552  10.872  1.00  0.00     0.174 HD
ENDBRANCH   9  23
TORSDOF 3
ENDMDL
MODEL 2
REMARK VINA RESULT: -7.380132243      1.155      1.317
REMARK  3 active torsions:
REMARK  status: ('A' for Active; 'I' for Inactive)
REMARK    1  A    between atoms: O1_2  and  N1_3 
REMARK    2  A    between atoms: C2_5  and  C4_7 
REMARK    3  A    between atoms: C7_15  and  N5_16 
ROOT
HETATM    1  C4  UNL     1      35.457  58.647   7.760  1.00  0.00     0.099 A 
HETATM    2  C5  UNL     1      36.046  59.139   6.632  1.00  0.00     0.149 A 
HETATM    3  N2  UNL     1      36.581  58.307   5.615  1.00  0.00    -0.081 NA
HETATM    4  N3  UNL     1      36.126  60.500   6.474  1.00  0.00    -0.176 N 
ATOM      5  H3  UNL     1      36.565  60.877   5.634  1.00  0.00     0.185 HD
HETATM    6  C6  UNL     1      35.642  61.346   7.394  1.00  0.00     0.711 A 
HETATM    7  N4  UNL     1      35.726  62.682   7.228  1.00  0.00    -0.021 N 
ATOM      8  H4  UNL     1      36.165  63.054   6.386  1.00  0.00     0.203 HD
HETATM    9  C7  UNL     1      35.242  63.534   8.149  1.00  0.00     0.694 A 
HETATM   10  N6  UNL     1      34.652  63.098   9.279  1.00  0.00    -0.140 N 
ATOM     11  H6  UNL     1      34.287  63.750   9.975  1.00  0.00     0.189 HD
HETATM   12  C8  UNL     1      34.566  61.775   9.449  1.00  0.00     0.362 A 
HETATM   13  O2  UNL     1      34.029  61.320  10.479  1.00  0.00    -0.245 OA
HETATM   14  N7  UNL     1      35.055  60.902   8.518  1.00  0.00    -0.057 N 
HETATM   15  C9  UNL     1      34.969  59.585   8.689  1.00  0.00     0.286 A 
HETATM   16  O3  UNL     1      34.434  59.127   9.714  1.00  0.00    -0.266 OA
ENDROOT
BRANCH   1  17
HETATM   17  C2  UNL     1      35.324  57.242   8.021  1.00  0.00     0.047 C 
HETATM   18  N1  UNL     1      36.019  56.674   8.992  1.00  0.00    -0.271 N 
ATOM     19  H1  UNL     1      36.641  57.273   9.535  1.00  0.00     0.194 HD
HETATM   20  C3  UNL     1      34.450  56.324   7.281  1.00  0.00     0.071 C 
BRANCH  18  21
HETATM   21  O1  UNL     1      35.973  55.381   9.320  1.00  0.00    -0.285 OA
HETATM   22  C1  UNL     1      35.258  54.767  10.349  1.00  0.00     0.237 C 
ENDBRANCH  18  21
ENDBRANCH   1  17
BRANCH   9  23
HETATM   23  N5  UNL     1      35.334  64.799   7.968  1.00  0.00    -0.234 N 
ATOM     24  H52 UNL     1      36.260  65.193   7.803  1.00  0.00     0.174 HD
ATOM     25  H51 UNL     1      34.497  65.382   7.989  1.00  0.00     0.174 HD
ENDBRANCH   9  23
TORSDOF 3
ENDMDL
MODEL 3
REMARK VINA RESULT: -7.222790505      3.156      5.423
REMARK  3 active torsions:
REMARK  status: ('A' for Active; 'I' for Inactive)
REMARK    1  A    between atoms: O1_2  and  N1_3 
REMARK    2  A    between atoms: C2_5  and  C4_7 
REMARK    3  A    between atoms: C7_15  and  N5_16 
ROOT
HETATM    1  C4  UNL     1      34.671  63.191   9.044  1.00  0.00     0.099 A 
HETATM    2  C5  UNL     1      34.048  64.183   9.744  1.00  0.00     0.149 A 
HETATM    3  N2  UNL     1      34.061  65.542   9.336  1.00  0.00    -0.081 NA
HETATM    4  N3  UNL     1      33.381  63.852  10.897  1.00  0.00    -0.176 N 
ATOM      5  H3  UNL     1      32.913  64.586  11.428  1.00  0.00     0.185 HD
HETATM    6  C6  UNL     1      33.328  62.588  11.343  1.00  0.00     0.711 A 
HETATM    7  N4  UNL     1      32.668  62.274  12.477  1.00  0.00    -0.021 N 
ATOM      8  H4  UNL     1      32.201  63.013  13.003  1.00  0.00     0.203 HD
HETATM    9  C7  UNL     1      32.613  61.009  12.927  1.00  0.00     0.694 A 
HETATM   10  N6  UNL     1      33.211  59.995  12.272  1.00  0.00    -0.140 N 
ATOM     11  H6  UNL     1      33.166  59.036  12.619  1.00  0.00     0.189 HD
HETATM   12  C8  UNL     1      33.866  60.300  11.146  1.00  0.00     0.362 A 
HETATM   13  O2  UNL     1      34.437  59.397  10.503  1.00  0.00    -0.245 OA
HETATM   14  N7  UNL     1      33.927  61.584  10.682  1.00  0.00    -0.057 N 
HETATM   15  C9  UNL     1      34.580  61.886   9.563  1.00  0.00     0.286 A 
HETATM   16  O3  UNL     1      35.151  60.989   8.917  1.00  0.00    -0.266 OA
ENDROOT
BRANCH   1  17
HETATM   17  C2  UNL     1      35.395  63.432   7.827  1.00  0.00     0.047 C 
HETATM   18  N1  UNL     1      34.781  63.943   6.774  1.00  0.00    -0.271 N 
ATOM     19  H1  UNL     1      33.787  64.153   6.868  1.00  0.00     0.194 HD
HETATM   20  C3  UNL     1      36.821  63.152   7.625  1.00  0.00     0.071 C 
BRANCH  18  21
HETATM   21  O1  UNL     1      35.355  64.206   5.598  1.00  0.00    -0.285 OA
HETATM   22  C1  UNL     1      34.748  64.537   4.386  1.00  0.00     0.237 C 
ENDBRANCH  18  21
ENDBRANCH   1  17
BRANCH   9  23
HETATM   23  N5  UNL     1      31.980  60.737  14.008  1.00  0.00    -0.234 N 
ATOM     24  H52 UNL     1      32.520  60.409  14.809  1.00  0.00     0.174 HD
ATOM     25  H51 UNL     1      30.967  60.849  14.051  1.00  0.00     0.174 HD
ENDBRANCH   9  23
TORSDOF 3
ENDMDL
MODEL 4
REMARK VINA RESULT: -7.068444313      2.196      6.101
REMARK  3 active torsions:
REMARK  status: ('A' for Active; 'I' for Inactive)
REMARK    1  A    between atoms: O1_2  and  N1_3 
REMARK    2  A    between atoms: C2_5  and  C4_7 
REMARK    3  A    between atoms: C7_15  and  N5_16 
ROOT
HETATM    1  C4  UNL     1      34.720  63.385   9.006  1.00  0.00     0.099 A 
HETATM    2  C5  UNL     1      35.551  63.186   7.942  1.00  0.00     0.149 A 
HETATM    3  N2  UNL     1      36.014  64.243   7.116  1.00  0.00    -0.081 NA
HETATM    4  N3  UNL     1      35.956  61.907   7.656  1.00  0.00    -0.176 N 
ATOM      5  H3  UNL     1      36.577  61.748   6.863  1.00  0.00     0.185 HD
HETATM    6  C6  UNL     1      35.558  60.860   8.393  1.00  0.00     0.711 A 
HETATM    7  N4  UNL     1      35.963  59.606   8.103  1.00  0.00    -0.021 N 
ATOM      8  H4  UNL     1      36.584  59.454   7.309  1.00  0.00     0.203 HD
HETATM    9  C7  UNL     1      35.565  58.554   8.839  1.00  0.00     0.694 A 
HETATM   10  N6  UNL     1      34.745  58.698   9.899  1.00  0.00    -0.140 N 
ATOM     11  H6  UNL     1      34.446  57.895  10.454  1.00  0.00     0.189 HD
HETATM   12  C8  UNL     1      34.341  59.939  10.192  1.00  0.00     0.362 A 
HETATM   13  O2  UNL     1      33.581  60.125  11.163  1.00  0.00    -0.245 OA
HETATM   14  N7  UNL     1      34.740  61.014   9.449  1.00  0.00    -0.057 N 
HETATM   15  C9  UNL     1      34.336  62.247   9.740  1.00  0.00     0.286 A 
HETATM   16  O3  UNL     1      33.579  62.439  10.708  1.00  0.00    -0.266 OA
ENDROOT
BRANCH   1  17
HETATM   17  C2  UNL     1      34.239  64.683   9.389  1.00  0.00     0.047 C 
HETATM   18  N1  UNL     1      33.885  65.562   8.466  1.00  0.00    -0.271 N 
ATOM     19  H1  UNL     1      33.970  65.277   7.491  1.00  0.00     0.194 HD
HETATM   20  C3  UNL     1      34.093  65.155  10.770  1.00  0.00     0.071 C 
BRANCH  18  21
HETATM   21  O1  UNL     1      33.427  66.792   8.709  1.00  0.00    -0.285 OA
HETATM   22  C1  UNL     1      33.758  67.988   8.070  1.00  0.00     0.237 C 
ENDBRANCH  18  21
ENDBRANCH   1  17
BRANCH   9  23
HETATM   23  N5  UNL     1      35.964  57.373   8.544  1.00  0.00    -0.234 N 
ATOM     24  H52 UNL     1      36.959  57.235   8.363  1.00  0.00     0.174 HD
ATOM     25  H51 UNL     1      35.296  56.603   8.494  1.00  0.00     0.174 HD
ENDBRANCH   9  23
TORSDOF 3
ENDMDL
MODEL 5
REMARK VINA RESULT: -6.960129819      2.377      6.464
REMARK  3 active torsions:
REMARK  status: ('A' for Active; 'I' for Inactive)
REMARK    1  A    between atoms: O1_2  and  N1_3 
REMARK    2  A    between atoms: C2_5  and  C4_7 
REMARK    3  A    between atoms: C7_15  and  N5_16 
ROOT
HETATM    1  C4  UNL     1      34.208  62.772   9.976  1.00  0.00     0.099 A 
HETATM    2  C5  UNL     1      33.592  61.948  10.872  1.00  0.00     0.149 A 
HETATM    3  N2  UNL     1      32.761  62.427  11.918  1.00  0.00    -0.081 NA
HETATM    4  N3  UNL     1      33.784  60.594  10.758  1.00  0.00    -0.176 N 
ATOM      5  H3  UNL     1      33.328  59.970  11.423  1.00  0.00     0.185 HD
HETATM    6  C6  UNL     1      34.557  60.070   9.795  1.00  0.00     0.711 A 
HETATM    7  N4  UNL     1      34.738  58.738   9.692  1.00  0.00    -0.021 N 
ATOM      8  H4  UNL     1      34.279  58.118  10.359  1.00  0.00     0.203 HD
HETATM    9  C7  UNL     1      35.512  58.209   8.728  1.00  0.00     0.694 A 
HETATM   10  N6  UNL     1      36.142  58.980   7.820  1.00  0.00    -0.140 N 
ATOM     11  H6  UNL     1      36.728  58.573   7.090  1.00  0.00     0.189 HD
HETATM   12  C8  UNL     1      35.965  60.302   7.916  1.00  0.00     0.362 A 
HETATM   13  O2  UNL     1      36.527  61.059   7.100  1.00  0.00    -0.245 OA
HETATM   14  N7  UNL     1      35.180  60.848   8.894  1.00  0.00    -0.057 N 
HETATM   15  C9  UNL     1      35.006  62.163   8.989  1.00  0.00     0.286 A 
HETATM   16  O3  UNL     1      35.564  62.923   8.178  1.00  0.00    -0.266 OA
ENDROOT
BRANCH   1  17
HETATM   17  C2  UNL     1      34.072  64.201  10.009  1.00  0.00     0.047 C 
HETATM   18  N1  UNL     1      33.708  64.862   8.923  1.00  0.00    -0.271 N 
ATOM     19  H1  UNL     1      33.533  64.317   8.080  1.00  0.00     0.194 HD
HETATM   20  C3  UNL     1      34.309  65.045  11.186  1.00  0.00     0.071 C 
BRANCH  18  21
HETATM   21  O1  UNL     1      33.552  66.185   8.842  1.00  0.00    -0.285 OA
HETATM   22  C1  UNL     1      33.971  67.052   7.832  1.00  0.00     0.237 C 
ENDBRANCH  18  21
ENDBRANCH   1  17
BRANCH   9  23
HETATM   23  N5  UNL     1      35.669  56.940   8.651  1.00  0.00    -0.234 N 
ATOM     24  H52 UNL     1      35.553  56.497   7.739  1.00  0.00     0.174 HD
ATOM     25  H51 UNL     1      35.903  56.400   9.485  1.00  0.00     0.174 HD
ENDBRANCH   9  23
TORSDOF 3
ENDMDL
