MODEL 1
REMARK VINA RESULT: -7.543128310      0.000      0.000
REMARK  3 active torsions:
REMARK  status: ('A' for Active; 'I' for Inactive)
REMARK    1  A    between atoms: C3_4  and  C4_5 
REMARK    2  A    between atoms: C6_10  and  N4_11 
REMARK    3  A    between atoms: N5_16  and  O3_17 
ROOT
HETATM    1  N1  UNL     1      35.781  64.525   6.667  1.00  0.00    -0.191 NA
HETATM    2  C1  UNL     1      35.415  63.845   7.531  1.00  0.00     0.106 C 
HETATM    3  C2  UNL     1      34.947  63.036   8.613  1.00  0.00     0.132 A 
HETATM    4  C3  UNL     1      35.262  61.704   8.672  1.00  0.00     0.083 A 
HETATM    5  C5  UNL     1      34.779  60.970   9.746  1.00  0.00     0.109 A 
HETATM    6  N3  UNL     1      35.106  59.574   9.814  1.00  0.00    -0.097 NA
HETATM    7  C6  UNL     1      34.013  61.562  10.715  1.00  0.00     0.162 A 
HETATM    8  N5  UNL     1      33.707  62.867  10.653  1.00  0.00    -0.168 N 
HETATM    9  C10 UNL     1      34.168  63.594   9.616  1.00  0.00     0.295 A 
HETATM   10  O4  UNL     1      33.877  64.819   9.563  1.00  0.00    -0.264 OA
ENDROOT
BRANCH   4  11
HETATM   11  C4  UNL     1      36.074  61.010   7.676  1.00  0.00     0.268 C 
HETATM   12  N2  UNL     1      35.545  60.372   6.544  1.00  0.00    -0.057 NA
HETATM   13  O1  UNL     1      37.344  60.954   7.803  1.00  0.00    -0.271 OA
ENDBRANCH   4  11
BRANCH   8  14
HETATM   14  O3  UNL     1      32.940  63.481  11.611  1.00  0.00    -0.278 OA
ATOM     15  H3  UNL     1      32.890  63.157  12.502  1.00  0.00     0.245 HD
ENDBRANCH   8  14
BRANCH   7  16
HETATM   16  N4  UNL     1      33.552  60.744  11.789  1.00  0.00    -0.340 N 
HETATM   17  C7  UNL     1      34.375  60.245  12.900  1.00  0.00     0.153 C 
HETATM   18  C8  UNL     1      33.331  59.927  13.929  1.00  0.00     0.189 C 
HETATM   19  O2  UNL     1      32.127  60.444  13.450  1.00  0.00    -0.370 OA
HETATM   20  C9  UNL     1      32.229  60.218  12.065  1.00  0.00     0.294 C 
ENDBRANCH   7  16
TORSDOF 3
ENDMDL
MODEL 2
REMARK VINA RESULT: -6.875893582      2.337      4.540
REMARK  3 active torsions:
REMARK  status: ('A' for Active; 'I' for Inactive)
REMARK    1  A    between atoms: C3_4  and  C4_5 
REMARK    2  A    between atoms: C6_10  and  N4_11 
REMARK    3  A    between atoms: N5_16  and  O3_17 
ROOT
HETATM    1  N1  UNL     1      34.166  65.050  10.107  1.00  0.00    -0.191 NA
HETATM    2  C1  UNL     1      34.360  63.943   9.828  1.00  0.00     0.106 C 
HETATM    3  C2  UNL     1      34.618  62.587   9.453  1.00  0.00     0.132 A 
HETATM    4  C3  UNL     1      34.165  61.553  10.228  1.00  0.00     0.083 A 
HETATM    5  C5  UNL     1      34.445  60.259   9.813  1.00  0.00     0.109 A 
HETATM    6  N3  UNL     1      33.973  59.170  10.621  1.00  0.00    -0.097 NA
HETATM    7  C6  UNL     1      35.152  60.027   8.663  1.00  0.00     0.162 A 
HETATM    8  N5  UNL     1      35.594  61.043   7.906  1.00  0.00    -0.168 N 
HETATM    9  C10 UNL     1      35.330  62.306   8.296  1.00  0.00     0.295 A 
HETATM   10  O4  UNL     1      35.749  63.257   7.581  1.00  0.00    -0.264 OA
ENDROOT
BRANCH   4  11
HETATM   11  C4  UNL     1      33.405  61.728  11.463  1.00  0.00     0.268 C 
HETATM   12  N2  UNL     1      33.860  61.314  12.725  1.00  0.00    -0.057 NA
HETATM   13  O1  UNL     1      32.255  62.283  11.442  1.00  0.00    -0.271 OA
ENDBRANCH   4  11
BRANCH   8  14
HETATM   14  O3  UNL     1      36.305  60.836   6.751  1.00  0.00    -0.278 OA
ATOM     15  H3  UNL     1      36.245  61.426   6.009  1.00  0.00     0.245 HD
ENDBRANCH   8  14
BRANCH   7  16
HETATM   16  N4  UNL     1      35.403  58.670   8.298  1.00  0.00    -0.340 N 
HETATM   17  C7  UNL     1      36.389  57.782   8.930  1.00  0.00     0.153 C 
HETATM   18  C8  UNL     1      35.871  56.431   8.537  1.00  0.00     0.189 C 
HETATM   19  O2  UNL     1      34.616  56.634   7.964  1.00  0.00    -0.370 OA
HETATM   20  C9  UNL     1      34.790  57.848   7.274  1.00  0.00     0.294 C 
ENDBRANCH   7  16
TORSDOF 3
ENDMDL
MODEL 3
REMARK VINA RESULT: -6.673557304      1.791      3.385
REMARK  3 active torsions:
REMARK  status: ('A' for Active; 'I' for Inactive)
REMARK    1  A    between atoms: C3_4  and  C4_5 
REMARK    2  A    between atoms: C6_10  and  N4_11 
REMARK    3  A    between atoms: N5_16  and  O3_17 
ROOT
HETATM    1  N1  UNL     1      36.818  59.660   6.207  1.00  0.00    -0.191 NA
HETATM    2  C1  UNL     1      36.232  59.946   7.165  1.00  0.00     0.106 C 
HETATM    3  C2  UNL     1      35.505  60.261   8.355  1.00  0.00     0.132 A 
HETATM    4  C3  UNL     1      35.227  61.562   8.676  1.00  0.00     0.083 A 
HETATM    5  C5  UNL     1      34.518  61.807   9.844  1.00  0.00     0.109 A 
HETATM    6  N3  UNL     1      34.223  63.169  10.185  1.00  0.00    -0.097 NA
HETATM    7  C6  UNL     1      34.111  60.776  10.647  1.00  0.00     0.162 A 
HETATM    8  N5  UNL     1      34.385  59.501  10.330  1.00  0.00    -0.168 N 
HETATM    9  C10 UNL     1      35.073  59.248   9.199  1.00  0.00     0.295 A 
HETATM   10  O4  UNL     1      35.329  58.048   8.906  1.00  0.00    -0.264 OA
ENDROOT
BRANCH   4  11
HETATM   11  C4  UNL     1      35.628  62.709   7.865  1.00  0.00     0.268 C 
HETATM   12  N2  UNL     1      36.792  63.459   8.094  1.00  0.00    -0.057 NA
HETATM   13  O1  UNL     1      34.908  63.088   6.880  1.00  0.00    -0.271 OA
ENDBRANCH   4  11
BRANCH   8  14
HETATM   14  O3  UNL     1      33.989  58.451  11.120  1.00  0.00    -0.278 OA
ATOM     15  H3  UNL     1      33.092  58.140  11.133  1.00  0.00     0.245 HD
ENDBRANCH   8  14
BRANCH   7  16
HETATM   16  N4  UNL     1      33.386  61.102  11.833  1.00  0.00    -0.340 N 
HETATM   17  C7  UNL     1      32.008  61.613  11.880  1.00  0.00     0.153 C 
HETATM   18  C8  UNL     1      31.614  61.282  13.289  1.00  0.00     0.189 C 
HETATM   19  O2  UNL     1      32.625  60.474  13.808  1.00  0.00    -0.370 OA
HETATM   20  C9  UNL     1      33.782  61.022  13.224  1.00  0.00     0.294 C 
ENDBRANCH   7  16
TORSDOF 3
ENDMDL
MODEL 4
REMARK VINA RESULT: -6.652551945      2.121      3.800
REMARK  3 active torsions:
REMARK  status: ('A' for Active; 'I' for Inactive)
REMARK    1  A    between atoms: C3_4  and  C4_5 
REMARK    2  A    between atoms: C6_10  and  N4_11 
REMARK    3  A    between atoms: N5_16  and  O3_17 
ROOT
HETATM    1  N1  UNL     1      33.889  65.535   9.997  1.00  0.00    -0.191 NA
HETATM    2  C1  UNL     1      34.128  64.420   9.793  1.00  0.00     0.106 C 
HETATM    3  C2  UNL     1      34.405  63.035   9.572  1.00  0.00     0.132 A 
HETATM    4  C3  UNL     1      35.139  62.636   8.487  1.00  0.00     0.083 A 
HETATM    5  C5  UNL     1      35.375  61.278   8.325  1.00  0.00     0.109 A 
HETATM    6  N3  UNL     1      36.144  60.855   7.190  1.00  0.00    -0.097 NA
HETATM    7  C6  UNL     1      34.889  60.368   9.226  1.00  0.00     0.162 A 
HETATM    8  N5  UNL     1      34.170  60.762  10.289  1.00  0.00    -0.168 N 
HETATM    9  C10 UNL     1      33.932  62.078  10.459  1.00  0.00     0.295 A 
HETATM   10  O4  UNL     1      33.256  62.442  11.459  1.00  0.00    -0.264 OA
ENDROOT
BRANCH   4  11
HETATM   11  C4  UNL     1      35.688  63.551   7.490  1.00  0.00     0.268 C 
HETATM   12  N2  UNL     1      34.959  64.046   6.397  1.00  0.00    -0.057 NA
HETATM   13  O1  UNL     1      36.899  63.951   7.577  1.00  0.00    -0.271 OA
ENDBRANCH   4  11
BRANCH   8  14
HETATM   14  O3  UNL     1      33.672  59.869  11.203  1.00  0.00    -0.278 OA
ATOM     15  H3  UNL     1      34.149  59.089  11.458  1.00  0.00     0.245 HD
ENDBRANCH   8  14
BRANCH   7  16
HETATM   16  N4  UNL     1      35.172  58.988   8.996  1.00  0.00    -0.340 N 
HETATM   17  C7  UNL     1      34.192  57.970   8.590  1.00  0.00     0.153 C 
HETATM   18  C8  UNL     1      35.084  56.910   8.014  1.00  0.00     0.189 C 
HETATM   19  O2  UNL     1      36.361  57.462   7.932  1.00  0.00    -0.370 OA
HETATM   20  C9  UNL     1      36.422  58.261   9.089  1.00  0.00     0.294 C 
ENDBRANCH   7  16
TORSDOF 3
ENDMDL
MODEL 5
REMARK VINA RESULT: -6.225770788      1.567      3.221
REMARK  3 active torsions:
REMARK  status: ('A' for Active; 'I' for Inactive)
REMARK    1  A    between atoms: C3_4  and  C4_5 
REMARK    2  A    between atoms: C6_10  and  N4_11 
REMARK    3  A    between atoms: N5_16  and  O3_17 
ROOT
HETATM    1  N1  UNL     1      37.205  61.163   7.250  1.00  0.00    -0.191 NA
HETATM    2  C1  UNL     1      36.411  61.127   8.093  1.00  0.00     0.106 C 
HETATM    3  C2  UNL     1      35.438  61.045   9.137  1.00  0.00     0.132 A 
HETATM    4  C3  UNL     1      34.735  62.155   9.522  1.00  0.00     0.083 A 
HETATM    5  C5  UNL     1      33.803  62.014  10.540  1.00  0.00     0.109 A 
HETATM    6  N3  UNL     1      33.063  63.174  10.948  1.00  0.00    -0.097 NA
HETATM    7  C6  UNL     1      33.596  60.800  11.140  1.00  0.00     0.162 A 
HETATM    8  N5  UNL     1      34.286  59.714  10.760  1.00  0.00    -0.168 N 
HETATM    9  C10 UNL     1      35.195  59.835   9.772  1.00  0.00     0.295 A 
HETATM   10  O4  UNL     1      35.841  58.811   9.420  1.00  0.00    -0.264 OA
ENDROOT
BRANCH   4  11
HETATM   11  C4  UNL     1      34.904  63.478   8.925  1.00  0.00     0.268 C 
HETATM   12  N2  UNL     1      34.923  63.714   7.542  1.00  0.00    -0.057 NA
HETATM   13  O1  UNL     1      35.048  64.508   9.667  1.00  0.00    -0.271 OA
ENDBRANCH   4  11
BRANCH   8  14
HETATM   14  O3  UNL     1      34.097  58.488  11.346  1.00  0.00    -0.278 OA
ATOM     15  H3  UNL     1      34.752  57.802  11.304  1.00  0.00     0.245 HD
ENDBRANCH   8  14
BRANCH   7  16
HETATM   16  N4  UNL     1      32.621  60.730  12.180  1.00  0.00    -0.340 N 
HETATM   17  C7  UNL     1      32.903  60.476  13.601  1.00  0.00     0.153 C 
HETATM   18  C8  UNL     1      31.664  61.015  14.253  1.00  0.00     0.189 C 
HETATM   19  O2  UNL     1      30.948  61.684  13.261  1.00  0.00    -0.370 OA
HETATM   20  C9  UNL     1      31.182  60.885  12.126  1.00  0.00     0.294 C 
ENDBRANCH   7  16
TORSDOF 3
ENDMDL
