MODEL 1
REMARK VINA RESULT: -6.896468759      0.000      0.000
REMARK  4 active torsions:
REMARK  status: ('A' for Active; 'I' for Inactive)
REMARK    1  A    between atoms: O1_2  and  C2_3 
REMARK    2  A    between atoms: C5_11  and  C6_12 
REMARK    3  A    between atoms: C8_16  and  N5_17 
REMARK    4  A    between atoms: N6_20  and  O3_21 
ROOT
HETATM    1  C2  UNL     1      33.510  60.565  11.618  1.00  0.00     0.226 A 
HETATM    2  N1  UNL     1      33.128  61.851  11.696  1.00  0.00    -0.308 N 
ATOM      3  H1  UNL     1      32.510  62.180  12.438  1.00  0.00     0.170 HD
HETATM    4  C3  UNL     1      33.596  62.682  10.752  1.00  0.00     0.150 A 
HETATM    5  N2  UNL     1      33.203  64.054  10.813  1.00  0.00    -0.080 NA
HETATM    6  C4  UNL     1      34.431  62.237   9.749  1.00  0.00     0.121 A 
HETATM    7  N3  UNL     1      34.799  63.229   8.887  1.00  0.00    -0.346 N 
ATOM      8  H3  UNL     1      34.811  64.173   9.275  1.00  0.00     0.166 HD
HETATM    9  C5  UNL     1      35.148  63.122   7.588  1.00  0.00     0.102 C 
HETATM   10  C7  UNL     1      35.623  61.971   7.002  1.00  0.00     0.085 C 
HETATM   11  C8  UNL     1      35.934  60.745   7.594  1.00  0.00     0.131 C 
HETATM   12  N6  UNL     1      35.596  60.300   8.814  1.00  0.00    -0.189 N 
HETATM   13  C9  UNL     1      34.785  60.903   9.729  1.00  0.00     0.168 A 
HETATM   14  N7  UNL     1      34.322  60.082  10.661  1.00  0.00    -0.304 N 
ATOM     15  H7  UNL     1      34.580  59.095  10.653  1.00  0.00     0.171 HD
ENDROOT
BRANCH   9  16
HETATM   16  C6  UNL     1      35.021  64.289   6.744  1.00  0.00     0.281 C 
HETATM   17  N4  UNL     1      34.953  64.267   5.346  1.00  0.00    -0.056 NA
HETATM   18  O2  UNL     1      34.965  65.424   7.313  1.00  0.00    -0.269 OA
ENDBRANCH   9  16
BRANCH  11  19
HETATM   19  N5  UNL     1      36.629  59.932   6.896  1.00  0.00    -0.384 N 
ATOM     20  H52 UNL     1      36.450  59.964   5.892  1.00  0.00     0.157 HD
ATOM     21  H51 UNL     1      37.285  59.339   7.402  1.00  0.00     0.157 HD
ENDBRANCH  11  19
BRANCH  12  22
HETATM   22  O3  UNL     1      36.098  59.097   9.251  1.00  0.00    -0.279 OA
ATOM     23  H3  UNL     1      36.588  59.068  10.065  1.00  0.00     0.245 HD
ENDBRANCH  12  22
BRANCH   1  24
HETATM   24  O1  UNL     1      33.009  59.716  12.615  1.00  0.00    -0.327 OA
HETATM   25  C1  UNL     1      32.405  60.218  13.785  1.00  0.00     0.213 C 
ENDBRANCH   1  24
TORSDOF 4
ENDMDL
MODEL 2
REMARK VINA RESULT: -6.793977570      1.808      5.189
REMARK  4 active torsions:
REMARK  status: ('A' for Active; 'I' for Inactive)
REMARK    1  A    between atoms: O1_2  and  C2_3 
REMARK    2  A    between atoms: C5_11  and  C6_12 
REMARK    3  A    between atoms: C8_16  and  N5_17 
REMARK    4  A    between atoms: N6_20  and  O3_21 
ROOT
HETATM    1  C2  UNL     1      34.017  64.584   9.259  1.00  0.00     0.226 A 
HETATM    2  N1  UNL     1      34.801  64.238   8.224  1.00  0.00    -0.308 N 
ATOM      3  H1  UNL     1      35.063  64.911   7.503  1.00  0.00     0.170 HD
HETATM    4  C3  UNL     1      35.224  62.965   8.182  1.00  0.00     0.150 A 
HETATM    5  N2  UNL     1      36.059  62.572   7.092  1.00  0.00    -0.080 NA
HETATM    6  C4  UNL     1      34.872  62.056   9.157  1.00  0.00     0.121 A 
HETATM    7  N3  UNL     1      35.399  60.816   8.939  1.00  0.00    -0.346 N 
ATOM      8  H3  UNL     1      36.273  60.790   8.413  1.00  0.00     0.166 HD
HETATM    9  C5  UNL     1      34.914  59.619   9.333  1.00  0.00     0.102 C 
HETATM   10  C7  UNL     1      34.047  59.439  10.387  1.00  0.00     0.085 C 
HETATM   11  C8  UNL     1      33.572  60.376  11.307  1.00  0.00     0.131 C 
HETATM   12  N6  UNL     1      33.623  61.715  11.232  1.00  0.00    -0.189 N 
HETATM   13  C9  UNL     1      34.064  62.479  10.193  1.00  0.00     0.168 A 
HETATM   14  N7  UNL     1      33.646  63.736  10.234  1.00  0.00    -0.304 N 
ATOM     15  H7  UNL     1      33.049  64.056  10.996  1.00  0.00     0.171 HD
ENDROOT
BRANCH   9  16
HETATM   16  C6  UNL     1      35.326  58.439   8.606  1.00  0.00     0.281 C 
HETATM   17  N4  UNL     1      36.027  58.445   7.395  1.00  0.00    -0.056 NA
HETATM   18  O2  UNL     1      35.030  57.308   9.104  1.00  0.00    -0.269 OA
ENDBRANCH   9  16
BRANCH  11  19
HETATM   19  N5  UNL     1      33.014  59.914  12.358  1.00  0.00    -0.384 N 
ATOM     20  H52 UNL     1      33.602  59.911  13.192  1.00  0.00     0.157 HD
ATOM     21  H51 UNL     1      32.050  59.598  12.263  1.00  0.00     0.157 HD
ENDBRANCH  11  19
BRANCH  12  22
HETATM   22  O3  UNL     1      33.192  62.461  12.303  1.00  0.00    -0.279 OA
ATOM     23  H3  UNL     1      33.628  62.362  13.142  1.00  0.00     0.245 HD
ENDBRANCH  12  22
BRANCH   1  24
HETATM   24  O1  UNL     1      33.588  65.919   9.282  1.00  0.00    -0.327 OA
HETATM   25  C1  UNL     1      33.894  66.816   8.239  1.00  0.00     0.213 C 
ENDBRANCH   1  24
TORSDOF 4
ENDMDL
MODEL 3
REMARK VINA RESULT: -6.717509160      2.370      3.786
REMARK  4 active torsions:
REMARK  status: ('A' for Active; 'I' for Inactive)
REMARK    1  A    between atoms: O1_2  and  C2_3 
REMARK    2  A    between atoms: C5_11  and  C6_12 
REMARK    3  A    between atoms: C8_16  and  N5_17 
REMARK    4  A    between atoms: N6_20  and  O3_21 
ROOT
HETATM    1  C2  UNL     1      35.715  58.382   8.599  1.00  0.00     0.226 A 
HETATM    2  N1  UNL     1      34.747  58.477   9.527  1.00  0.00    -0.308 N 
ATOM      3  H1  UNL     1      34.266  57.650   9.882  1.00  0.00     0.170 HD
HETATM    4  C3  UNL     1      34.444  59.708   9.964  1.00  0.00     0.150 A 
HETATM    5  N2  UNL     1      33.419  59.835  10.950  1.00  0.00    -0.080 NA
HETATM    6  C4  UNL     1      35.094  60.825   9.484  1.00  0.00     0.121 A 
HETATM    7  N3  UNL     1      34.646  61.983  10.049  1.00  0.00    -0.346 N 
ATOM      8  H3  UNL     1      34.259  61.898  10.989  1.00  0.00     0.166 HD
HETATM    9  C5  UNL     1      34.649  63.227   9.524  1.00  0.00     0.102 C 
HETATM   10  C7  UNL     1      35.489  63.644   8.517  1.00  0.00     0.085 C 
HETATM   11  C8  UNL     1      36.540  62.958   7.906  1.00  0.00     0.131 C 
HETATM   12  N6  UNL     1      36.817  61.645   7.953  1.00  0.00    -0.189 N 
HETATM   13  C9  UNL     1      36.080  60.656   8.531  1.00  0.00     0.168 A 
HETATM   14  N7  UNL     1      36.379  59.439   8.099  1.00  0.00    -0.304 N 
ATOM     15  H7  UNL     1      37.106  59.306   7.396  1.00  0.00     0.171 HD
ENDROOT
BRANCH   9  16
HETATM   16  C6  UNL     1      33.712  64.195  10.048  1.00  0.00     0.281 C 
HETATM   17  N4  UNL     1      33.480  65.464   9.504  1.00  0.00    -0.056 NA
HETATM   18  O2  UNL     1      33.046  63.872  11.080  1.00  0.00    -0.269 OA
ENDBRANCH   9  16
BRANCH  11  19
HETATM   19  N5  UNL     1      37.350  63.656   7.207  1.00  0.00    -0.384 N 
ATOM     20  H52 UNL     1      38.108  63.130   6.772  1.00  0.00     0.157 HD
ATOM     21  H51 UNL     1      37.162  64.657   7.153  1.00  0.00     0.157 HD
ENDBRANCH  11  19
BRANCH  12  22
HETATM   22  O3  UNL     1      37.971  61.183   7.365  1.00  0.00    -0.279 OA
ATOM     23  H3  UNL     1      37.974  60.319   6.969  1.00  0.00     0.245 HD
ENDBRANCH  12  22
BRANCH   1  24
HETATM   24  O1  UNL     1      36.015  57.085   8.157  1.00  0.00    -0.327 OA
HETATM   25  C1  UNL     1      35.386  55.950   8.704  1.00  0.00     0.213 C 
ENDBRANCH   1  24
TORSDOF 4
ENDMDL
MODEL 4
REMARK VINA RESULT: -6.577834063      1.537      5.162
REMARK  4 active torsions:
REMARK  status: ('A' for Active; 'I' for Inactive)
REMARK    1  A    between atoms: O1_2  and  C2_3 
REMARK    2  A    between atoms: C5_11  and  C6_12 
REMARK    3  A    between atoms: C8_16  and  N5_17 
REMARK    4  A    between atoms: N6_20  and  O3_21 
ROOT
HETATM    1  C2  UNL     1      35.170  63.753   7.848  1.00  0.00     0.226 A 
HETATM    2  N1  UNL     1      34.476  64.343   8.837  1.00  0.00    -0.308 N 
ATOM      3  H1  UNL     1      34.297  65.348   8.837  1.00  0.00     0.170 HD
HETATM    4  C3  UNL     1      34.029  63.550   9.822  1.00  0.00     0.150 A 
HETATM    5  N2  UNL     1      33.289  64.153  10.884  1.00  0.00    -0.080 NA
HETATM    6  C4  UNL     1      34.270  62.193   9.821  1.00  0.00     0.121 A 
HETATM    7  N3  UNL     1      33.736  61.559  10.905  1.00  0.00    -0.346 N 
ATOM      8  H3  UNL     1      32.914  62.000  11.318  1.00  0.00     0.166 HD
HETATM    9  C5  UNL     1      34.156  60.422  11.501  1.00  0.00     0.102 C 
HETATM   10  C7  UNL     1      34.918  59.457  10.885  1.00  0.00     0.085 C 
HETATM   11  C8  UNL     1      35.329  59.375   9.553  1.00  0.00     0.131 C 
HETATM   12  N6  UNL     1      35.317  60.338   8.617  1.00  0.00    -0.189 N 
HETATM   13  C9  UNL     1      34.990  61.651   8.774  1.00  0.00     0.168 A 
HETATM   14  N7  UNL     1      35.432  62.435   7.801  1.00  0.00    -0.304 N 
ATOM     15  H7  UNL     1      35.964  62.043   7.024  1.00  0.00     0.171 HD
ENDROOT
BRANCH   9  16
HETATM   16  C6  UNL     1      33.785  60.193  12.879  1.00  0.00     0.281 C 
HETATM   17  N4  UNL     1      32.473  60.169  13.365  1.00  0.00    -0.056 NA
HETATM   18  O2  UNL     1      34.720  59.996  13.715  1.00  0.00    -0.269 OA
ENDBRANCH   9  16
BRANCH  11  19
HETATM   19  N5  UNL     1      35.778  58.246   9.160  1.00  0.00    -0.384 N 
ATOM     20  H52 UNL     1      36.141  57.645   9.900  1.00  0.00     0.157 HD
ATOM     21  H51 UNL     1      35.728  58.057   8.159  1.00  0.00     0.157 HD
ENDBRANCH  11  19
BRANCH  12  22
HETATM   22  O3  UNL     1      35.665  60.020   7.326  1.00  0.00    -0.279 OA
ATOM     23  H3  UNL     1      36.445  59.498   7.172  1.00  0.00     0.245 HD
ENDBRANCH  12  22
BRANCH   1  24
HETATM   24  O1  UNL     1      35.627  64.603   6.830  1.00  0.00    -0.327 OA
HETATM   25  C1  UNL     1      34.913  64.771   5.627  1.00  0.00     0.213 C 
ENDBRANCH   1  24
TORSDOF 4
ENDMDL
MODEL 5
REMARK VINA RESULT: -6.551127678      1.969      5.540
REMARK  4 active torsions:
REMARK  status: ('A' for Active; 'I' for Inactive)
REMARK    1  A    between atoms: O1_2  and  C2_3 
REMARK    2  A    between atoms: C5_11  and  C6_12 
REMARK    3  A    between atoms: C8_16  and  N5_17 
REMARK    4  A    between atoms: N6_20  and  O3_21 
ROOT
HETATM    1  C2  UNL     1      35.760  60.149   7.548  1.00  0.00     0.226 A 
HETATM    2  N1  UNL     1      35.435  59.122   8.352  1.00  0.00    -0.308 N 
ATOM      3  H1  UNL     1      35.623  58.155   8.085  1.00  0.00     0.170 HD
HETATM    4  C3  UNL     1      34.855  59.427   9.522  1.00  0.00     0.150 A 
HETATM    5  N2  UNL     1      34.501  58.353  10.394  1.00  0.00    -0.080 NA
HETATM    6  C4  UNL     1      34.603  60.733   9.883  1.00  0.00     0.121 A 
HETATM    7  N3  UNL     1      34.008  60.839  11.107  1.00  0.00    -0.346 N 
ATOM      8  H3  UNL     1      34.207  60.085  11.765  1.00  0.00     0.166 HD
HETATM    9  C5  UNL     1      33.191  61.814  11.560  1.00  0.00     0.102 C 
HETATM   10  C7  UNL     1      33.148  63.091  11.050  1.00  0.00     0.085 C 
HETATM   11  C8  UNL     1      33.956  63.679  10.075  1.00  0.00     0.131 C 
HETATM   12  N6  UNL     1      34.786  63.077   9.208  1.00  0.00    -0.189 N 
HETATM   13  C9  UNL     1      34.962  61.741   9.010  1.00  0.00     0.168 A 
HETATM   14  N7  UNL     1      35.535  61.439   7.854  1.00  0.00    -0.304 N 
ATOM     15  H7  UNL     1      35.804  62.177   7.203  1.00  0.00     0.171 HD
ENDROOT
BRANCH   9  16
HETATM   16  C6  UNL     1      32.297  61.508  12.654  1.00  0.00     0.281 C 
HETATM   17  N4  UNL     1      32.565  60.593  13.679  1.00  0.00    -0.056 NA
HETATM   18  O2  UNL     1      31.182  62.115  12.690  1.00  0.00    -0.269 OA
ENDBRANCH   9  16
BRANCH  11  19
HETATM   19  N5  UNL     1      33.910  64.952   9.984  1.00  0.00    -0.384 N 
ATOM     20  H52 UNL     1      34.086  65.453  10.854  1.00  0.00     0.157 HD
ATOM     21  H51 UNL     1      33.706  65.337   9.062  1.00  0.00     0.157 HD
ENDBRANCH  11  19
BRANCH  12  22
HETATM   22  O3  UNL     1      35.580  63.851   8.395  1.00  0.00    -0.279 OA
ATOM     23  H3  UNL     1      35.985  63.455   7.632  1.00  0.00     0.245 HD
ENDBRANCH  12  22
BRANCH   1  24
HETATM   24  O1  UNL     1      36.366  59.805   6.330  1.00  0.00    -0.327 OA
HETATM   25  C1  UNL     1      36.292  58.500   5.806  1.00  0.00     0.213 C 
ENDBRANCH   1  24
TORSDOF 4
ENDMDL
