MODEL 1
REMARK VINA RESULT: -6.269756011      0.000      0.000
REMARK  8 active torsions:
REMARK  status: ('A' for Active; 'I' for Inactive)
REMARK    1  A    between atoms: O1_2  and  C2_3 
REMARK    2  A    between atoms: C2_3  and  C3_4 
REMARK    3  A    between atoms: C3_4  and  O2_5 
REMARK    4  A    between atoms: N1_9  and  O3_11 
REMARK    5  A    between atoms: O3_11  and  C6_12 
REMARK    6  A    between atoms: N3_17  and  N4_18 
REMARK    7  A    between atoms: C9_21  and  O4_23 
REMARK    8  A    between atoms: C11_25  and  N5_26 
ROOT
HETATM    1  C2  UNL     1      36.024  59.980   7.375  1.00  0.00     0.117 C 
HETATM    2  C4  UNL     1      35.315  60.631   8.518  1.00  0.00     0.100 C 
HETATM    3  C5  UNL     1      35.183  59.601   9.602  1.00  0.00     0.049 C 
HETATM    4  N1  UNL     1      34.535  59.731  10.687  1.00  0.00    -0.263 N 
ATOM      5  H1  UNL     1      34.516  58.960  11.356  1.00  0.00     0.194 HD
HETATM    6  C9  UNL     1      35.944  58.392   9.195  1.00  0.00     0.125 C 
HETATM    7  C10 UNL     1      35.237  57.137   9.633  1.00  0.00     0.055 C 
HETATM    8  C11 UNL     1      35.796  58.488   7.675  1.00  0.00     0.259 C 
ENDROOT
BRANCH   4   9
HETATM    9  O3  UNL     1      33.858  60.894  10.976  1.00  0.00    -0.200 OA
BRANCH   9  10
HETATM   10  C6  UNL     1      32.925  60.939  12.026  1.00  0.00     0.259 C 
HETATM   11  N2  UNL     1      31.759  61.428  11.915  1.00  0.00    -0.352 N 
HETATM   12  C7  UNL     1      31.021  61.340  13.154  1.00  0.00     0.145 C 
ATOM     13  H2  UNL     1      31.388  61.833  11.056  1.00  0.00     0.163 HD
HETATM   14  C8  UNL     1      31.839  60.356  13.967  1.00  0.00     0.172 C 
HETATM   15  N3  UNL     1      33.138  60.460  13.332  1.00  0.00    -0.260 N 
BRANCH  15  16
HETATM   16  N4  UNL     1      34.400  60.151  13.878  1.00  0.00    -0.340 N 
ATOM     17  H42 UNL     1      35.090  59.485  13.531  1.00  0.00     0.177 HD
ATOM     18  H41 UNL     1      34.788  60.577  14.721  1.00  0.00     0.177 HD
ENDBRANCH  15  16
ENDBRANCH   9  10
ENDBRANCH   4   9
BRANCH   6  19
HETATM   19  O4  UNL     1      37.270  58.437   9.542  1.00  0.00    -0.382 OA
ATOM     20  H4  UNL     1      37.432  58.882  10.365  1.00  0.00     0.211 HD
ENDBRANCH   6  19
BRANCH   1  21
HETATM   21  O1  UNL     1      37.367  60.262   7.357  1.00  0.00    -0.380 OA
HETATM   22  C1  UNL     1      37.642  61.496   7.884  1.00  0.00     0.202 C 
ENDBRANCH   1  21
BRANCH   1  23
HETATM   23  C3  UNL     1      35.349  60.216   6.049  1.00  0.00     0.204 C 
BRANCH  23  24
HETATM   24  O2  UNL     1      35.106  61.583   5.918  1.00  0.00    -0.398 OA
ATOM     25  H2  UNL     1      34.974  61.947   6.786  1.00  0.00     0.209 HD
ENDBRANCH  23  24
ENDBRANCH   1  23
BRANCH   8  26
HETATM   26  N5  UNL     1      34.454  58.113   7.360  1.00  0.00    -0.069 N 
ATOM     27  H53 UNL     1      33.838  58.196   8.169  1.00  0.00     0.275 HD
ATOM     28  H52 UNL     1      34.002  58.797   6.754  1.00  0.00     0.275 HD
ATOM     29  H51 UNL     1      34.429  57.176   6.959  1.00  0.00     0.275 HD
ENDBRANCH   8  26
TORSDOF 8
ENDMDL
MODEL 2
REMARK VINA RESULT: -6.154407726      4.983      7.274
REMARK  8 active torsions:
REMARK  status: ('A' for Active; 'I' for Inactive)
REMARK    1  A    between atoms: O1_2  and  C2_3 
REMARK    2  A    between atoms: C2_3  and  C3_4 
REMARK    3  A    between atoms: C3_4  and  O2_5 
REMARK    4  A    between atoms: N1_9  and  O3_11 
REMARK    5  A    between atoms: O3_11  and  C6_12 
REMARK    6  A    between atoms: N3_17  and  N4_18 
REMARK    7  A    between atoms: C9_21  and  O4_23 
REMARK    8  A    between atoms: C11_25  and  N5_26 
ROOT
HETATM    1  C2  UNL     1      33.097  62.609   2.122  1.00  0.00     0.117 C 
HETATM    2  C4  UNL     1      33.755  62.374   3.442  1.00  0.00     0.100 C 
HETATM    3  C5  UNL     1      33.932  63.715   4.093  1.00  0.00     0.049 C 
HETATM    4  N1  UNL     1      34.559  63.949   5.174  1.00  0.00    -0.263 N 
ATOM      5  H1  UNL     1      34.615  64.905   5.525  1.00  0.00     0.194 HD
HETATM    6  C9  UNL     1      33.246  64.735   3.261  1.00  0.00     0.125 C 
HETATM    7  C10 UNL     1      34.017  66.027   3.246  1.00  0.00     0.055 C 
HETATM    8  C11 UNL     1      33.406  64.097   1.879  1.00  0.00     0.259 C 
ENDROOT
BRANCH   4   9
HETATM    9  O3  UNL     1      35.165  62.933   5.877  1.00  0.00    -0.200 OA
BRANCH   9  10
HETATM   10  C6  UNL     1      34.965  62.802   7.263  1.00  0.00     0.259 C 
HETATM   11  N2  UNL     1      34.590  63.752   8.016  1.00  0.00    -0.352 N 
HETATM   12  C7  UNL     1      34.468  63.330   9.392  1.00  0.00     0.145 C 
ATOM     13  H2  UNL     1      34.398  64.699   7.689  1.00  0.00     0.163 HD
HETATM   14  C8  UNL     1      34.489  61.817   9.285  1.00  0.00     0.172 C 
HETATM   15  N3  UNL     1      35.147  61.622   8.009  1.00  0.00    -0.260 N 
BRANCH  15  16
HETATM   16  N4  UNL     1      35.848  60.487   7.557  1.00  0.00    -0.340 N 
ATOM     17  H42 UNL     1      35.740  59.518   7.859  1.00  0.00     0.177 HD
ATOM     18  H41 UNL     1      36.577  60.500   6.843  1.00  0.00     0.177 HD
ENDBRANCH  15  16
ENDBRANCH   9  10
ENDBRANCH   4   9
BRANCH   6  19
HETATM   19  O4  UNL     1      31.916  64.881   3.559  1.00  0.00    -0.382 OA
ATOM     20  H4  UNL     1      31.354  64.267   3.103  1.00  0.00     0.211 HD
ENDBRANCH   6  19
BRANCH   1  21
HETATM   21  O1  UNL     1      31.741  62.405   2.163  1.00  0.00    -0.380 OA
HETATM   22  C1  UNL     1      31.158  62.564   0.934  1.00  0.00     0.202 C 
ENDBRANCH   1  21
BRANCH   1  23
HETATM   23  C3  UNL     1      33.773  61.883   0.987  1.00  0.00     0.204 C 
BRANCH  23  24
HETATM   24  O2  UNL     1      35.041  61.489   1.413  1.00  0.00    -0.398 OA
ATOM     25  H2  UNL     1      35.687  62.009   0.949  1.00  0.00     0.209 HD
ENDBRANCH  23  24
ENDBRANCH   1  23
BRANCH   8  26
HETATM   26  N5  UNL     1      34.771  64.269   1.494  1.00  0.00    -0.069 N 
ATOM     27  H53 UNL     1      35.022  63.665   0.711  1.00  0.00     0.275 HD
ATOM     28  H52 UNL     1      34.927  65.171   1.046  1.00  0.00     0.275 HD
ATOM     29  H51 UNL     1      35.388  64.131   2.294  1.00  0.00     0.275 HD
ENDBRANCH   8  26
TORSDOF 8
ENDMDL
MODEL 3
REMARK VINA RESULT: -5.817899253      8.675     11.231
REMARK  8 active torsions:
REMARK  status: ('A' for Active; 'I' for Inactive)
REMARK    1  A    between atoms: O1_2  and  C2_3 
REMARK    2  A    between atoms: C2_3  and  C3_4 
REMARK    3  A    between atoms: C3_4  and  O2_5 
REMARK    4  A    between atoms: N1_9  and  O3_11 
REMARK    5  A    between atoms: O3_11  and  C6_12 
REMARK    6  A    between atoms: N3_17  and  N4_18 
REMARK    7  A    between atoms: C9_21  and  O4_23 
REMARK    8  A    between atoms: C11_25  and  N5_26 
ROOT
HETATM    1  C2  UNL     1      34.060  63.546   1.841  1.00  0.00     0.117 C 
HETATM    2  C4  UNL     1      34.097  64.915   1.244  1.00  0.00     0.100 C 
HETATM    3  C5  UNL     1      32.681  65.291   0.913  1.00  0.00     0.049 C 
HETATM    4  N1  UNL     1      32.308  66.330   0.283  1.00  0.00    -0.263 N 
ATOM      5  H1  UNL     1      31.314  66.486   0.116  1.00  0.00     0.194 HD
HETATM    6  C9  UNL     1      31.779  64.242   1.450  1.00  0.00     0.125 C 
HETATM    7  C10 UNL     1      30.617  64.004   0.523  1.00  0.00     0.055 C 
HETATM    8  C11 UNL     1      32.700  63.025   1.345  1.00  0.00     0.259 C 
ENDROOT
BRANCH   4   9
HETATM    9  O3  UNL     1      33.224  67.249  -0.178  1.00  0.00    -0.200 OA
BRANCH   9  10
HETATM   10  C6  UNL     1      33.451  68.447   0.522  1.00  0.00     0.259 C 
HETATM   11  N2  UNL     1      32.552  69.312   0.755  1.00  0.00    -0.352 N 
HETATM   12  C7  UNL     1      33.071  70.441   1.492  1.00  0.00     0.145 C 
ATOM     13  H2  UNL     1      31.580  69.221   0.457  1.00  0.00     0.163 HD
HETATM   14  C8  UNL     1      34.407  69.930   1.997  1.00  0.00     0.172 C 
HETATM   15  N3  UNL     1      34.685  68.860   1.060  1.00  0.00    -0.260 N 
BRANCH  15  16
HETATM   16  N4  UNL     1      35.934  68.305   0.720  1.00  0.00    -0.340 N 
ATOM     17  H42 UNL     1      36.122  67.462   0.177  1.00  0.00     0.177 HD
ATOM     18  H41 UNL     1      36.837  68.699   0.988  1.00  0.00     0.177 HD
ENDBRANCH  15  16
ENDBRANCH   9  10
ENDBRANCH   4   9
BRANCH   6  19
HETATM   19  O4  UNL     1      31.418  64.446   2.758  1.00  0.00    -0.382 OA
ATOM     20  H4  UNL     1      30.938  65.253   2.897  1.00  0.00     0.211 HD
ENDBRANCH   6  19
BRANCH   1  21
HETATM   21  O1  UNL     1      34.089  63.567   3.213  1.00  0.00    -0.380 OA
HETATM   22  C1  UNL     1      34.156  62.308   3.747  1.00  0.00     0.202 C 
ENDBRANCH   1  21
BRANCH   1  23
HETATM   23  C3  UNL     1      35.076  62.611   1.239  1.00  0.00     0.204 C 
BRANCH  23  24
HETATM   24  O2  UNL     1      35.871  63.338   0.354  1.00  0.00    -0.398 OA
ATOM     25  H2  UNL     1      36.719  63.476   0.758  1.00  0.00     0.209 HD
ENDBRANCH  23  24
ENDBRANCH   1  23
BRANCH   8  26
HETATM   26  N5  UNL     1      32.773  62.674  -0.038  1.00  0.00    -0.069 N 
ATOM     27  H53 UNL     1      33.377  63.309  -0.559  1.00  0.00     0.275 HD
ATOM     28  H52 UNL     1      33.298  61.812  -0.183  1.00  0.00     0.275 HD
ATOM     29  H51 UNL     1      31.838  62.621  -0.443  1.00  0.00     0.275 HD
ENDBRANCH   8  26
TORSDOF 8
ENDMDL
MODEL 4
REMARK VINA RESULT: -5.700484128      1.732      3.346
REMARK  8 active torsions:
REMARK  status: ('A' for Active; 'I' for Inactive)
REMARK    1  A    between atoms: O1_2  and  C2_3 
REMARK    2  A    between atoms: C2_3  and  C3_4 
REMARK    3  A    between atoms: C3_4  and  O2_5 
REMARK    4  A    between atoms: N1_9  and  O3_11 
REMARK    5  A    between atoms: O3_11  and  C6_12 
REMARK    6  A    between atoms: N3_17  and  N4_18 
REMARK    7  A    between atoms: C9_21  and  O4_23 
REMARK    8  A    between atoms: C11_25  and  N5_26 
ROOT
HETATM    1  C2  UNL     1      35.194  58.179   8.044  1.00  0.00     0.117 C 
HETATM    2  C4  UNL     1      34.340  59.144   8.798  1.00  0.00     0.100 C 
HETATM    3  C5  UNL     1      34.967  60.500   8.648  1.00  0.00     0.049 C 
HETATM    4  N1  UNL     1      34.605  61.565   9.241  1.00  0.00    -0.263 N 
ATOM      5  H1  UNL     1      35.106  62.435   9.060  1.00  0.00     0.194 HD
HETATM    6  C9  UNL     1      36.090  60.394   7.683  1.00  0.00     0.125 C 
HETATM    7  C10 UNL     1      37.236  61.282   8.089  1.00  0.00     0.055 C 
HETATM    8  C11 UNL     1      36.523  58.949   7.942  1.00  0.00     0.259 C 
ENDROOT
BRANCH   4   9
HETATM    9  O3  UNL     1      33.548  61.564  10.122  1.00  0.00    -0.200 OA
BRANCH   9  10
HETATM   10  C6  UNL     1      33.614  60.831  11.320  1.00  0.00     0.259 C 
HETATM   11  N2  UNL     1      34.579  60.065  11.628  1.00  0.00    -0.352 N 
HETATM   12  C7  UNL     1      34.378  59.442  12.915  1.00  0.00     0.145 C 
ATOM     13  H2  UNL     1      35.396  59.909  11.038  1.00  0.00     0.163 HD
HETATM   14  C8  UNL     1      33.257  60.265  13.520  1.00  0.00     0.172 C 
HETATM   15  N3  UNL     1      32.641  60.835  12.337  1.00  0.00    -0.260 N 
BRANCH  15  16
HETATM   16  N4  UNL     1      31.325  61.314  12.188  1.00  0.00    -0.340 N 
ATOM     17  H42 UNL     1      30.842  62.013  12.752  1.00  0.00     0.177 HD
ATOM     18  H41 UNL     1      30.673  61.005  11.466  1.00  0.00     0.177 HD
ENDBRANCH  15  16
ENDBRANCH   9  10
ENDBRANCH   4   9
BRANCH   6  19
HETATM   19  O4  UNL     1      35.705  60.542   6.375  1.00  0.00    -0.382 OA
ATOM     20  H4  UNL     1      35.136  59.847   6.067  1.00  0.00     0.211 HD
ENDBRANCH   6  19
BRANCH   1  21
HETATM   21  O1  UNL     1      34.705  57.907   6.791  1.00  0.00    -0.380 OA
HETATM   22  C1  UNL     1      34.361  56.589   6.646  1.00  0.00     0.202 C 
ENDBRANCH   1  21
BRANCH   1  23
HETATM   23  C3  UNL     1      35.526  56.939   8.834  1.00  0.00     0.204 C 
BRANCH  23  24
HETATM   24  O2  UNL     1      35.141  57.149  10.158  1.00  0.00    -0.398 OA
ATOM     25  H2  UNL     1      34.538  57.882  10.181  1.00  0.00     0.209 HD
ENDBRANCH  23  24
ENDBRANCH   1  23
BRANCH   8  26
HETATM   26  N5  UNL     1      37.207  58.935   9.196  1.00  0.00    -0.069 N 
ATOM     27  H53 UNL     1      37.459  57.989   9.479  1.00  0.00     0.275 HD
ATOM     28  H52 UNL     1      38.146  59.327   9.120  1.00  0.00     0.275 HD
ATOM     29  H51 UNL     1      36.655  59.411   9.910  1.00  0.00     0.275 HD
ENDBRANCH   8  26
TORSDOF 8
ENDMDL
MODEL 5
REMARK VINA RESULT: -5.568672568      8.726     11.264
REMARK  8 active torsions:
REMARK  status: ('A' for Active; 'I' for Inactive)
REMARK    1  A    between atoms: O1_2  and  C2_3 
REMARK    2  A    between atoms: C2_3  and  C3_4 
REMARK    3  A    between atoms: C3_4  and  O2_5 
REMARK    4  A    between atoms: N1_9  and  O3_11 
REMARK    5  A    between atoms: O3_11  and  C6_12 
REMARK    6  A    between atoms: N3_17  and  N4_18 
REMARK    7  A    between atoms: C9_21  and  O4_23 
REMARK    8  A    between atoms: C11_25  and  N5_26 
ROOT
HETATM    1  C2  UNL     1      32.941  63.342   1.139  1.00  0.00     0.117 C 
HETATM    2  C4  UNL     1      33.661  64.571   0.693  1.00  0.00     0.100 C 
HETATM    3  C5  UNL     1      34.152  65.270   1.928  1.00  0.00     0.049 C 
HETATM    4  N1  UNL     1      34.708  66.412   1.974  1.00  0.00    -0.263 N 
ATOM      5  H1  UNL     1      35.005  66.790   2.874  1.00  0.00     0.194 HD
HETATM    6  C9  UNL     1      33.883  64.398   3.099  1.00  0.00     0.125 C 
HETATM    7  C10 UNL     1      33.490  65.214   4.300  1.00  0.00     0.055 C 
HETATM    8  C11 UNL     1      32.624  63.680   2.607  1.00  0.00     0.259 C 
ENDROOT
BRANCH   4   9
HETATM    9  O3  UNL     1      34.915  67.148   0.830  1.00  0.00    -0.200 OA
BRANCH   9  10
HETATM   10  C6  UNL     1      34.118  68.271   0.545  1.00  0.00     0.259 C 
HETATM   11  N2  UNL     1      32.852  68.235   0.452  1.00  0.00    -0.352 N 
HETATM   12  C7  UNL     1      32.299  69.534   0.151  1.00  0.00     0.145 C 
ATOM     13  H2  UNL     1      32.294  67.390   0.575  1.00  0.00     0.163 HD
HETATM   14  C8  UNL     1      33.457  70.471   0.442  1.00  0.00     0.172 C 
HETATM   15  N3  UNL     1      34.592  69.578   0.325  1.00  0.00    -0.260 N 
BRANCH  15  16
HETATM   16  N4  UNL     1      35.933  69.909   0.046  1.00  0.00    -0.340 N 
ATOM     17  H42 UNL     1      36.473  70.699   0.399  1.00  0.00     0.177 HD
ATOM     18  H41 UNL     1      36.547  69.374  -0.569  1.00  0.00     0.177 HD
ENDBRANCH  15  16
ENDBRANCH   9  10
ENDBRANCH   4   9
BRANCH   6  19
HETATM   19  O4  UNL     1      34.878  63.486   3.343  1.00  0.00    -0.382 OA
ATOM     20  H4  UNL     1      34.799  63.056   4.186  1.00  0.00     0.211 HD
ENDBRANCH   6  19
BRANCH   1  21
HETATM   21  O1  UNL     1      33.724  62.217   1.070  1.00  0.00    -0.380 OA
HETATM   22  C1  UNL     1      34.223  62.013  -0.189  1.00  0.00     0.202 C 
ENDBRANCH   1  21
BRANCH   1  23
HETATM   23  C3  UNL     1      31.596  63.172   0.482  1.00  0.00     0.204 C 
BRANCH  23  24
HETATM   24  O2  UNL     1      30.869  62.231   1.210  1.00  0.00    -0.398 OA
ATOM     25  H2  UNL     1      31.480  61.616   1.598  1.00  0.00     0.209 HD
ENDBRANCH  23  24
ENDBRANCH   1  23
BRANCH   8  26
HETATM   26  N5  UNL     1      31.550  64.619   2.683  1.00  0.00    -0.069 N 
ATOM     27  H53 UNL     1      31.513  65.220   1.860  1.00  0.00     0.275 HD
ATOM     28  H52 UNL     1      30.642  64.166   2.582  1.00  0.00     0.275 HD
ATOM     29  H51 UNL     1      31.609  65.161   3.546  1.00  0.00     0.275 HD
ENDBRANCH   8  26
TORSDOF 8
ENDMDL
