MODEL 1
REMARK VINA RESULT: -6.175761807      0.000      0.000
REMARK  5 active torsions:
REMARK  status: ('A' for Active; 'I' for Inactive)
REMARK    1  A    between atoms: C2_3  and  N2_4 
REMARK    2  A    between atoms: C2_3  and  C3_8 
REMARK    3  A    between atoms: C3_8  and  O1_9 
REMARK    4  A    between atoms: C7_22  and  S1_23 
REMARK    5  A    between atoms: S1_23  and  N7_24 
ROOT
HETATM    1  N1  UNL     1      34.520  57.802   6.905  1.00  0.00    -0.195 NA
HETATM    2  C1  UNL     1      34.454  58.022   8.041  1.00  0.00     0.098 C 
HETATM    3  C2  UNL     1      34.372  58.250   9.524  1.00  0.00     0.349 C 
ENDROOT
BRANCH   3   4
HETATM    4  N2  UNL     1      34.841  56.954  10.101  1.00  0.00    -0.057 N 
ATOM      5  H23 UNL     1      34.943  56.201   9.422  1.00  0.00     0.276 HD
ATOM      6  H22 UNL     1      35.815  56.954  10.406  1.00  0.00     0.276 HD
ATOM      7  H21 UNL     1      34.165  56.767  10.843  1.00  0.00     0.276 HD
ENDBRANCH   3   4
BRANCH   3   8
HETATM    8  C3  UNL     1      35.116  59.431  10.013  1.00  0.00     0.209 C 
HETATM    9  N3  UNL     1      35.221  59.105  11.509  1.00  0.00    -0.348 N 
HETATM   10  C4  UNL     1      33.981  59.006  12.151  1.00  0.00     0.180 C 
ATOM     11  H3  UNL     1      36.111  58.972  11.991  1.00  0.00     0.163 HD
HETATM   12  N4  UNL     1      33.274  60.241  11.995  1.00  0.00    -0.338 N 
HETATM   13  C5  UNL     1      33.632  61.156  10.952  1.00  0.00     0.121 A 
ATOM     14  H4  UNL     1      32.509  60.471  12.629  1.00  0.00     0.168 HD
HETATM   15  N5  UNL     1      33.068  62.383  10.963  1.00  0.00    -0.338 N 
HETATM   16  C8  UNL     1      34.601  60.757   9.996  1.00  0.00     0.084 A 
HETATM   17  C6  UNL     1      33.421  63.281  10.046  1.00  0.00     0.183 A 
ATOM     18  H5  UNL     1      32.373  62.620  11.671  1.00  0.00     0.168 HD
HETATM   19  N6  UNL     1      34.311  62.945   9.158  1.00  0.00    -0.341 N 
HETATM   20  C7  UNL     1      34.944  61.699   9.075  1.00  0.00     0.164 A 
ATOM     21  H6  UNL     1      34.569  63.647   8.466  1.00  0.00     0.167 HD
BRANCH   8  22
HETATM   22  O1  UNL     1      36.507  59.247   9.816  1.00  0.00    -0.364 OA
ATOM     23  H1  UNL     1      36.978  60.038  10.051  1.00  0.00     0.213 HD
ENDBRANCH   8  22
BRANCH  20  24
HETATM   24  S1  UNL     1      36.116  61.558   7.866  1.00  0.00     0.273 S 
HETATM   25  O2  UNL     1      35.457  61.294   6.477  1.00  0.00    -0.199 OA
HETATM   26  O3  UNL     1      37.353  60.837   7.976  1.00  0.00    -0.199 OA
BRANCH  24  27
HETATM   27  N7  UNL     1      36.712  63.204   7.550  1.00  0.00    -0.323 N 
ATOM     28  H72 UNL     1      36.175  64.065   7.644  1.00  0.00     0.169 HD
ATOM     29  H71 UNL     1      37.686  63.106   7.260  1.00  0.00     0.169 HD
ENDBRANCH  24  27
ENDBRANCH  20  24
ENDBRANCH   3   8
TORSDOF 5
ENDMDL
MODEL 2
REMARK VINA RESULT: -5.676787278      1.756      2.723
REMARK  5 active torsions:
REMARK  status: ('A' for Active; 'I' for Inactive)
REMARK    1  A    between atoms: C2_3  and  N2_4 
REMARK    2  A    between atoms: C2_3  and  C3_8 
REMARK    3  A    between atoms: C3_8  and  O1_9 
REMARK    4  A    between atoms: C7_22  and  S1_23 
REMARK    5  A    between atoms: S1_23  and  N7_24 
ROOT
HETATM    1  N1  UNL     1      33.683  57.311   7.391  1.00  0.00    -0.195 NA
HETATM    2  C1  UNL     1      34.557  58.035   7.154  1.00  0.00     0.098 C 
HETATM    3  C2  UNL     1      35.667  58.983   6.795  1.00  0.00     0.349 C 
ENDROOT
BRANCH   3   4
HETATM    4  N2  UNL     1      35.126  59.717   5.611  1.00  0.00    -0.057 N 
ATOM      5  H23 UNL     1      35.270  59.245   4.718  1.00  0.00     0.276 HD
ATOM      6  H22 UNL     1      34.108  59.739   5.555  1.00  0.00     0.276 HD
ATOM      7  H21 UNL     1      35.566  60.635   5.681  1.00  0.00     0.276 HD
ENDBRANCH   3   4
BRANCH   3   8
HETATM    8  C3  UNL     1      36.113  59.862   7.897  1.00  0.00     0.209 C 
HETATM    9  N3  UNL     1      37.033  58.907   8.671  1.00  0.00    -0.348 N 
HETATM   10  C4  UNL     1      36.375  57.781   9.178  1.00  0.00     0.180 C 
ATOM     11  H3  UNL     1      38.030  59.078   8.803  1.00  0.00     0.163 HD
HETATM   12  N4  UNL     1      35.317  58.208  10.043  1.00  0.00    -0.338 N 
HETATM   13  C5  UNL     1      34.796  59.539   9.951  1.00  0.00     0.121 A 
ATOM     14  H4  UNL     1      34.931  57.560  10.729  1.00  0.00     0.168 HD
HETATM   15  N5  UNL     1      33.938  59.953  10.909  1.00  0.00    -0.338 N 
HETATM   16  C8  UNL     1      35.248  60.379   8.900  1.00  0.00     0.084 A 
HETATM   17  C6  UNL     1      33.480  61.203  10.891  1.00  0.00     0.183 A 
ATOM     18  H5  UNL     1      33.641  59.310  11.642  1.00  0.00     0.168 HD
HETATM   19  N6  UNL     1      33.880  61.997   9.941  1.00  0.00    -0.341 N 
HETATM   20  C7  UNL     1      34.765  61.652   8.913  1.00  0.00     0.164 A 
ATOM     21  H6  UNL     1      33.519  62.951   9.946  1.00  0.00     0.167 HD
BRANCH   8  22
HETATM   22  O1  UNL     1      37.203  60.661   7.471  1.00  0.00    -0.364 OA
ATOM     23  H1  UNL     1      37.661  61.017   8.224  1.00  0.00     0.213 HD
ENDBRANCH   8  22
BRANCH  20  24
HETATM   24  S1  UNL     1      35.172  62.902   7.853  1.00  0.00     0.273 S 
HETATM   25  O2  UNL     1      34.680  64.279   8.396  1.00  0.00    -0.199 OA
HETATM   26  O3  UNL     1      35.057  62.861   6.422  1.00  0.00    -0.199 OA
BRANCH  24  27
HETATM   27  N7  UNL     1      36.920  63.172   8.042  1.00  0.00    -0.323 N 
ATOM     28  H72 UNL     1      37.660  62.521   7.777  1.00  0.00     0.169 HD
ATOM     29  H71 UNL     1      37.025  64.095   8.463  1.00  0.00     0.169 HD
ENDBRANCH  24  27
ENDBRANCH  20  24
ENDBRANCH   3   8
TORSDOF 5
ENDMDL
MODEL 3
REMARK VINA RESULT: -5.659471224      8.674     10.708
REMARK  5 active torsions:
REMARK  status: ('A' for Active; 'I' for Inactive)
REMARK    1  A    between atoms: C2_3  and  N2_4 
REMARK    2  A    between atoms: C2_3  and  C3_8 
REMARK    3  A    between atoms: C3_8  and  O1_9 
REMARK    4  A    between atoms: C7_22  and  S1_23 
REMARK    5  A    between atoms: S1_23  and  N7_24 
ROOT
HETATM    1  N1  UNL     1      32.632  65.230   4.100  1.00  0.00    -0.195 NA
HETATM    2  C1  UNL     1      33.394  64.981   3.261  1.00  0.00     0.098 C 
HETATM    3  C2  UNL     1      34.406  64.623   2.211  1.00  0.00     0.349 C 
ENDROOT
BRANCH   3   4
HETATM    4  N2  UNL     1      35.020  63.365   2.735  1.00  0.00    -0.057 N 
ATOM      5  H23 UNL     1      34.603  63.019   3.599  1.00  0.00     0.276 HD
ATOM      6  H22 UNL     1      34.818  62.532   2.180  1.00  0.00     0.276 HD
ATOM      7  H21 UNL     1      36.011  63.596   2.806  1.00  0.00     0.276 HD
ENDBRANCH   3   4
BRANCH   3   8
HETATM    8  C3  UNL     1      33.864  64.503   0.840  1.00  0.00     0.209 C 
HETATM    9  N3  UNL     1      34.937  65.258   0.041  1.00  0.00    -0.348 N 
HETATM   10  C4  UNL     1      35.064  66.604   0.403  1.00  0.00     0.180 C 
ATOM     11  H3  UNL     1      35.503  64.819  -0.685  1.00  0.00     0.163 HD
HETATM   12  N4  UNL     1      33.803  67.258   0.219  1.00  0.00    -0.338 N 
HETATM   13  C5  UNL     1      32.592  66.495   0.154  1.00  0.00     0.121 A 
ATOM     14  H4  UNL     1      33.767  68.273   0.135  1.00  0.00     0.168 HD
HETATM   15  N5  UNL     1      31.459  67.134  -0.208  1.00  0.00    -0.338 N 
HETATM   16  C8  UNL     1      32.647  65.102   0.413  1.00  0.00     0.084 A 
HETATM   17  C6  UNL     1      30.325  66.448  -0.339  1.00  0.00     0.183 A 
ATOM     18  H5  UNL     1      31.471  68.139  -0.382  1.00  0.00     0.168 HD
HETATM   19  N6  UNL     1      30.347  65.167  -0.112  1.00  0.00    -0.341 N 
HETATM   20  C7  UNL     1      31.473  64.427   0.266  1.00  0.00     0.164 A 
ATOM     21  H6  UNL     1      29.469  64.659  -0.219  1.00  0.00     0.167 HD
BRANCH   8  22
HETATM   22  O1  UNL     1      34.237  63.258   0.276  1.00  0.00    -0.364 OA
ATOM     23  H1  UNL     1      34.396  63.356  -0.655  1.00  0.00     0.213 HD
ENDBRANCH   8  22
BRANCH  20  24
HETATM   24  S1  UNL     1      31.232  62.763   0.424  1.00  0.00     0.273 S 
HETATM   25  O2  UNL     1      31.146  62.351   1.926  1.00  0.00    -0.199 OA
HETATM   26  O3  UNL     1      31.898  61.742  -0.336  1.00  0.00    -0.199 OA
BRANCH  24  27
HETATM   27  N7  UNL     1      29.536  62.457  -0.015  1.00  0.00    -0.323 N 
ATOM     28  H72 UNL     1      29.198  61.708  -0.620  1.00  0.00     0.169 HD
ATOM     29  H71 UNL     1      28.983  63.174   0.455  1.00  0.00     0.169 HD
ENDBRANCH  24  27
ENDBRANCH  20  24
ENDBRANCH   3   8
TORSDOF 5
ENDMDL
MODEL 4
REMARK VINA RESULT: -5.635384060      7.335      8.907
REMARK  5 active torsions:
REMARK  status: ('A' for Active; 'I' for Inactive)
REMARK    1  A    between atoms: C2_3  and  N2_4 
REMARK    2  A    between atoms: C2_3  and  C3_8 
REMARK    3  A    between atoms: C3_8  and  O1_9 
REMARK    4  A    between atoms: C7_22  and  S1_23 
REMARK    5  A    between atoms: S1_23  and  N7_24 
ROOT
HETATM    1  N1  UNL     1      30.689  64.401   1.142  1.00  0.00    -0.195 NA
HETATM    2  C1  UNL     1      31.713  63.857   1.147  1.00  0.00     0.098 C 
HETATM    3  C2  UNL     1      33.026  63.129   1.102  1.00  0.00     0.349 C 
ENDROOT
BRANCH   3   4
HETATM    4  N2  UNL     1      33.169  62.758  -0.339  1.00  0.00    -0.057 N 
ATOM      5  H23 UNL     1      33.709  61.910  -0.506  1.00  0.00     0.276 HD
ATOM      6  H22 UNL     1      32.310  62.424  -0.777  1.00  0.00     0.276 HD
ATOM      7  H21 UNL     1      33.560  63.600  -0.762  1.00  0.00     0.276 HD
ENDBRANCH   3   4
BRANCH   3   8
HETATM    8  C3  UNL     1      34.175  63.886   1.645  1.00  0.00     0.209 C 
HETATM    9  N3  UNL     1      35.081  62.737   2.110  1.00  0.00    -0.348 N 
HETATM   10  C4  UNL     1      34.507  61.935   3.104  1.00  0.00     0.180 C 
ATOM     11  H3  UNL     1      36.014  62.573   1.731  1.00  0.00     0.163 HD
HETATM   12  N4  UNL     1      34.180  62.753   4.233  1.00  0.00    -0.338 N 
HETATM   13  C5  UNL     1      34.043  64.172   4.086  1.00  0.00     0.121 A 
ATOM     14  H4  UNL     1      34.043  62.323   5.147  1.00  0.00     0.168 HD
HETATM   15  N5  UNL     1      33.924  64.917   5.207  1.00  0.00    -0.338 N 
HETATM   16  C8  UNL     1      34.100  64.733   2.785  1.00  0.00     0.084 A 
HETATM   17  C6  UNL     1      33.855  66.243   5.115  1.00  0.00     0.183 A 
ATOM     18  H5  UNL     1      33.886  64.464   6.120  1.00  0.00     0.168 HD
HETATM   19  N6  UNL     1      33.908  66.786   3.934  1.00  0.00    -0.341 N 
HETATM   20  C7  UNL     1      34.032  66.092   2.725  1.00  0.00     0.164 A 
ATOM     21  H6  UNL     1      33.856  67.804   3.885  1.00  0.00     0.167 HD
BRANCH   8  22
HETATM   22  O1  UNL     1      35.063  64.241   0.600  1.00  0.00    -0.364 OA
ATOM     23  H1  UNL     1      34.585  64.658  -0.107  1.00  0.00     0.213 HD
ENDBRANCH   8  22
BRANCH  20  24
HETATM   24  S1  UNL     1      34.151  67.054   1.342  1.00  0.00     0.273 S 
HETATM   25  O2  UNL     1      32.810  67.057   0.546  1.00  0.00    -0.199 OA
HETATM   26  O3  UNL     1      35.268  67.091   0.438  1.00  0.00    -0.199 OA
BRANCH  24  27
HETATM   27  N7  UNL     1      34.114  68.743   1.899  1.00  0.00    -0.323 N 
ATOM     28  H72 UNL     1      34.560  69.107   2.741  1.00  0.00     0.169 HD
ATOM     29  H71 UNL     1      33.563  69.260   1.214  1.00  0.00     0.169 HD
ENDBRANCH  24  27
ENDBRANCH  20  24
ENDBRANCH   3   8
TORSDOF 5
ENDMDL
MODEL 5
REMARK VINA RESULT: -5.596259504      1.395      1.687
REMARK  5 active torsions:
REMARK  status: ('A' for Active; 'I' for Inactive)
REMARK    1  A    between atoms: C2_3  and  N2_4 
REMARK    2  A    between atoms: C2_3  and  C3_8 
REMARK    3  A    between atoms: C3_8  and  O1_9 
REMARK    4  A    between atoms: C7_22  and  S1_23 
REMARK    5  A    between atoms: S1_23  and  N7_24 
ROOT
HETATM    1  N1  UNL     1      35.956  57.974   5.660  1.00  0.00    -0.195 NA
HETATM    2  C1  UNL     1      35.437  58.285   6.650  1.00  0.00     0.098 C 
HETATM    3  C2  UNL     1      34.751  58.633   7.941  1.00  0.00     0.349 C 
ENDROOT
BRANCH   3   4
HETATM    4  N2  UNL     1      34.644  57.318   8.642  1.00  0.00    -0.057 N 
ATOM      5  H23 UNL     1      34.852  56.508   8.057  1.00  0.00     0.276 HD
ATOM      6  H22 UNL     1      35.378  57.143   9.329  1.00  0.00     0.276 HD
ATOM      7  H21 UNL     1      33.699  57.331   9.026  1.00  0.00     0.276 HD
ENDBRANCH   3   4
BRANCH   3   8
HETATM    8  C3  UNL     1      35.420  59.686   8.735  1.00  0.00     0.209 C 
HETATM    9  N3  UNL     1      36.081  58.841   9.833  1.00  0.00    -0.348 N 
HETATM   10  C4  UNL     1      35.168  58.134  10.625  1.00  0.00     0.180 C 
ATOM     11  H3  UNL     1      37.090  58.798   9.973  1.00  0.00     0.163 HD
HETATM   12  N4  UNL     1      34.263  59.061  11.235  1.00  0.00    -0.338 N 
HETATM   13  C5  UNL     1      34.092  60.375  10.690  1.00  0.00     0.121 A 
ATOM     14  H4  UNL     1      33.736  58.784  12.063  1.00  0.00     0.168 HD
HETATM   15  N5  UNL     1      33.378  61.271  11.405  1.00  0.00    -0.338 N 
HETATM   16  C8  UNL     1      34.726  60.693   9.461  1.00  0.00     0.084 A 
HETATM   17  C6  UNL     1      33.249  62.520  10.961  1.00  0.00     0.183 A 
ATOM     18  H5  UNL     1      32.940  60.992  12.283  1.00  0.00     0.168 HD
HETATM   19  N6  UNL     1      33.823  62.841   9.839  1.00  0.00    -0.341 N 
HETATM   20  C7  UNL     1      34.578  61.979   9.036  1.00  0.00     0.164 A 
ATOM     21  H6  UNL     1      33.713  63.802   9.516  1.00  0.00     0.167 HD
BRANCH   8  22
HETATM   22  O1  UNL     1      36.670  60.015   8.154  1.00  0.00    -0.364 OA
ATOM     23  H1  UNL     1      36.666  60.919   7.862  1.00  0.00     0.213 HD
ENDBRANCH   8  22
BRANCH  20  24
HETATM   24  S1  UNL     1      35.272  62.680   7.665  1.00  0.00     0.273 S 
HETATM   25  O2  UNL     1      34.961  64.207   7.601  1.00  0.00    -0.199 OA
HETATM   26  O3  UNL     1      35.278  62.115   6.345  1.00  0.00    -0.199 OA
BRANCH  24  27
HETATM   27  N7  UNL     1      37.018  62.796   7.989  1.00  0.00    -0.323 N 
ATOM     28  H72 UNL     1      37.585  62.102   8.477  1.00  0.00     0.169 HD
ATOM     29  H71 UNL     1      37.325  63.684   7.593  1.00  0.00     0.169 HD
ENDBRANCH  24  27
ENDBRANCH  20  24
ENDBRANCH   3   8
TORSDOF 5
ENDMDL
