MODEL 1
REMARK VINA RESULT: -5.891103802      0.000      0.000
REMARK  6 active torsions:
REMARK  status: ('A' for Active; 'I' for Inactive)
REMARK    1  A    between atoms: N1_1  and  C1_5 
REMARK    2  A    between atoms: C2_8  and  N3_9 
REMARK    3  A    between atoms: N3_9  and  N4_11 
REMARK    4  A    between atoms: C8_22  and  C9_23 
REMARK    5  A    between atoms: C9_23  and  O4_24 
REMARK    6  A    between atoms: C9_23  and  O5_26 
ROOT
HETATM    1  C1  UNL     1      34.484  63.725  -0.339  1.00  0.00     0.388 C 
HETATM    2  N2  UNL     1      33.209  63.451   0.231  1.00  0.00    -0.333 N 
ATOM      3  H2  UNL     1      32.580  62.887  -0.340  1.00  0.00     0.164 HD
HETATM    4  C2  UNL     1      32.753  63.820   1.361  1.00  0.00     0.135 C 
HETATM    5  C3  UNL     1      33.592  64.639   2.258  1.00  0.00     0.135 C 
HETATM    6  C4  UNL     1      34.447  63.710   3.092  1.00  0.00     0.055 C 
HETATM    7  C5  UNL     1      34.537  64.295   4.462  1.00  0.00     0.106 C 
HETATM    8  C6  UNL     1      33.493  65.339   4.475  1.00  0.00     0.218 C 
HETATM    9  O3  UNL     1      33.278  66.078   5.484  1.00  0.00    -0.274 OA
HETATM   10  N5  UNL     1      32.817  65.363   3.230  1.00  0.00    -0.339 N 
ATOM     11  H5  UNL     1      31.923  65.822   3.052  1.00  0.00     0.164 HD
HETATM   12  C7  UNL     1      34.418  65.538   1.413  1.00  0.00     0.045 C 
HETATM   13  C8  UNL     1      34.597  66.793   1.700  1.00  0.00     0.060 C 
HETATM   14  N6  UNL     1      35.012  64.963   0.260  1.00  0.00    -0.348 N 
ATOM     15  H6  UNL     1      35.821  65.417  -0.163  1.00  0.00     0.163 HD
ENDROOT
BRANCH   4  16
HETATM   16  N3  UNL     1      31.456  63.470   1.798  1.00  0.00    -0.227 N 
ATOM     17  H3  UNL     1      31.251  63.429   2.796  1.00  0.00     0.194 HD
BRANCH  16  18
HETATM   18  N4  UNL     1      30.464  63.182   0.881  1.00  0.00    -0.037 N 
HETATM   19  O1  UNL     1      30.315  61.988   0.540  1.00  0.00    -0.516 OA
HETATM   20  O2  UNL     1      29.630  64.121   0.319  1.00  0.00    -0.516 OA
ENDBRANCH  16  18
ENDBRANCH   4  16
BRANCH  13  21
HETATM   21  C9  UNL     1      35.399  67.751   0.918  1.00  0.00     0.280 C 
BRANCH  21  22
HETATM   22  O4  UNL     1      36.760  67.505   1.092  1.00  0.00    -0.368 OA
ATOM     23  H4  UNL     1      37.014  66.707   0.643  1.00  0.00     0.213 HD
ENDBRANCH  21  22
BRANCH  21  24
HETATM   24  O5  UNL     1      35.201  69.075   1.321  1.00  0.00    -0.368 OA
ATOM     25  H5  UNL     1      35.360  69.202   2.250  1.00  0.00     0.213 HD
ENDBRANCH  21  24
ENDBRANCH  13  21
BRANCH   1  26
HETATM   26  N1  UNL     1      35.456  62.683  -0.211  1.00  0.00    -0.041 N 
ATOM     27  H13 UNL     1      34.995  61.773  -0.232  1.00  0.00     0.279 HD
ATOM     28  H12 UNL     1      36.016  62.623  -1.062  1.00  0.00     0.279 HD
ATOM     29  H11 UNL     1      36.065  62.746   0.604  1.00  0.00     0.279 HD
ENDBRANCH   1  26
TORSDOF 6
ENDMDL
MODEL 2
REMARK VINA RESULT: -5.670608720      7.807      9.179
REMARK  6 active torsions:
REMARK  status: ('A' for Active; 'I' for Inactive)
REMARK    1  A    between atoms: N1_1  and  C1_5 
REMARK    2  A    between atoms: C2_8  and  N3_9 
REMARK    3  A    between atoms: N3_9  and  N4_11 
REMARK    4  A    between atoms: C8_22  and  C9_23 
REMARK    5  A    between atoms: C9_23  and  O4_24 
REMARK    6  A    between atoms: C9_23  and  O5_26 
ROOT
HETATM    1  C1  UNL     1      36.718  60.777   7.494  1.00  0.00     0.388 C 
HETATM    2  N2  UNL     1      35.953  59.579   7.413  1.00  0.00    -0.333 N 
ATOM      3  H2  UNL     1      36.125  58.997   6.593  1.00  0.00     0.164 HD
HETATM    4  C2  UNL     1      35.082  59.141   8.231  1.00  0.00     0.135 C 
HETATM    5  C3  UNL     1      34.765  59.915   9.448  1.00  0.00     0.135 C 
HETATM    6  C4  UNL     1      35.742  59.519  10.533  1.00  0.00     0.055 C 
HETATM    7  C5  UNL     1      34.991  59.489  11.822  1.00  0.00     0.106 C 
HETATM    8  C6  UNL     1      33.575  59.543  11.412  1.00  0.00     0.218 C 
HETATM    9  O3  UNL     1      32.621  59.556  12.250  1.00  0.00    -0.274 OA
HETATM   10  N5  UNL     1      33.480  59.577   9.999  1.00  0.00    -0.339 N 
ATOM     11  H5  UNL     1      32.635  59.391   9.458  1.00  0.00     0.164 HD
HETATM   12  C7  UNL     1      34.872  61.357   9.110  1.00  0.00     0.045 C 
HETATM   13  C8  UNL     1      33.995  62.230   9.507  1.00  0.00     0.060 C 
HETATM   14  N6  UNL     1      35.985  61.748   8.324  1.00  0.00    -0.348 N 
ATOM     15  H6  UNL     1      36.285  62.723   8.334  1.00  0.00     0.163 HD
ENDROOT
BRANCH   4  16
HETATM   16  N3  UNL     1      34.396  57.925   8.018  1.00  0.00    -0.227 N 
ATOM     17  H3  UNL     1      33.461  57.795   8.406  1.00  0.00     0.194 HD
BRANCH  16  18
HETATM   18  N4  UNL     1      34.983  56.910   7.288  1.00  0.00    -0.037 N 
HETATM   19  O1  UNL     1      35.064  57.056   6.049  1.00  0.00    -0.516 OA
HETATM   20  O2  UNL     1      35.482  55.750   7.834  1.00  0.00    -0.516 OA
ENDBRANCH  16  18
ENDBRANCH   4  16
BRANCH  13  21
HETATM   21  C9  UNL     1      34.026  63.676   9.217  1.00  0.00     0.280 C 
BRANCH  21  22
HETATM   22  O4  UNL     1      34.696  63.920   8.020  1.00  0.00    -0.368 OA
ATOM     23  H4  UNL     1      34.362  63.358   7.330  1.00  0.00     0.213 HD
ENDBRANCH  21  22
BRANCH  21  24
HETATM   24  O5  UNL     1      34.714  64.406  10.191  1.00  0.00    -0.368 OA
ATOM     25  H5  UNL     1      34.203  64.534  10.981  1.00  0.00     0.213 HD
ENDBRANCH  21  24
ENDBRANCH  13  21
BRANCH   1  26
HETATM   26  N1  UNL     1      38.049  60.628   7.996  1.00  0.00    -0.041 N 
ATOM     27  H13 UNL     1      38.126  61.068   8.913  1.00  0.00     0.279 HD
ATOM     28  H12 UNL     1      38.220  59.654   8.248  1.00  0.00     0.279 HD
ATOM     29  H11 UNL     1      38.791  60.965   7.385  1.00  0.00     0.279 HD
ENDBRANCH   1  26
TORSDOF 6
ENDMDL
MODEL 3
REMARK VINA RESULT: -5.624772752      2.410      4.305
REMARK  6 active torsions:
REMARK  status: ('A' for Active; 'I' for Inactive)
REMARK    1  A    between atoms: N1_1  and  C1_5 
REMARK    2  A    between atoms: C2_8  and  N3_9 
REMARK    3  A    between atoms: N3_9  and  N4_11 
REMARK    4  A    between atoms: C8_22  and  C9_23 
REMARK    5  A    between atoms: C9_23  and  O4_24 
REMARK    6  A    between atoms: C9_23  and  O5_26 
ROOT
HETATM    1  C1  UNL     1      34.462  67.043   1.026  1.00  0.00     0.388 C 
HETATM    2  N2  UNL     1      33.192  67.233   0.412  1.00  0.00    -0.333 N 
ATOM      3  H2  UNL     1      33.029  68.154   0.005  1.00  0.00     0.164 HD
HETATM    4  C2  UNL     1      32.235  66.401   0.304  1.00  0.00     0.135 C 
HETATM    5  C3  UNL     1      32.379  65.042   0.861  1.00  0.00     0.135 C 
HETATM    6  C4  UNL     1      33.038  64.165  -0.182  1.00  0.00     0.055 C 
HETATM    7  C5  UNL     1      32.400  62.819  -0.102  1.00  0.00     0.106 C 
HETATM    8  C6  UNL     1      31.201  63.039   0.730  1.00  0.00     0.218 C 
HETATM    9  O3  UNL     1      30.403  62.102   1.040  1.00  0.00    -0.274 OA
HETATM   10  N5  UNL     1      31.111  64.404   1.099  1.00  0.00    -0.339 N 
ATOM     11  H5  UNL     1      30.280  64.862   1.473  1.00  0.00     0.164 HD
HETATM   12  C7  UNL     1      33.200  65.140   2.095  1.00  0.00     0.045 C 
HETATM   13  C8  UNL     1      32.898  64.498   3.184  1.00  0.00     0.060 C 
HETATM   14  N6  UNL     1      34.343  65.978   2.036  1.00  0.00    -0.348 N 
ATOM     15  H6  UNL     1      35.098  65.840   2.708  1.00  0.00     0.163 HD
ENDROOT
BRANCH   4  16
HETATM   16  N3  UNL     1      31.021  66.732  -0.338  1.00  0.00    -0.227 N 
ATOM     17  H3  UNL     1      30.765  66.268  -1.210  1.00  0.00     0.194 HD
BRANCH  16  18
HETATM   18  N4  UNL     1      30.177  67.679   0.208  1.00  0.00    -0.037 N 
HETATM   19  O1  UNL     1      30.561  68.869   0.208  1.00  0.00    -0.516 OA
HETATM   20  O2  UNL     1      28.945  67.400   0.752  1.00  0.00    -0.516 OA
ENDBRANCH  16  18
ENDBRANCH   4  16
BRANCH  13  21
HETATM   21  C9  UNL     1      33.656  64.540   4.448  1.00  0.00     0.280 C 
BRANCH  21  22
HETATM   22  O4  UNL     1      33.646  65.828   4.981  1.00  0.00    -0.368 OA
ATOM     23  H4  UNL     1      34.531  66.164   5.057  1.00  0.00     0.213 HD
ENDBRANCH  21  22
BRANCH  21  24
HETATM   24  O5  UNL     1      35.005  64.213   4.279  1.00  0.00    -0.368 OA
ATOM     25  H5  UNL     1      35.541  64.481   5.016  1.00  0.00     0.213 HD
ENDBRANCH  21  24
ENDBRANCH  13  21
BRANCH   1  26
HETATM   26  N1  UNL     1      35.540  66.738   0.137  1.00  0.00    -0.041 N 
ATOM     27  H13 UNL     1      35.788  65.752   0.216  1.00  0.00     0.279 HD
ATOM     28  H12 UNL     1      35.214  66.766  -0.829  1.00  0.00     0.279 HD
ATOM     29  H11 UNL     1      36.374  67.316   0.240  1.00  0.00     0.279 HD
ENDBRANCH   1  26
TORSDOF 6
ENDMDL
MODEL 4
REMARK VINA RESULT: -5.600044225      7.533      9.295
REMARK  6 active torsions:
REMARK  status: ('A' for Active; 'I' for Inactive)
REMARK    1  A    between atoms: N1_1  and  C1_5 
REMARK    2  A    between atoms: C2_8  and  N3_9 
REMARK    3  A    between atoms: N3_9  and  N4_11 
REMARK    4  A    between atoms: C8_22  and  C9_23 
REMARK    5  A    between atoms: C9_23  and  O4_24 
REMARK    6  A    between atoms: C9_23  and  O5_26 
ROOT
HETATM    1  C1  UNL     1      35.845  62.667   7.643  1.00  0.00     0.388 C 
HETATM    2  N2  UNL     1      35.554  61.630   6.714  1.00  0.00    -0.333 N 
ATOM      3  H2  UNL     1      35.501  61.912   5.735  1.00  0.00     0.164 HD
HETATM    4  C2  UNL     1      35.350  60.395   6.946  1.00  0.00     0.135 C 
HETATM    5  C3  UNL     1      35.406  59.891   8.332  1.00  0.00     0.135 C 
HETATM    6  C4  UNL     1      36.843  59.544   8.656  1.00  0.00     0.055 C 
HETATM    7  C5  UNL     1      36.827  58.309   9.494  1.00  0.00     0.106 C 
HETATM    8  C6  UNL     1      35.448  57.803   9.360  1.00  0.00     0.218 C 
HETATM    9  O3  UNL     1      35.042  56.759   9.956  1.00  0.00    -0.274 OA
HETATM   10  N5  UNL     1      34.704  58.645   8.496  1.00  0.00    -0.339 N 
ATOM     11  H5  UNL     1      33.813  58.407   8.060  1.00  0.00     0.164 HD
HETATM   12  C7  UNL     1      34.882  60.955   9.224  1.00  0.00     0.045 C 
HETATM   13  C8  UNL     1      34.063  60.702  10.201  1.00  0.00     0.060 C 
HETATM   14  N6  UNL     1      35.316  62.279   8.962  1.00  0.00    -0.348 N 
ATOM     15  H6  UNL     1      35.260  62.979   9.703  1.00  0.00     0.163 HD
ENDROOT
BRANCH   4  16
HETATM   16  N3  UNL     1      35.069  59.473   5.913  1.00  0.00    -0.227 N 
ATOM     17  H3  UNL     1      34.318  59.667   5.250  1.00  0.00     0.194 HD
BRANCH  16  18
HETATM   18  N4  UNL     1      35.804  58.309   5.795  1.00  0.00    -0.037 N 
HETATM   19  O1  UNL     1      36.983  58.405   5.392  1.00  0.00    -0.516 OA
HETATM   20  O2  UNL     1      35.324  57.054   6.091  1.00  0.00    -0.516 OA
ENDBRANCH  16  18
ENDBRANCH   4  16
BRANCH  13  21
HETATM   21  C9  UNL     1      33.497  61.696  11.132  1.00  0.00     0.280 C 
BRANCH  21  22
HETATM   22  O4  UNL     1      32.390  61.169  11.795  1.00  0.00    -0.368 OA
ATOM     23  H4  UNL     1      32.658  60.487  12.400  1.00  0.00     0.213 HD
ENDBRANCH  21  22
BRANCH  21  24
HETATM   24  O5  UNL     1      33.034  62.842  10.479  1.00  0.00    -0.368 OA
ATOM     25  H5  UNL     1      33.402  63.642  10.838  1.00  0.00     0.213 HD
ENDBRANCH  21  24
ENDBRANCH  13  21
BRANCH   1  26
HETATM   26  N1  UNL     1      37.227  63.015   7.768  1.00  0.00    -0.041 N 
ATOM     27  H13 UNL     1      37.387  63.948   7.387  1.00  0.00     0.279 HD
ATOM     28  H12 UNL     1      37.458  63.178   8.749  1.00  0.00     0.279 HD
ATOM     29  H11 UNL     1      37.887  62.354   7.360  1.00  0.00     0.279 HD
ENDBRANCH   1  26
TORSDOF 6
ENDMDL
MODEL 5
REMARK VINA RESULT: -5.598765431      6.678      8.449
REMARK  6 active torsions:
REMARK  status: ('A' for Active; 'I' for Inactive)
REMARK    1  A    between atoms: N1_1  and  C1_5 
REMARK    2  A    between atoms: C2_8  and  N3_9 
REMARK    3  A    between atoms: N3_9  and  N4_11 
REMARK    4  A    between atoms: C8_22  and  C9_23 
REMARK    5  A    between atoms: C9_23  and  O4_24 
REMARK    6  A    between atoms: C9_23  and  O5_26 
ROOT
HETATM    1  C1  UNL     1      35.301  63.904   7.208  1.00  0.00     0.388 C 
HETATM    2  N2  UNL     1      34.619  63.296   8.299  1.00  0.00    -0.333 N 
ATOM      3  H2  UNL     1      33.916  63.874   8.760  1.00  0.00     0.164 HD
HETATM    4  C2  UNL     1      34.771  62.125   8.773  1.00  0.00     0.135 C 
HETATM    5  C3  UNL     1      35.765  61.214   8.171  1.00  0.00     0.135 C 
HETATM    6  C4  UNL     1      35.107  60.483   7.020  1.00  0.00     0.055 C 
HETATM    7  C5  UNL     1      35.623  59.083   7.027  1.00  0.00     0.106 C 
HETATM    8  C6  UNL     1      36.289  58.953   8.337  1.00  0.00     0.218 C 
HETATM    9  O3  UNL     1      36.875  57.888   8.704  1.00  0.00    -0.274 OA
HETATM   10  N5  UNL     1      36.165  60.162   9.067  1.00  0.00    -0.339 N 
ATOM     11  H5  UNL     1      36.332  60.269  10.068  1.00  0.00     0.164 HD
HETATM   12  C7  UNL     1      36.916  62.034   7.715  1.00  0.00     0.045 C 
HETATM   13  C8  UNL     1      38.148  61.672   7.912  1.00  0.00     0.060 C 
HETATM   14  N6  UNL     1      36.611  63.248   7.048  1.00  0.00    -0.348 N 
ATOM     15  H6  UNL     1      37.314  63.677   6.446  1.00  0.00     0.163 HD
ENDROOT
BRANCH   4  16
HETATM   16  N3  UNL     1      34.015  61.654   9.869  1.00  0.00    -0.227 N 
ATOM     17  H3  UNL     1      33.930  60.650  10.033  1.00  0.00     0.194 HD
BRANCH  16  18
HETATM   18  N4  UNL     1      33.392  62.543  10.722  1.00  0.00    -0.037 N 
HETATM   19  O1  UNL     1      32.614  62.077  11.583  1.00  0.00    -0.516 OA
HETATM   20  O2  UNL     1      33.569  63.907  10.687  1.00  0.00    -0.516 OA
ENDBRANCH  16  18
ENDBRANCH   4  16
BRANCH  13  21
HETATM   21  C9  UNL     1      39.346  62.424   7.494  1.00  0.00     0.280 C 
BRANCH  21  22
HETATM   22  O4  UNL     1      38.996  63.708   7.078  1.00  0.00    -0.368 OA
ATOM     23  H4  UNL     1      38.632  64.205   7.801  1.00  0.00     0.213 HD
ENDBRANCH  21  22
BRANCH  21  24
HETATM   24  O5  UNL     1      39.996  61.839   6.403  1.00  0.00    -0.368 OA
ATOM     25  H5  UNL     1      40.930  62.018   6.395  1.00  0.00     0.213 HD
ENDBRANCH  21  24
ENDBRANCH  13  21
BRANCH   1  26
HETATM   26  N1  UNL     1      34.607  63.890   5.958  1.00  0.00    -0.041 N 
ATOM     27  H13 UNL     1      34.121  64.777   5.819  1.00  0.00     0.279 HD
ATOM     28  H12 UNL     1      35.275  63.926   5.187  1.00  0.00     0.279 HD
ATOM     29  H11 UNL     1      33.959  63.114   5.822  1.00  0.00     0.279 HD
ENDBRANCH   1  26
TORSDOF 6
ENDMDL
