MODEL 1
REMARK VINA RESULT: -8.653507006      0.000      0.000
REMARK  5 active torsions:
REMARK  status: ('A' for Active; 'I' for Inactive)
REMARK    1  A    between atoms: N1_1  and  C1_4 
REMARK    2  A    between atoms: C2_7  and  N3_8 
REMARK    3  A    between atoms: C5_15  and  C6_16 
REMARK       I    between atoms: C6_16  and  N6_18 
REMARK    4  A    between atoms: N6_18  and  N7_20 
REMARK    5  A    between atoms: N7_20  and  C7_22 
ROOT
HETATM    1  C1  UNL     1      33.842  63.481   9.722  1.00  0.00     0.144 A 
HETATM    2  N2  UNL     1      33.238  63.041  10.812  1.00  0.00    -0.320 N 
ATOM      3  H2  UNL     1      32.673  63.672  11.380  1.00  0.00     0.169 HD
HETATM    4  C2  UNL     1      33.373  61.777  11.158  1.00  0.00     0.152 A 
HETATM    5  C5  UNL     1      34.135  60.969  10.375  1.00  0.00     0.123 A 
HETATM    6  S1  UNL     1      34.637  62.104   9.137  1.00  0.00    -0.045 SA
ENDROOT
BRANCH   5   7
HETATM    7  C6  UNL     1      34.513  59.562  10.423  1.00  0.00     0.281 C 
HETATM    8  O1  UNL     1      34.120  58.931  11.479  1.00  0.00    -0.265 OA
HETATM    9  N6  UNL     1      35.222  58.810   9.513  1.00  0.00    -0.251 N 
ATOM     10  H6  UNL     1      35.564  59.242   8.655  1.00  0.00     0.191 HD
BRANCH   9  11
HETATM   11  N7  UNL     1      35.482  57.430   9.764  1.00  0.00    -0.127 N 
ATOM     12  H7  UNL     1      35.951  57.142  10.624  1.00  0.00     0.206 HD
BRANCH  11  13
HETATM   13  C7  UNL     1      35.119  56.550   8.895  1.00  0.00     0.725 A 
HETATM   14  N8  UNL     1      34.728  56.740   7.627  1.00  0.00    -0.112 N 
HETATM   15  N9  UNL     1      34.439  55.573   7.069  1.00  0.00     0.009 NA
ATOM     16  H8  UNL     1      34.662  57.646   7.161  1.00  0.00     0.203 HD
HETATM   17  N10 UNL     1      34.654  54.638   8.006  1.00  0.00    -0.211 N 
HETATM   18  N11 UNL     1      35.064  55.227   9.103  1.00  0.00    -0.117 N 
ATOM     19  H10 UNL     1      34.522  53.634   7.884  1.00  0.00     0.206 HD
ATOM     20  H11 UNL     1      35.304  54.755   9.976  1.00  0.00     0.207 HD
ENDBRANCH  11  13
ENDBRANCH   9  11
ENDBRANCH   5   7
BRANCH   4  21
HETATM   21  N3  UNL     1      32.701  61.289  12.371  1.00  0.00    -0.234 N 
HETATM   22  C3  UNL     1      31.376  61.156  12.539  1.00  0.00     0.138 A 
HETATM   23  C4  UNL     1      31.152  60.636  13.800  1.00  0.00     0.128 A 
HETATM   24  N4  UNL     1      32.381  60.476  14.343  1.00  0.00    -0.296 N 
HETATM   25  N5  UNL     1      33.292  60.873  13.472  1.00  0.00    -0.235 N 
ATOM     26  H4  UNL     1      32.572  60.108  15.275  1.00  0.00     0.187 HD
ATOM     27  H5  UNL     1      34.301  60.859  13.629  1.00  0.00     0.209 HD
ENDBRANCH   4  21
BRANCH   1  28
HETATM   28  N1  UNL     1      33.815  64.705   9.232  1.00  0.00    -0.380 N 
ATOM     29  H12 UNL     1      33.808  65.599   9.722  1.00  0.00     0.158 HD
ATOM     30  H11 UNL     1      33.797  64.977   8.250  1.00  0.00     0.158 HD
ENDBRANCH   1  28
TORSDOF 5
ENDMDL
MODEL 2
REMARK VINA RESULT: -8.291433672      1.596      1.812
REMARK  5 active torsions:
REMARK  status: ('A' for Active; 'I' for Inactive)
REMARK    1  A    between atoms: N1_1  and  C1_4 
REMARK    2  A    between atoms: C2_7  and  N3_8 
REMARK    3  A    between atoms: C5_15  and  C6_16 
REMARK       I    between atoms: C6_16  and  N6_18 
REMARK    4  A    between atoms: N6_18  and  N7_20 
REMARK    5  A    between atoms: N7_20  and  C7_22 
ROOT
HETATM    1  C1  UNL     1      33.996  63.769   9.493  1.00  0.00     0.144 A 
HETATM    2  N2  UNL     1      33.687  62.898  10.439  1.00  0.00    -0.320 N 
ATOM      3  H2  UNL     1      33.154  63.192  11.257  1.00  0.00     0.169 HD
HETATM    4  C2  UNL     1      34.074  61.645  10.312  1.00  0.00     0.152 A 
HETATM    5  C5  UNL     1      34.782  61.295   9.207  1.00  0.00     0.123 A 
HETATM    6  S1  UNL     1      34.859  62.835   8.374  1.00  0.00    -0.045 SA
ENDROOT
BRANCH   5   7
HETATM    7  C6  UNL     1      35.369  60.052   8.722  1.00  0.00     0.281 C 
HETATM    8  O1  UNL     1      36.576  60.161   8.275  1.00  0.00    -0.265 OA
HETATM    9  N6  UNL     1      34.830  58.786   8.670  1.00  0.00    -0.251 N 
ATOM     10  H6  UNL     1      33.880  58.625   9.005  1.00  0.00     0.191 HD
BRANCH   9  11
HETATM   11  N7  UNL     1      35.591  57.698   8.149  1.00  0.00    -0.127 N 
ATOM     12  H7  UNL     1      36.402  57.874   7.556  1.00  0.00     0.206 HD
BRANCH  11  13
HETATM   13  C7  UNL     1      35.245  56.490   8.435  1.00  0.00     0.725 A 
HETATM   14  N8  UNL     1      35.168  55.906   9.640  1.00  0.00    -0.112 N 
HETATM   15  N9  UNL     1      34.768  54.649   9.501  1.00  0.00     0.009 NA
ATOM     16  H8  UNL     1      35.383  56.359  10.528  1.00  0.00     0.203 HD
HETATM   17  N10 UNL     1      34.593  54.446   8.188  1.00  0.00    -0.211 N 
HETATM   18  N11 UNL     1      34.879  55.555   7.547  1.00  0.00    -0.117 N 
ATOM     19  H10 UNL     1      34.288  53.573   7.757  1.00  0.00     0.206 HD
ATOM     20  H11 UNL     1      34.831  55.684   6.536  1.00  0.00     0.207 HD
ENDBRANCH  11  13
ENDBRANCH   9  11
ENDBRANCH   5   7
BRANCH   4  21
HETATM   21  N3  UNL     1      33.730  60.679  11.364  1.00  0.00    -0.234 N 
HETATM   22  C3  UNL     1      32.523  60.527  11.932  1.00  0.00     0.138 A 
HETATM   23  C4  UNL     1      32.605  59.495  12.847  1.00  0.00     0.128 A 
HETATM   24  N4  UNL     1      33.885  59.063  12.784  1.00  0.00    -0.296 N 
HETATM   25  N5  UNL     1      34.541  59.784  11.892  1.00  0.00    -0.235 N 
ATOM     26  H4  UNL     1      34.281  58.302  13.338  1.00  0.00     0.187 HD
ATOM     27  H5  UNL     1      35.525  59.667  11.649  1.00  0.00     0.209 HD
ENDBRANCH   4  21
BRANCH   1  28
HETATM   28  N1  UNL     1      33.691  65.051   9.458  1.00  0.00    -0.380 N 
ATOM     29  H12 UNL     1      33.462  65.685  10.224  1.00  0.00     0.158 HD
ATOM     30  H11 UNL     1      33.630  65.649   8.634  1.00  0.00     0.158 HD
ENDBRANCH   1  28
TORSDOF 5
ENDMDL
MODEL 3
REMARK VINA RESULT: -8.135893226      2.740      6.497
REMARK  5 active torsions:
REMARK  status: ('A' for Active; 'I' for Inactive)
REMARK    1  A    between atoms: N1_1  and  C1_4 
REMARK    2  A    between atoms: C2_7  and  N3_8 
REMARK    3  A    between atoms: C5_15  and  C6_16 
REMARK       I    between atoms: C6_16  and  N6_18 
REMARK    4  A    between atoms: N6_18  and  N7_20 
REMARK    5  A    between atoms: N7_20  and  C7_22 
ROOT
HETATM    1  C1  UNL     1      34.956  57.645   6.910  1.00  0.00     0.144 A 
HETATM    2  N2  UNL     1      35.711  58.730   6.867  1.00  0.00    -0.320 N 
ATOM      3  H2  UNL     1      36.291  58.923   6.051  1.00  0.00     0.169 HD
HETATM    4  C2  UNL     1      35.705  59.559   7.891  1.00  0.00     0.152 A 
HETATM    5  C5  UNL     1      34.919  59.264   8.960  1.00  0.00     0.123 A 
HETATM    6  S1  UNL     1      34.201  57.759   8.422  1.00  0.00    -0.045 SA
ENDROOT
BRANCH   5   7
HETATM    7  C6  UNL     1      34.651  59.910  10.238  1.00  0.00     0.281 C 
HETATM    8  O1  UNL     1      34.569  61.198  10.188  1.00  0.00    -0.265 OA
HETATM    9  N6  UNL     1      34.473  59.353  11.485  1.00  0.00    -0.251 N 
ATOM     10  H6  UNL     1      34.525  58.341  11.600  1.00  0.00     0.191 HD
BRANCH   9  11
HETATM   11  N7  UNL     1      34.218  60.183  12.617  1.00  0.00    -0.127 N 
ATOM     12  H7  UNL     1      34.977  60.445  13.246  1.00  0.00     0.206 HD
BRANCH  11  13
HETATM   13  C7  UNL     1      33.018  60.600  12.837  1.00  0.00     0.725 A 
HETATM   14  N8  UNL     1      32.139  61.114  11.965  1.00  0.00    -0.112 N 
HETATM   15  N9  UNL     1      31.012  61.418  12.594  1.00  0.00     0.009 NA
ATOM     16  H8  UNL     1      32.311  61.251  10.969  1.00  0.00     0.203 HD
HETATM   17  N10 UNL     1      31.192  61.087  13.881  1.00  0.00    -0.211 N 
HETATM   18  N11 UNL     1      32.398  60.593  14.025  1.00  0.00    -0.117 N 
ATOM     19  H10 UNL     1      30.503  61.199  14.625  1.00  0.00     0.206 HD
ATOM     20  H11 UNL     1      32.801  60.258  14.901  1.00  0.00     0.207 HD
ENDBRANCH  11  13
ENDBRANCH   9  11
ENDBRANCH   5   7
BRANCH   4  21
HETATM   21  N3  UNL     1      36.546  60.764   7.842  1.00  0.00    -0.234 N 
HETATM   22  C3  UNL     1      37.888  60.792   7.855  1.00  0.00     0.138 A 
HETATM   23  C4  UNL     1      38.292  62.110   7.758  1.00  0.00     0.128 A 
HETATM   24  N4  UNL     1      37.149  62.829   7.688  1.00  0.00    -0.296 N 
HETATM   25  N5  UNL     1      36.116  62.006   7.740  1.00  0.00    -0.235 N 
ATOM     26  H4  UNL     1      37.093  63.845   7.609  1.00  0.00     0.187 HD
ATOM     27  H5  UNL     1      35.136  62.288   7.707  1.00  0.00     0.209 HD
ENDBRANCH   4  21
BRANCH   1  28
HETATM   28  N1  UNL     1      34.840  56.715   5.983  1.00  0.00    -0.380 N 
ATOM     29  H12 UNL     1      35.194  56.706   5.026  1.00  0.00     0.158 HD
ATOM     30  H11 UNL     1      34.364  55.818   6.064  1.00  0.00     0.158 HD
ENDBRANCH   1  28
TORSDOF 5
ENDMDL
MODEL 4
REMARK VINA RESULT: -8.087483752      1.885      3.831
REMARK  5 active torsions:
REMARK  status: ('A' for Active; 'I' for Inactive)
REMARK    1  A    between atoms: N1_1  and  C1_4 
REMARK    2  A    between atoms: C2_7  and  N3_8 
REMARK    3  A    between atoms: C5_15  and  C6_16 
REMARK       I    between atoms: C6_16  and  N6_18 
REMARK    4  A    between atoms: N6_18  and  N7_20 
REMARK    5  A    between atoms: N7_20  and  C7_22 
ROOT
HETATM    1  C1  UNL     1      32.825  61.476  12.058  1.00  0.00     0.144 A 
HETATM    2  N2  UNL     1      33.335  62.087  11.002  1.00  0.00    -0.320 N 
ATOM      3  H2  UNL     1      33.213  63.092  10.879  1.00  0.00     0.169 HD
HETATM    4  C2  UNL     1      34.003  61.383  10.111  1.00  0.00     0.152 A 
HETATM    5  C5  UNL     1      34.142  60.047  10.312  1.00  0.00     0.123 A 
HETATM    6  S1  UNL     1      33.277  59.860  11.825  1.00  0.00    -0.045 SA
ENDROOT
BRANCH   5   7
HETATM    7  C6  UNL     1      34.788  58.966   9.578  1.00  0.00     0.281 C 
HETATM    8  O1  UNL     1      34.140  58.554   8.539  1.00  0.00    -0.265 OA
HETATM    9  N6  UNL     1      35.979  58.323   9.828  1.00  0.00    -0.251 N 
ATOM     10  H6  UNL     1      36.544  58.596  10.631  1.00  0.00     0.191 HD
BRANCH   9  11
HETATM   11  N7  UNL     1      36.428  57.276   8.968  1.00  0.00    -0.127 N 
ATOM     12  H7  UNL     1      37.293  57.382   8.436  1.00  0.00     0.206 HD
BRANCH  11  13
HETATM   13  C7  UNL     1      35.731  56.197   8.869  1.00  0.00     0.725 A 
HETATM   14  N8  UNL     1      35.415  55.315   9.828  1.00  0.00    -0.112 N 
HETATM   15  N9  UNL     1      34.680  54.340   9.313  1.00  0.00     0.009 NA
ATOM     16  H8  UNL     1      35.697  55.384  10.806  1.00  0.00     0.203 HD
HETATM   17  N10 UNL     1      34.534  54.618   8.010  1.00  0.00    -0.211 N 
HETATM   18  N11 UNL     1      35.166  55.736   7.744  1.00  0.00    -0.117 N 
ATOM     19  H10 UNL     1      34.017  54.053   7.336  1.00  0.00     0.206 HD
ATOM     20  H11 UNL     1      35.219  56.183   6.828  1.00  0.00     0.207 HD
ENDBRANCH  11  13
ENDBRANCH   9  11
ENDBRANCH   5   7
BRANCH   4  21
HETATM   21  N3  UNL     1      34.568  62.065   8.937  1.00  0.00    -0.234 N 
HETATM   22  C3  UNL     1      34.539  63.386   8.702  1.00  0.00     0.138 A 
HETATM   23  C4  UNL     1      35.207  63.627   7.516  1.00  0.00     0.128 A 
HETATM   24  N4  UNL     1      35.617  62.412   7.085  1.00  0.00    -0.296 N 
HETATM   25  N5  UNL     1      35.225  61.492   7.949  1.00  0.00    -0.235 N 
ATOM     26  H4  UNL     1      36.145  62.236   6.230  1.00  0.00     0.187 HD
ATOM     27  H5  UNL     1      35.404  60.491   7.863  1.00  0.00     0.209 HD
ENDBRANCH   4  21
BRANCH   1  28
HETATM   28  N1  UNL     1      32.135  62.021  13.040  1.00  0.00    -0.380 N 
ATOM     29  H12 UNL     1      31.949  63.005  13.234  1.00  0.00     0.158 HD
ATOM     30  H11 UNL     1      31.653  61.538  13.798  1.00  0.00     0.158 HD
ENDBRANCH   1  28
TORSDOF 5
ENDMDL
MODEL 5
REMARK VINA RESULT: -8.070882462      1.127      1.127
REMARK  5 active torsions:
REMARK  status: ('A' for Active; 'I' for Inactive)
REMARK    1  A    between atoms: N1_1  and  C1_4 
REMARK    2  A    between atoms: C2_7  and  N3_8 
REMARK    3  A    between atoms: C5_15  and  C6_16 
REMARK       I    between atoms: C6_16  and  N6_18 
REMARK    4  A    between atoms: N6_18  and  N7_20 
REMARK    5  A    between atoms: N7_20  and  C7_22 
ROOT
HETATM    1  C1  UNL     1      33.871  63.748   9.622  1.00  0.00     0.144 A 
HETATM    2  N2  UNL     1      33.408  63.002  10.611  1.00  0.00    -0.320 N 
ATOM      3  H2  UNL     1      32.792  63.406  11.316  1.00  0.00     0.169 HD
HETATM    4  C2  UNL     1      33.751  61.732  10.674  1.00  0.00     0.152 A 
HETATM    5  C5  UNL     1      34.573  61.234   9.714  1.00  0.00     0.123 A 
HETATM    6  S1  UNL     1      34.823  62.664   8.733  1.00  0.00    -0.045 SA
ENDROOT
BRANCH   5   7
HETATM    7  C6  UNL     1      35.158  59.925   9.450  1.00  0.00     0.281 C 
HETATM    8  O1  UNL     1      36.103  59.922   8.569  1.00  0.00    -0.265 OA
HETATM    9  N6  UNL     1      34.853  58.699   9.996  1.00  0.00    -0.251 N 
ATOM     10  H6  UNL     1      34.117  58.625  10.698  1.00  0.00     0.191 HD
BRANCH   9  11
HETATM   11  N7  UNL     1      35.561  57.530   9.586  1.00  0.00    -0.127 N 
ATOM     12  H7  UNL     1      36.457  57.294  10.013  1.00  0.00     0.206 HD
BRANCH  11  13
HETATM   13  C7  UNL     1      35.057  56.774   8.671  1.00  0.00     0.725 A 
HETATM   14  N8  UNL     1      34.466  57.134   7.522  1.00  0.00    -0.112 N 
HETATM   15  N9  UNL     1      34.086  56.051   6.859  1.00  0.00     0.009 NA
ATOM     16  H8  UNL     1      34.330  58.094   7.206  1.00  0.00     0.203 HD
HETATM   17  N10 UNL     1      34.446  54.998   7.606  1.00  0.00    -0.211 N 
HETATM   18  N11 UNL     1      35.031  55.434   8.696  1.00  0.00    -0.117 N 
ATOM     19  H10 UNL     1      34.291  54.018   7.367  1.00  0.00     0.206 HD
ATOM     20  H11 UNL     1      35.407  54.849   9.442  1.00  0.00     0.207 HD
ENDBRANCH  11  13
ENDBRANCH   9  11
ENDBRANCH   5   7
BRANCH   4  21
HETATM   21  N3  UNL     1      33.235  60.905  11.775  1.00  0.00    -0.234 N 
HETATM   22  C3  UNL     1      31.948  60.586  11.986  1.00  0.00     0.138 A 
HETATM   23  C4  UNL     1      31.885  59.767  13.098  1.00  0.00     0.128 A 
HETATM   24  N4  UNL     1      33.165  59.628  13.512  1.00  0.00    -0.296 N 
HETATM   25  N5  UNL     1      33.956  60.317  12.708  1.00  0.00    -0.235 N 
ATOM     26  H4  UNL     1      33.471  59.080  14.316  1.00  0.00     0.187 HD
ATOM     27  H5  UNL     1      34.971  60.382  12.795  1.00  0.00     0.209 HD
ENDBRANCH   4  21
BRANCH   1  28
HETATM   28  N1  UNL     1      33.632  65.026   9.406  1.00  0.00    -0.380 N 
ATOM     29  H12 UNL     1      32.777  65.482   9.086  1.00  0.00     0.158 HD
ATOM     30  H11 UNL     1      34.280  65.804   9.525  1.00  0.00     0.158 HD
ENDBRANCH   1  28
TORSDOF 5
ENDMDL
