MODEL 1
REMARK VINA RESULT: -6.699069453      0.000      0.000
REMARK  3 active torsions:
REMARK  status: ('A' for Active; 'I' for Inactive)
REMARK    1  A    between atoms: C5_11  and  C6_12 
REMARK       I    between atoms: N5_14  and  C7_16 
REMARK       I    between atoms: C7_16  and  N7_20 
REMARK    2  A    between atoms: N7_20  and  N8_22 
REMARK    3  A    between atoms: N10_26  and  O3_27 
ROOT
HETATM    1  C1  UNL     1      34.550  59.977  12.912  1.00  0.00     0.059 C 
HETATM    2  C2  UNL     1      33.399  59.583  12.030  1.00  0.00     0.224 C 
HETATM    3  N1  UNL     1      32.202  60.261  12.498  1.00  0.00    -0.392 N 
ATOM      4  H1  UNL     1      31.395  59.748  12.854  1.00  0.00     0.155 HD
HETATM    5  C3  UNL     1      32.222  61.670  12.432  1.00  0.00     0.196 C 
HETATM    6  C4  UNL     1      32.985  62.175  11.273  1.00  0.00     0.139 A 
HETATM    7  N2  UNL     1      33.194  63.435  10.803  1.00  0.00    -0.284 N 
ATOM      8  H2  UNL     1      32.810  64.284  11.218  1.00  0.00     0.188 HD
HETATM    9  N3  UNL     1      33.957  63.399   9.747  1.00  0.00    -0.280 N 
ATOM     10  H3  UNL     1      34.261  64.212   9.211  1.00  0.00     0.189 HD
HETATM   11  C5  UNL     1      34.289  62.089   9.466  1.00  0.00     0.187 A 
HETATM   12  N9  UNL     1      33.681  61.381  10.410  1.00  0.00    -0.196 N 
HETATM   13  N10 UNL     1      33.634  59.977  10.628  1.00  0.00    -0.168 N 
ENDROOT
BRANCH  11  14
HETATM   14  C6  UNL     1      35.133  61.679   8.359  1.00  0.00     0.179 C 
HETATM   15  N4  UNL     1      34.980  61.941   6.992  1.00  0.00    -0.078 NA
HETATM   16  N5  UNL     1      36.198  60.928   8.627  1.00  0.00    -0.174 N 
HETATM   17  C7  UNL     1      37.090  60.468   7.652  1.00  0.00     0.696 C 
ATOM     18  H5  UNL     1      36.375  60.674   9.599  1.00  0.00     0.185 HD
HETATM   19  N6  UNL     1      38.330  60.833   7.636  1.00  0.00    -0.233 N 
HETATM   20  N7  UNL     1      36.630  59.573   6.646  1.00  0.00    -0.072 N 
ATOM     21  H62 UNL     1      38.659  61.475   8.357  1.00  0.00     0.174 HD
ATOM     22  H61 UNL     1      38.979  60.497   6.925  1.00  0.00     0.174 HD
ATOM     23  H7  UNL     1      36.976  59.675   5.692  1.00  0.00     0.212 HD
BRANCH  20  24
HETATM   24  N8  UNL     1      35.712  58.554   6.938  1.00  0.00    -0.024 N 
HETATM   25  O1  UNL     1      34.858  58.232   6.109  1.00  0.00    -0.516 OA
HETATM   26  O2  UNL     1      35.744  57.904   8.131  1.00  0.00    -0.516 OA
ENDBRANCH  20  24
ENDBRANCH  11  14
BRANCH  13  27
HETATM   27  O3  UNL     1      33.768  59.126   9.618  1.00  0.00    -0.270 OA
ATOM     28  H3  UNL     1      34.540  59.056   9.070  1.00  0.00     0.246 HD
ENDBRANCH  13  27
TORSDOF 3
ENDMDL
MODEL 2
REMARK VINA RESULT: -6.582544225      2.095      3.259
REMARK  3 active torsions:
REMARK  status: ('A' for Active; 'I' for Inactive)
REMARK    1  A    between atoms: C5_11  and  C6_12 
REMARK       I    between atoms: N5_14  and  C7_16 
REMARK       I    between atoms: C7_16  and  N7_20 
REMARK    2  A    between atoms: N7_20  and  N8_22 
REMARK    3  A    between atoms: N10_26  and  O3_27 
ROOT
HETATM    1  C1  UNL     1      30.769  60.742  11.955  1.00  0.00     0.059 C 
HETATM    2  C2  UNL     1      31.870  61.641  12.442  1.00  0.00     0.224 C 
HETATM    3  N1  UNL     1      32.310  61.171  13.745  1.00  0.00    -0.392 N 
ATOM      4  H1  UNL     1      32.215  61.742  14.585  1.00  0.00     0.155 HD
HETATM    5  C3  UNL     1      32.877  59.880  13.779  1.00  0.00     0.196 C 
HETATM    6  C4  UNL     1      33.634  59.558  12.553  1.00  0.00     0.139 A 
HETATM    7  N2  UNL     1      34.380  58.473  12.205  1.00  0.00    -0.284 N 
ATOM      8  H2  UNL     1      34.544  57.662  12.801  1.00  0.00     0.188 HD
HETATM    9  N3  UNL     1      34.854  58.623  11.000  1.00  0.00    -0.280 N 
ATOM     10  H3  UNL     1      35.442  57.949  10.509  1.00  0.00     0.189 HD
HETATM   11  C5  UNL     1      34.435  59.836  10.490  1.00  0.00     0.187 A 
HETATM   12  N9  UNL     1      33.702  60.370  11.460  1.00  0.00    -0.196 N 
HETATM   13  N10 UNL     1      33.029  61.620  11.528  1.00  0.00    -0.168 N 
ENDROOT
BRANCH  11  14
HETATM   14  C6  UNL     1      34.772  60.326   9.167  1.00  0.00     0.179 C 
HETATM   15  N4  UNL     1      34.737  59.650   7.942  1.00  0.00    -0.078 NA
HETATM   16  N5  UNL     1      35.203  61.580   9.055  1.00  0.00    -0.174 N 
HETATM   17  C7  UNL     1      35.559  62.174   7.839  1.00  0.00     0.696 C 
ATOM     18  H5  UNL     1      35.277  62.141   9.904  1.00  0.00     0.185 HD
HETATM   19  N6  UNL     1      34.912  63.184   7.358  1.00  0.00    -0.233 N 
HETATM   20  N7  UNL     1      36.662  61.659   7.103  1.00  0.00    -0.072 N 
ATOM     21  H62 UNL     1      34.120  63.553   7.886  1.00  0.00     0.174 HD
ATOM     22  H61 UNL     1      35.172  63.617   6.472  1.00  0.00     0.174 HD
ATOM     23  H7  UNL     1      36.607  61.616   6.085  1.00  0.00     0.212 HD
BRANCH  20  24
HETATM   24  N8  UNL     1      37.825  61.211   7.746  1.00  0.00    -0.024 N 
HETATM   25  O1  UNL     1      37.866  60.080   8.236  1.00  0.00    -0.516 OA
HETATM   26  O2  UNL     1      38.922  62.006   7.843  1.00  0.00    -0.516 OA
ENDBRANCH  20  24
ENDBRANCH  11  14
BRANCH  13  27
HETATM   27  O3  UNL     1      33.457  62.665  10.832  1.00  0.00    -0.270 OA
ATOM     28  H3  UNL     1      33.848  62.613   9.967  1.00  0.00     0.246 HD
ENDBRANCH  13  27
TORSDOF 3
ENDMDL
MODEL 3
REMARK VINA RESULT: -6.390250044      1.608      2.604
REMARK  3 active torsions:
REMARK  status: ('A' for Active; 'I' for Inactive)
REMARK    1  A    between atoms: C5_11  and  C6_12 
REMARK       I    between atoms: N5_14  and  C7_16 
REMARK       I    between atoms: C7_16  and  N7_20 
REMARK    2  A    between atoms: N7_20  and  N8_22 
REMARK    3  A    between atoms: N10_26  and  O3_27 
ROOT
HETATM    1  C1  UNL     1      30.831  60.866  11.824  1.00  0.00     0.059 C 
HETATM    2  C2  UNL     1      31.934  61.705  12.406  1.00  0.00     0.224 C 
HETATM    3  N1  UNL     1      32.236  61.214  13.739  1.00  0.00    -0.392 N 
ATOM      4  H1  UNL     1      32.100  61.789  14.570  1.00  0.00     0.155 HD
HETATM    5  C3  UNL     1      32.727  59.894  13.817  1.00  0.00     0.196 C 
HETATM    6  C4  UNL     1      33.567  59.530  12.658  1.00  0.00     0.139 A 
HETATM    7  N2  UNL     1      34.281  58.407  12.372  1.00  0.00    -0.284 N 
ATOM      8  H2  UNL     1      34.351  57.589  12.976  1.00  0.00     0.188 HD
HETATM    9  N3  UNL     1      34.862  58.529  11.211  1.00  0.00    -0.280 N 
ATOM     10  H3  UNL     1      35.453  57.824  10.770  1.00  0.00     0.189 HD
HETATM   11  C5  UNL     1      34.554  59.762  10.672  1.00  0.00     0.187 A 
HETATM   12  N9  UNL     1      33.771  60.336  11.578  1.00  0.00    -0.196 N 
HETATM   13  N10 UNL     1      33.163  61.621  11.593  1.00  0.00    -0.168 N 
ENDROOT
BRANCH  11  14
HETATM   14  C6  UNL     1      35.028  60.233   9.384  1.00  0.00     0.179 C 
HETATM   15  N4  UNL     1      34.454  61.179   8.527  1.00  0.00    -0.078 NA
HETATM   16  N5  UNL     1      36.148  59.704   8.896  1.00  0.00    -0.174 N 
HETATM   17  C7  UNL     1      36.710  60.071   7.669  1.00  0.00     0.696 C 
ATOM     18  H5  UNL     1      36.623  58.991   9.449  1.00  0.00     0.185 HD
HETATM   19  N6  UNL     1      37.873  60.631   7.592  1.00  0.00    -0.233 N 
HETATM   20  N7  UNL     1      35.992  59.825   6.465  1.00  0.00    -0.072 N 
ATOM     21  H62 UNL     1      38.387  60.808   8.455  1.00  0.00     0.174 HD
ATOM     22  H61 UNL     1      38.282  60.898   6.697  1.00  0.00     0.174 HD
ATOM     23  H7  UNL     1      36.023  60.515   5.715  1.00  0.00     0.212 HD
BRANCH  20  24
HETATM   24  N8  UNL     1      35.241  58.653   6.288  1.00  0.00    -0.024 N 
HETATM   25  O1  UNL     1      34.103  58.711   5.817  1.00  0.00    -0.516 OA
HETATM   26  O2  UNL     1      35.747  57.440   6.630  1.00  0.00    -0.516 OA
ENDBRANCH  20  24
ENDBRANCH  11  14
BRANCH  13  27
HETATM   27  O3  UNL     1      33.704  62.640  10.939  1.00  0.00    -0.270 OA
ATOM     28  H3  UNL     1      33.312  63.502  10.864  1.00  0.00     0.246 HD
ENDBRANCH  13  27
TORSDOF 3
ENDMDL
MODEL 4
REMARK VINA RESULT: -6.145114961      2.246      5.763
REMARK  3 active torsions:
REMARK  status: ('A' for Active; 'I' for Inactive)
REMARK    1  A    between atoms: C5_11  and  C6_12 
REMARK       I    between atoms: N5_14  and  C7_16 
REMARK       I    between atoms: C7_16  and  N7_20 
REMARK    2  A    between atoms: N7_20  and  N8_22 
REMARK    3  A    between atoms: N10_26  and  O3_27 
ROOT
HETATM    1  C1  UNL     1      35.192  59.276   6.597  1.00  0.00     0.059 C 
HETATM    2  C2  UNL     1      36.348  59.431   7.545  1.00  0.00     0.224 C 
HETATM    3  N1  UNL     1      37.136  60.579   7.132  1.00  0.00    -0.392 N 
ATOM      4  H1  UNL     1      38.106  60.487   6.828  1.00  0.00     0.155 HD
HETATM    5  C3  UNL     1      36.483  61.828   7.176  1.00  0.00     0.196 C 
HETATM    6  C4  UNL     1      35.513  61.924   8.285  1.00  0.00     0.139 A 
HETATM    7  N2  UNL     1      34.735  62.952   8.724  1.00  0.00    -0.284 N 
ATOM      8  H2  UNL     1      34.719  63.888   8.318  1.00  0.00     0.188 HD
HETATM    9  N3  UNL     1      34.013  62.566   9.738  1.00  0.00    -0.280 N 
ATOM     10  H3  UNL     1      33.347  63.151  10.245  1.00  0.00     0.189 HD
HETATM   11  C5  UNL     1      34.288  61.243  10.020  1.00  0.00     0.187 A 
HETATM   12  N9  UNL     1      35.200  60.893   9.120  1.00  0.00    -0.196 N 
HETATM   13  N10 UNL     1      35.884  59.662   8.927  1.00  0.00    -0.168 N 
ENDROOT
BRANCH  11  14
HETATM   14  C6  UNL     1      33.660  60.486  11.086  1.00  0.00     0.179 C 
HETATM   15  N4  UNL     1      32.918  59.301  11.005  1.00  0.00    -0.078 NA
HETATM   16  N5  UNL     1      33.753  60.955  12.328  1.00  0.00    -0.174 N 
HETATM   17  C7  UNL     1      33.193  60.321  13.442  1.00  0.00     0.696 C 
ATOM     18  H5  UNL     1      34.262  61.827  12.475  1.00  0.00     0.185 HD
HETATM   19  N6  UNL     1      33.925  59.859  14.402  1.00  0.00    -0.233 N 
HETATM   20  N7  UNL     1      31.780  60.177  13.532  1.00  0.00    -0.072 N 
ATOM     21  H62 UNL     1      34.938  59.961  14.337  1.00  0.00     0.174 HD
ATOM     22  H61 UNL     1      33.516  59.397  15.214  1.00  0.00     0.174 HD
ATOM     23  H7  UNL     1      31.390  59.317  13.916  1.00  0.00     0.212 HD
BRANCH  20  24
HETATM   24  N8  UNL     1      30.913  61.193  13.105  1.00  0.00    -0.024 N 
HETATM   25  O1  UNL     1      30.607  61.287  11.915  1.00  0.00    -0.516 OA
HETATM   26  O2  UNL     1      30.397  62.089  13.986  1.00  0.00    -0.516 OA
ENDBRANCH  20  24
ENDBRANCH  11  14
BRANCH  13  27
HETATM   27  O3  UNL     1      36.092  58.831   9.940  1.00  0.00    -0.270 OA
ATOM     28  H3  UNL     1      35.481  58.688  10.654  1.00  0.00     0.246 HD
ENDBRANCH  13  27
TORSDOF 3
ENDMDL
MODEL 5
REMARK VINA RESULT: -6.092711007      1.961      2.458
REMARK  3 active torsions:
REMARK  status: ('A' for Active; 'I' for Inactive)
REMARK    1  A    between atoms: C5_11  and  C6_12 
REMARK       I    between atoms: N5_14  and  C7_16 
REMARK       I    between atoms: C7_16  and  N7_20 
REMARK    2  A    between atoms: N7_20  and  N8_22 
REMARK    3  A    between atoms: N10_26  and  O3_27 
ROOT
HETATM    1  C1  UNL     1      34.061  60.082  13.989  1.00  0.00     0.059 C 
HETATM    2  C2  UNL     1      33.035  59.412  13.119  1.00  0.00     0.224 C 
HETATM    3  N1  UNL     1      31.780  60.132  13.245  1.00  0.00    -0.392 N 
ATOM      4  H1  UNL     1      30.943  59.693  13.630  1.00  0.00     0.155 HD
HETATM    5  C3  UNL     1      31.785  61.471  12.804  1.00  0.00     0.196 C 
HETATM    6  C4  UNL     1      32.679  61.686  11.648  1.00  0.00     0.139 A 
HETATM    7  N2  UNL     1      32.925  62.785  10.883  1.00  0.00    -0.284 N 
ATOM      8  H2  UNL     1      32.479  63.694  11.006  1.00  0.00     0.188 HD
HETATM    9  N3  UNL     1      33.814  62.506   9.971  1.00  0.00    -0.280 N 
ATOM     10  H3  UNL     1      34.169  63.162   9.274  1.00  0.00     0.189 HD
HETATM   11  C5  UNL     1      34.199  61.187  10.095  1.00  0.00     0.187 A 
HETATM   12  N9  UNL     1      33.489  60.726  11.118  1.00  0.00    -0.196 N 
HETATM   13  N10 UNL     1      33.437  59.430  11.699  1.00  0.00    -0.168 N 
ENDROOT
BRANCH  11  14
HETATM   14  C6  UNL     1      35.180  60.538   9.245  1.00  0.00     0.179 C 
HETATM   15  N4  UNL     1      36.145  59.584   9.585  1.00  0.00    -0.078 NA
HETATM   16  N5  UNL     1      35.222  60.883   7.960  1.00  0.00    -0.174 N 
HETATM   17  C7  UNL     1      36.118  60.333   7.037  1.00  0.00     0.696 C 
ATOM     18  H5  UNL     1      34.563  61.588   7.630  1.00  0.00     0.185 HD
HETATM   19  N6  UNL     1      35.713  59.638   6.026  1.00  0.00    -0.233 N 
HETATM   20  N7  UNL     1      37.516  60.539   7.206  1.00  0.00    -0.072 N 
ATOM     21  H62 UNL     1      34.711  59.489   5.905  1.00  0.00     0.174 HD
ATOM     22  H61 UNL     1      36.367  59.237   5.353  1.00  0.00     0.174 HD
ATOM     23  H7  UNL     1      38.161  59.778   6.995  1.00  0.00     0.212 HD
BRANCH  20  24
HETATM   24  N8  UNL     1      38.025  61.765   7.657  1.00  0.00    -0.024 N 
HETATM   25  O1  UNL     1      39.243  61.944   7.725  1.00  0.00    -0.516 OA
HETATM   26  O2  UNL     1      37.194  62.775   8.026  1.00  0.00    -0.516 OA
ENDBRANCH  20  24
ENDBRANCH  11  14
BRANCH  13  27
HETATM   27  O3  UNL     1      33.709  58.349  10.980  1.00  0.00    -0.270 OA
ATOM     28  H3  UNL     1      34.302  57.657  11.248  1.00  0.00     0.246 HD
ENDBRANCH  13  27
TORSDOF 3
ENDMDL
