MODEL 1
REMARK VINA RESULT: -8.339433846      0.000      0.000
REMARK  5 active torsions:
REMARK  status: ('A' for Active; 'I' for Inactive)
REMARK    1  A    between atoms: C2_5  and  C3_6 
REMARK    2  A    between atoms: C4_7  and  C5_8 
REMARK    3  A    between atoms: C5_8  and  N3_9 
REMARK    4  A    between atoms: N3_9  and  N4_11 
REMARK    5  A    between atoms: N7_22  and  N8_23 
ROOT
HETATM    1  C3  UNL     1      34.262  61.147   9.483  1.00  0.00     0.068 A 
HETATM    2  C4  UNL     1      34.362  62.460   9.083  1.00  0.00     0.067 A 
HETATM    3  C6  UNL     1      34.984  62.711   7.879  1.00  0.00     0.272 A 
HETATM    4  O1  UNL     1      35.077  63.911   7.513  1.00  0.00    -0.266 OA
HETATM    5  N5  UNL     1      35.476  61.694   7.122  1.00  0.00    -0.265 N 
ATOM      6  H5  UNL     1      35.933  61.907   6.235  1.00  0.00     0.190 HD
HETATM    7  N6  UNL     1      35.376  60.435   7.512  1.00  0.00    -0.287 N 
ATOM      8  H6  UNL     1      35.751  59.684   6.932  1.00  0.00     0.188 HD
HETATM    9  C7  UNL     1      34.775  60.155   8.680  1.00  0.00     0.130 A 
HETATM   10  S1  UNL     1      34.673  58.575   9.127  1.00  0.00    -0.058 SA
ENDROOT
BRANCH   1  11
HETATM   11  C2  UNL     1      33.609  60.852  10.749  1.00  0.00     0.161 A 
HETATM   12  N2  UNL     1      32.429  61.394  11.102  1.00  0.00    -0.277 N 
HETATM   13  N1  UNL     1      32.073  60.955  12.294  1.00  0.00    -0.244 N 
ATOM     14  H2  UNL     1      31.890  62.046  10.532  1.00  0.00     0.189 HD
HETATM   15  C1  UNL     1      30.871  61.287  13.050  1.00  0.00     0.183 C 
HETATM   16  C8  UNL     1      33.057  60.122  12.689  1.00  0.00     0.363 A 
HETATM   17  N7  UNL     1      34.002  60.052  11.751  1.00  0.00    -0.192 N 
HETATM   18  O2  UNL     1      33.071  59.506  13.784  1.00  0.00    -0.243 OA
BRANCH  17  19
HETATM   19  N8  UNL     1      35.195  59.320  11.728  1.00  0.00    -0.333 N 
ATOM     20  H82 UNL     1      36.109  59.567  11.347  1.00  0.00     0.177 HD
ATOM     21  H81 UNL     1      35.287  58.384  12.123  1.00  0.00     0.177 HD
ENDBRANCH  17  19
ENDBRANCH   1  11
BRANCH   2  22
HETATM   22  C5  UNL     1      33.815  63.505   9.938  1.00  0.00     0.124 C 
BRANCH  22  23
HETATM   23  N3  UNL     1      34.319  64.701   9.909  1.00  0.00    -0.317 N 
ATOM     24  H3  UNL     1      35.202  64.864  10.392  1.00  0.00     0.185 HD
BRANCH  23  25
HETATM   25  N4  UNL     1      33.726  65.762   9.262  1.00  0.00    -0.345 N 
ATOM     26  H42 UNL     1      33.797  65.787   8.245  1.00  0.00     0.176 HD
ATOM     27  H41 UNL     1      33.228  66.511   9.744  1.00  0.00     0.176 HD
ENDBRANCH  23  25
ENDBRANCH  22  23
ENDBRANCH   2  22
TORSDOF 5
ENDMDL
MODEL 2
REMARK VINA RESULT: -8.241303910      2.084      3.525
REMARK  5 active torsions:
REMARK  status: ('A' for Active; 'I' for Inactive)
REMARK    1  A    between atoms: C2_5  and  C3_6 
REMARK    2  A    between atoms: C4_7  and  C5_8 
REMARK    3  A    between atoms: C5_8  and  N3_9 
REMARK    4  A    between atoms: N3_9  and  N4_11 
REMARK    5  A    between atoms: N7_22  and  N8_23 
ROOT
HETATM    1  C3  UNL     1      34.240  61.054   9.594  1.00  0.00     0.068 A 
HETATM    2  C4  UNL     1      34.736  59.985   8.884  1.00  0.00     0.067 A 
HETATM    3  C6  UNL     1      35.356  60.254   7.683  1.00  0.00     0.272 A 
HETATM    4  O1  UNL     1      35.809  59.277   7.032  1.00  0.00    -0.266 OA
HETATM    5  N5  UNL     1      35.470  61.530   7.226  1.00  0.00    -0.265 N 
ATOM      6  H5  UNL     1      35.933  61.701   6.333  1.00  0.00     0.190 HD
HETATM    7  N6  UNL     1      34.991  62.552   7.913  1.00  0.00    -0.287 N 
ATOM      8  H6  UNL     1      35.085  63.503   7.556  1.00  0.00     0.188 HD
HETATM    9  C7  UNL     1      34.381  62.325   9.088  1.00  0.00     0.130 A 
HETATM   10  S1  UNL     1      33.800  63.627   9.911  1.00  0.00    -0.058 SA
ENDROOT
BRANCH   1  11
HETATM   11  C2  UNL     1      33.580  60.800  10.866  1.00  0.00     0.161 A 
HETATM   12  N2  UNL     1      32.399  61.356  11.195  1.00  0.00    -0.277 N 
HETATM   13  N1  UNL     1      32.037  60.956  12.399  1.00  0.00    -0.244 N 
ATOM     14  H2  UNL     1      31.865  61.992  10.602  1.00  0.00     0.189 HD
HETATM   15  C1  UNL     1      30.831  61.314  13.138  1.00  0.00     0.183 C 
HETATM   16  C8  UNL     1      33.017  60.133  12.824  1.00  0.00     0.363 A 
HETATM   17  N7  UNL     1      33.966  60.031  11.894  1.00  0.00    -0.192 N 
HETATM   18  O2  UNL     1      33.024  59.552  13.939  1.00  0.00    -0.243 OA
BRANCH  17  19
HETATM   19  N8  UNL     1      35.158  59.296  11.900  1.00  0.00    -0.333 N 
ATOM     20  H82 UNL     1      35.371  58.390  11.484  1.00  0.00     0.177 HD
ATOM     21  H81 UNL     1      36.011  59.616  12.359  1.00  0.00     0.177 HD
ENDBRANCH  17  19
ENDBRANCH   1  11
BRANCH   2  22
HETATM   22  C5  UNL     1      34.583  58.642   9.426  1.00  0.00     0.124 C 
BRANCH  22  23
HETATM   23  N3  UNL     1      34.325  57.645   8.635  1.00  0.00    -0.317 N 
ATOM     24  H3  UNL     1      33.554  57.740   7.976  1.00  0.00     0.185 HD
BRANCH  23  25
HETATM   25  N4  UNL     1      35.037  56.465   8.639  1.00  0.00    -0.345 N 
ATOM     26  H42 UNL     1      34.508  55.602   8.759  1.00  0.00     0.176 HD
ATOM     27  H41 UNL     1      36.050  56.417   8.528  1.00  0.00     0.176 HD
ENDBRANCH  23  25
ENDBRANCH  22  23
ENDBRANCH   2  22
TORSDOF 5
ENDMDL
MODEL 3
REMARK VINA RESULT: -6.577559359      2.321      4.214
REMARK  5 active torsions:
REMARK  status: ('A' for Active; 'I' for Inactive)
REMARK    1  A    between atoms: C2_5  and  C3_6 
REMARK    2  A    between atoms: C4_7  and  C5_8 
REMARK    3  A    between atoms: C5_8  and  N3_9 
REMARK    4  A    between atoms: N3_9  and  N4_11 
REMARK    5  A    between atoms: N7_22  and  N8_23 
ROOT
HETATM    1  C3  UNL     1      34.277  61.924   9.340  1.00  0.00     0.068 A 
HETATM    2  C4  UNL     1      34.724  63.091   8.762  1.00  0.00     0.067 A 
HETATM    3  C6  UNL     1      34.282  64.277   9.306  1.00  0.00     0.272 A 
HETATM    4  O1  UNL     1      34.689  65.344   8.778  1.00  0.00    -0.266 OA
HETATM    5  N5  UNL     1      33.437  64.286  10.372  1.00  0.00    -0.265 N 
ATOM      6  H5  UNL     1      33.125  65.179  10.754  1.00  0.00     0.190 HD
HETATM    7  N6  UNL     1      33.013  63.162  10.922  1.00  0.00    -0.287 N 
ATOM      8  H6  UNL     1      32.379  63.186  11.721  1.00  0.00     0.188 HD
HETATM    9  C7  UNL     1      33.424  61.987  10.417  1.00  0.00     0.130 A 
HETATM   10  S1  UNL     1      32.870  60.613  11.132  1.00  0.00    -0.058 SA
ENDROOT
BRANCH   1  11
HETATM   11  C2  UNL     1      34.727  60.656   8.788  1.00  0.00     0.161 A 
HETATM   12  N2  UNL     1      34.798  60.425   7.464  1.00  0.00    -0.277 N 
HETATM   13  N1  UNL     1      35.236  59.199   7.247  1.00  0.00    -0.244 N 
ATOM     14  H2  UNL     1      34.551  61.097   6.737  1.00  0.00     0.189 HD
HETATM   15  C1  UNL     1      35.460  58.541   5.965  1.00  0.00     0.183 C 
HETATM   16  C8  UNL     1      35.440  58.659   8.465  1.00  0.00     0.363 A 
HETATM   17  N7  UNL     1      35.132  59.542   9.415  1.00  0.00    -0.192 N 
HETATM   18  O2  UNL     1      35.860  57.491   8.665  1.00  0.00    -0.243 OA
BRANCH  17  19
HETATM   19  N8  UNL     1      35.187  59.422  10.809  1.00  0.00    -0.333 N 
ATOM     20  H82 UNL     1      35.983  59.244  11.421  1.00  0.00     0.177 HD
ATOM     21  H81 UNL     1      34.368  59.505  11.411  1.00  0.00     0.177 HD
ENDBRANCH  17  19
ENDBRANCH   1  11
BRANCH   2  22
HETATM   22  C5  UNL     1      35.627  63.016   7.622  1.00  0.00     0.124 C 
BRANCH  22  23
HETATM   23  N3  UNL     1      36.686  63.766   7.579  1.00  0.00    -0.317 N 
ATOM     24  H3  UNL     1      36.559  64.776   7.523  1.00  0.00     0.185 HD
BRANCH  23  25
HETATM   25  N4  UNL     1      37.972  63.272   7.605  1.00  0.00    -0.345 N 
ATOM     26  H42 UNL     1      38.084  62.262   7.526  1.00  0.00     0.176 HD
ATOM     27  H41 UNL     1      38.801  63.860   7.698  1.00  0.00     0.176 HD
ENDBRANCH  23  25
ENDBRANCH  22  23
ENDBRANCH   2  22
TORSDOF 5
ENDMDL
MODEL 4
REMARK VINA RESULT: -6.436591419      2.378      3.976
REMARK  5 active torsions:
REMARK  status: ('A' for Active; 'I' for Inactive)
REMARK    1  A    between atoms: C2_5  and  C3_6 
REMARK    2  A    between atoms: C4_7  and  C5_8 
REMARK    3  A    between atoms: C5_8  and  N3_9 
REMARK    4  A    between atoms: N3_9  and  N4_11 
REMARK    5  A    between atoms: N7_22  and  N8_23 
ROOT
HETATM    1  C3  UNL     1      34.524  61.050   9.213  1.00  0.00     0.068 A 
HETATM    2  C4  UNL     1      34.839  59.835   8.648  1.00  0.00     0.067 A 
HETATM    3  C6  UNL     1      35.500  59.852   7.438  1.00  0.00     0.272 A 
HETATM    4  O1  UNL     1      35.788  58.742   6.920  1.00  0.00    -0.266 OA
HETATM    5  N5  UNL     1      35.824  61.026   6.835  1.00  0.00    -0.265 N 
ATOM      6  H5  UNL     1      36.313  61.009   5.939  1.00  0.00     0.190 HD
HETATM    7  N6  UNL     1      35.518  62.188   7.384  1.00  0.00    -0.287 N 
ATOM      8  H6  UNL     1      35.769  63.061   6.917  1.00  0.00     0.188 HD
HETATM    9  C7  UNL     1      34.874  62.210   8.562  1.00  0.00     0.130 A 
HETATM   10  S1  UNL     1      34.513  63.679   9.209  1.00  0.00    -0.058 SA
ENDROOT
BRANCH   1  11
HETATM   11  C2  UNL     1      33.826  61.065  10.490  1.00  0.00     0.161 A 
HETATM   12  N2  UNL     1      34.090  60.181  11.471  1.00  0.00    -0.277 N 
HETATM   13  N1  UNL     1      33.315  60.424  12.511  1.00  0.00    -0.244 N 
ATOM     14  H2  UNL     1      34.785  59.436  11.418  1.00  0.00     0.189 HD
HETATM   15  C1  UNL     1      33.271  59.711  13.782  1.00  0.00     0.183 C 
HETATM   16  C8  UNL     1      32.554  61.482  12.165  1.00  0.00     0.363 A 
HETATM   17  N7  UNL     1      32.859  61.882  10.930  1.00  0.00    -0.192 N 
HETATM   18  O2  UNL     1      31.686  62.007  12.907  1.00  0.00    -0.243 OA
BRANCH  17  19
HETATM   19  N8  UNL     1      32.331  62.929  10.166  1.00  0.00    -0.333 N 
ATOM     20  H82 UNL     1      32.802  63.707   9.704  1.00  0.00     0.177 HD
ATOM     21  H81 UNL     1      31.335  63.036   9.975  1.00  0.00     0.177 HD
ENDBRANCH  17  19
ENDBRANCH   1  11
BRANCH   2  22
HETATM   22  C5  UNL     1      34.465  58.612   9.343  1.00  0.00     0.124 C 
BRANCH  22  23
HETATM   23  N3  UNL     1      34.183  57.539   8.668  1.00  0.00    -0.317 N 
ATOM     24  H3  UNL     1      33.341  57.538   8.094  1.00  0.00     0.185 HD
BRANCH  23  25
HETATM   25  N4  UNL     1      34.961  56.402   8.686  1.00  0.00    -0.345 N 
ATOM     26  H42 UNL     1      35.787  56.411   9.284  1.00  0.00     0.176 HD
ATOM     27  H41 UNL     1      34.751  55.566   8.139  1.00  0.00     0.176 HD
ENDBRANCH  23  25
ENDBRANCH  22  23
ENDBRANCH   2  22
TORSDOF 5
ENDMDL
MODEL 5
REMARK VINA RESULT: -6.412937813      2.835      4.600
REMARK  5 active torsions:
REMARK  status: ('A' for Active; 'I' for Inactive)
REMARK    1  A    between atoms: C2_5  and  C3_6 
REMARK    2  A    between atoms: C4_7  and  C5_8 
REMARK    3  A    between atoms: C5_8  and  N3_9 
REMARK    4  A    between atoms: N3_9  and  N4_11 
REMARK    5  A    between atoms: N7_22  and  N8_23 
ROOT
HETATM    1  C3  UNL     1      34.438  62.291   9.022  1.00  0.00     0.068 A 
HETATM    2  C4  UNL     1      34.863  63.467   8.447  1.00  0.00     0.067 A 
HETATM    3  C6  UNL     1      34.432  64.644   9.020  1.00  0.00     0.272 A 
HETATM    4  O1  UNL     1      34.819  65.720   8.495  1.00  0.00    -0.266 OA
HETATM    5  N5  UNL     1      33.619  64.635  10.110  1.00  0.00    -0.265 N 
ATOM      6  H5  UNL     1      33.315  65.521  10.514  1.00  0.00     0.190 HD
HETATM    7  N6  UNL     1      33.216  63.502  10.657  1.00  0.00    -0.287 N 
ATOM      8  H6  UNL     1      32.606  63.512  11.475  1.00  0.00     0.188 HD
HETATM    9  C7  UNL     1      33.617  62.336  10.125  1.00  0.00     0.130 A 
HETATM   10  S1  UNL     1      33.090  60.949  10.837  1.00  0.00    -0.058 SA
ENDROOT
BRANCH   1  11
HETATM   11  C2  UNL     1      34.877  61.032   8.440  1.00  0.00     0.161 A 
HETATM   12  N2  UNL     1      35.194  59.958   9.187  1.00  0.00    -0.277 N 
HETATM   13  N1  UNL     1      35.558  58.960   8.403  1.00  0.00    -0.244 N 
ATOM     14  H2  UNL     1      35.159  59.921  10.206  1.00  0.00     0.189 HD
HETATM   15  C1  UNL     1      35.979  57.620   8.795  1.00  0.00     0.183 C 
HETATM   16  C8  UNL     1      35.463  59.429   7.142  1.00  0.00     0.363 A 
HETATM   17  N7  UNL     1      35.048  60.695   7.153  1.00  0.00    -0.192 N 
HETATM   18  O2  UNL     1      35.731  58.759   6.113  1.00  0.00    -0.243 OA
BRANCH  17  19
HETATM   19  N8  UNL     1      34.810  61.574   6.090  1.00  0.00    -0.333 N 
ATOM     20  H82 UNL     1      34.452  62.529   6.096  1.00  0.00     0.177 HD
ATOM     21  H81 UNL     1      34.984  61.334   5.114  1.00  0.00     0.177 HD
ENDBRANCH  17  19
ENDBRANCH   1  11
BRANCH   2  22
HETATM   22  C5  UNL     1      35.732  63.412   7.280  1.00  0.00     0.124 C 
BRANCH  22  23
HETATM   23  N3  UNL     1      36.910  63.957   7.319  1.00  0.00    -0.317 N 
ATOM     24  H3  UNL     1      36.987  64.953   7.113  1.00  0.00     0.185 HD
BRANCH  23  25
HETATM   25  N4  UNL     1      38.061  63.264   7.622  1.00  0.00    -0.345 N 
ATOM     26  H42 UNL     1      38.016  62.246   7.582  1.00  0.00     0.176 HD
ATOM     27  H41 UNL     1      38.940  63.714   7.879  1.00  0.00     0.176 HD
ENDBRANCH  23  25
ENDBRANCH  22  23
ENDBRANCH   2  22
TORSDOF 5
ENDMDL
