MODEL 1
REMARK VINA RESULT: -7.871171385      0.000      0.000
REMARK  8 active torsions:
REMARK  status: ('A' for Active; 'I' for Inactive)
REMARK    1  A    between atoms: O1_2  and  C2_3 
REMARK    2  A    between atoms: C2_3  and  C3_5 
REMARK    3  A    between atoms: C4_6  and  O3_7 
REMARK    4  A    between atoms: C5_9  and  C6_10 
REMARK    5  A    between atoms: C6_10  and  O5_12 
REMARK    6  A    between atoms: C8_14  and  N1_15 
REMARK    7  A    between atoms: N1_15  and  N2_17 
REMARK    8  A    between atoms: N3_20  and  N4_21 
ROOT
HETATM    1  C3  UNL     1      33.923  60.989  10.232  1.00  0.00     0.116 A 
HETATM    2  C4  UNL     1      33.610  62.312  10.188  1.00  0.00     0.105 A 
HETATM    3  C5  UNL     1      34.102  63.091   9.108  1.00  0.00     0.120 A 
HETATM    4  C8  UNL     1      34.878  62.558   8.114  1.00  0.00     0.161 A 
HETATM    5  N3  UNL     1      35.166  61.247   8.193  1.00  0.00    -0.229 N 
HETATM    6  C9  UNL     1      34.722  60.477   9.195  1.00  0.00     0.158 A 
HETATM    7  N5  UNL     1      35.074  59.099   9.201  1.00  0.00    -0.079 NA
ENDROOT
BRANCH   4   8
HETATM    8  N1  UNL     1      35.318  63.269   7.142  1.00  0.00    -0.290 N 
ATOM      9  H1  UNL     1      34.764  63.284   6.285  1.00  0.00     0.188 HD
BRANCH   8  10
HETATM   10  N2  UNL     1      36.473  64.012   7.155  1.00  0.00    -0.344 N 
ATOM     11  H22 UNL     1      36.729  64.428   8.051  1.00  0.00     0.176 HD
ATOM     12  H21 UNL     1      37.083  64.175   6.354  1.00  0.00     0.176 HD
ENDBRANCH   8  10
ENDBRANCH   4   8
BRANCH   3  13
HETATM   13  C6  UNL     1      33.749  64.502   9.090  1.00  0.00     0.299 C 
HETATM   14  O4  UNL     1      32.599  64.892   9.436  1.00  0.00    -0.259 OA
BRANCH  13  15
HETATM   15  O5  UNL     1      34.636  65.491   8.699  1.00  0.00    -0.322 OA
HETATM   16  C7  UNL     1      34.170  66.700   8.138  1.00  0.00     0.213 C 
ENDBRANCH  13  15
ENDBRANCH   3  13
BRANCH   5  17
HETATM   17  N4  UNL     1      35.958  60.701   7.180  1.00  0.00    -0.335 N 
ATOM     18  H42 UNL     1      35.644  60.727   6.210  1.00  0.00     0.177 HD
ATOM     19  H41 UNL     1      36.848  60.282   7.453  1.00  0.00     0.177 HD
ENDBRANCH   5  17
BRANCH   2  20
HETATM   20  O3  UNL     1      32.846  62.899  11.139  1.00  0.00    -0.358 OA
ATOM     21  H3  UNL     1      31.896  62.883  11.102  1.00  0.00     0.217 HD
ENDBRANCH   2  20
BRANCH   1  22
HETATM   22  C2  UNL     1      33.506  60.071  11.252  1.00  0.00     0.299 C 
HETATM   23  O2  UNL     1      34.353  59.451  11.980  1.00  0.00    -0.259 OA
BRANCH  22  24
HETATM   24  O1  UNL     1      32.191  59.794  11.516  1.00  0.00    -0.322 OA
HETATM   25  C1  UNL     1      31.569  60.053  12.741  1.00  0.00     0.213 C 
ENDBRANCH  22  24
ENDBRANCH   1  22
TORSDOF 8
ENDMDL
MODEL 2
REMARK VINA RESULT: -7.788943352      1.508      2.184
REMARK  8 active torsions:
REMARK  status: ('A' for Active; 'I' for Inactive)
REMARK    1  A    between atoms: O1_2  and  C2_3 
REMARK    2  A    between atoms: C2_3  and  C3_5 
REMARK    3  A    between atoms: C4_6  and  O3_7 
REMARK    4  A    between atoms: C5_9  and  C6_10 
REMARK    5  A    between atoms: C6_10  and  O5_12 
REMARK    6  A    between atoms: C8_14  and  N1_15 
REMARK    7  A    between atoms: N1_15  and  N2_17 
REMARK    8  A    between atoms: N3_20  and  N4_21 
ROOT
HETATM    1  C3  UNL     1      33.396  61.162  10.740  1.00  0.00     0.116 A 
HETATM    2  C4  UNL     1      33.673  62.251   9.973  1.00  0.00     0.105 A 
HETATM    3  C5  UNL     1      34.531  62.093   8.853  1.00  0.00     0.120 A 
HETATM    4  C8  UNL     1      35.087  60.887   8.520  1.00  0.00     0.161 A 
HETATM    5  N3  UNL     1      34.790  59.835   9.303  1.00  0.00    -0.229 N 
HETATM    6  C9  UNL     1      33.986  59.941  10.369  1.00  0.00     0.158 A 
HETATM    7  N5  UNL     1      33.724  58.777  11.142  1.00  0.00    -0.079 NA
ENDROOT
BRANCH   4   8
HETATM    8  N1  UNL     1      35.861  60.753   7.507  1.00  0.00    -0.290 N 
ATOM      9  H1  UNL     1      36.833  61.039   7.621  1.00  0.00     0.188 HD
BRANCH   8  10
HETATM   10  N2  UNL     1      35.492  60.258   6.280  1.00  0.00    -0.344 N 
ATOM     11  H22 UNL     1      34.541  59.894   6.210  1.00  0.00     0.176 HD
ATOM     12  H21 UNL     1      36.084  60.227   5.450  1.00  0.00     0.176 HD
ENDBRANCH   8  10
ENDBRANCH   4   8
BRANCH   3  13
HETATM   13  C6  UNL     1      34.806  63.277   8.053  1.00  0.00     0.299 C 
HETATM   14  O4  UNL     1      34.830  63.223   6.792  1.00  0.00    -0.259 OA
BRANCH  13  15
HETATM   15  O5  UNL     1      35.055  64.518   8.615  1.00  0.00    -0.322 OA
HETATM   16  C7  UNL     1      34.305  65.650   8.230  1.00  0.00     0.213 C 
ENDBRANCH  13  15
ENDBRANCH   3  13
BRANCH   5  17
HETATM   17  N4  UNL     1      35.357  58.603   8.966  1.00  0.00    -0.335 N 
ATOM     18  H42 UNL     1      36.310  58.555   8.608  1.00  0.00     0.177 HD
ATOM     19  H41 UNL     1      34.780  57.770   9.093  1.00  0.00     0.177 HD
ENDBRANCH   5  17
BRANCH   2  20
HETATM   20  O3  UNL     1      33.154  63.471  10.248  1.00  0.00    -0.358 OA
ATOM     21  H3  UNL     1      33.303  64.220   9.682  1.00  0.00     0.217 HD
ENDBRANCH   2  20
BRANCH   1  22
HETATM   22  C2  UNL     1      32.553  61.157  11.900  1.00  0.00     0.299 C 
HETATM   23  O2  UNL     1      31.358  61.609  11.859  1.00  0.00    -0.259 OA
BRANCH  22  24
HETATM   24  O1  UNL     1      32.958  60.677  13.116  1.00  0.00    -0.322 OA
HETATM   25  C1  UNL     1      32.106  60.054  14.033  1.00  0.00     0.213 C 
ENDBRANCH  22  24
ENDBRANCH   1  22
TORSDOF 8
ENDMDL
MODEL 3
REMARK VINA RESULT: -7.221745360      1.530      4.975
REMARK  8 active torsions:
REMARK  status: ('A' for Active; 'I' for Inactive)
REMARK    1  A    between atoms: O1_2  and  C2_3 
REMARK    2  A    between atoms: C2_3  and  C3_5 
REMARK    3  A    between atoms: C4_6  and  O3_7 
REMARK    4  A    between atoms: C5_9  and  C6_10 
REMARK    5  A    between atoms: C6_10  and  O5_12 
REMARK    6  A    between atoms: C8_14  and  N1_15 
REMARK    7  A    between atoms: N1_15  and  N2_17 
REMARK    8  A    between atoms: N3_20  and  N4_21 
ROOT
HETATM    1  C3  UNL     1      34.363  62.372   8.996  1.00  0.00     0.116 A 
HETATM    2  C4  UNL     1      33.501  62.390  10.048  1.00  0.00     0.105 A 
HETATM    3  C5  UNL     1      33.288  61.187  10.772  1.00  0.00     0.120 A 
HETATM    4  C8  UNL     1      33.917  60.015  10.448  1.00  0.00     0.161 A 
HETATM    5  N3  UNL     1      34.761  60.038   9.401  1.00  0.00    -0.229 N 
HETATM    6  C9  UNL     1      34.990  61.151   8.692  1.00  0.00     0.158 A 
HETATM    7  N5  UNL     1      35.898  61.087   7.600  1.00  0.00    -0.079 NA
ENDROOT
BRANCH   4   8
HETATM    8  N1  UNL     1      33.719  58.933  11.108  1.00  0.00    -0.290 N 
ATOM      9  H1  UNL     1      33.077  58.251  10.703  1.00  0.00     0.188 HD
BRANCH   8  10
HETATM   10  N2  UNL     1      34.297  58.615  12.312  1.00  0.00    -0.344 N 
ATOM     11  H22 UNL     1      34.575  59.402  12.899  1.00  0.00     0.176 HD
ATOM     12  H21 UNL     1      34.465  57.670  12.658  1.00  0.00     0.176 HD
ENDBRANCH   8  10
ENDBRANCH   4   8
BRANCH   3  13
HETATM   13  C6  UNL     1      32.361  61.240  11.893  1.00  0.00     0.299 C 
HETATM   14  O4  UNL     1      31.182  61.666  11.746  1.00  0.00    -0.259 OA
BRANCH  13  15
HETATM   15  O5  UNL     1      32.708  60.834  13.170  1.00  0.00    -0.322 OA
HETATM   16  C7  UNL     1      31.770  60.186  14.004  1.00  0.00     0.213 C 
ENDBRANCH  13  15
ENDBRANCH   3  13
BRANCH   5  17
HETATM   17  N4  UNL     1      35.404  58.843   9.068  1.00  0.00    -0.335 N 
ATOM     18  H42 UNL     1      36.347  58.654   9.407  1.00  0.00     0.177 HD
ATOM     19  H41 UNL     1      34.894  58.183   8.481  1.00  0.00     0.177 HD
ENDBRANCH   5  17
BRANCH   2  20
HETATM   20  O3  UNL     1      32.848  63.516  10.421  1.00  0.00    -0.358 OA
ATOM     21  H3  UNL     1      32.765  64.264   9.841  1.00  0.00     0.217 HD
ENDBRANCH   2  20
BRANCH   1  22
HETATM   22  C2  UNL     1      34.684  63.498   8.168  1.00  0.00     0.299 C 
HETATM   23  O2  UNL     1      34.814  63.381   6.902  1.00  0.00    -0.259 OA
BRANCH  22  24
HETATM   24  O1  UNL     1      34.874  64.760   8.664  1.00  0.00    -0.322 OA
HETATM   25  C1  UNL     1      34.081  65.860   8.324  1.00  0.00     0.213 C 
ENDBRANCH  22  24
ENDBRANCH   1  22
TORSDOF 8
ENDMDL
MODEL 4
REMARK VINA RESULT: -7.085501839      0.503      5.012
REMARK  8 active torsions:
REMARK  status: ('A' for Active; 'I' for Inactive)
REMARK    1  A    between atoms: O1_2  and  C2_3 
REMARK    2  A    between atoms: C2_3  and  C3_5 
REMARK    3  A    between atoms: C4_6  and  O3_7 
REMARK    4  A    between atoms: C5_9  and  C6_10 
REMARK    5  A    between atoms: C6_10  and  O5_12 
REMARK    6  A    between atoms: C8_14  and  N1_15 
REMARK    7  A    between atoms: N1_15  and  N2_17 
REMARK    8  A    between atoms: N3_20  and  N4_21 
ROOT
HETATM    1  C3  UNL     1      34.018  62.843   9.277  1.00  0.00     0.116 A 
HETATM    2  C4  UNL     1      33.679  62.030  10.313  1.00  0.00     0.105 A 
HETATM    3  C5  UNL     1      34.111  60.678  10.286  1.00  0.00     0.120 A 
HETATM    4  C8  UNL     1      34.854  60.167   9.257  1.00  0.00     0.161 A 
HETATM    5  N3  UNL     1      35.169  61.001   8.250  1.00  0.00    -0.229 N 
HETATM    6  C9  UNL     1      34.781  62.283   8.237  1.00  0.00     0.158 A 
HETATM    7  N5  UNL     1      35.158  63.097   7.133  1.00  0.00    -0.079 NA
ENDROOT
BRANCH   4   8
HETATM    8  N1  UNL     1      35.241  58.944   9.241  1.00  0.00    -0.290 N 
ATOM      9  H1  UNL     1      36.116  58.724   9.716  1.00  0.00     0.188 HD
BRANCH   8  10
HETATM   10  N2  UNL     1      34.576  57.905   8.637  1.00  0.00    -0.344 N 
ATOM     11  H22 UNL     1      34.951  56.972   8.809  1.00  0.00     0.176 HD
ATOM     12  H21 UNL     1      33.752  57.993   8.042  1.00  0.00     0.176 HD
ENDBRANCH   8  10
ENDBRANCH   4   8
BRANCH   3  13
HETATM   13  C6  UNL     1      33.732  59.836  11.411  1.00  0.00     0.299 C 
HETATM   14  O4  UNL     1      34.604  59.304  12.153  1.00  0.00    -0.259 OA
BRANCH  13  15
HETATM   15  O5  UNL     1      32.412  59.568  11.733  1.00  0.00    -0.322 OA
HETATM   16  C7  UNL     1      31.975  59.597  13.075  1.00  0.00     0.213 C 
ENDBRANCH  13  15
ENDBRANCH   3  13
BRANCH   5  17
HETATM   17  N4  UNL     1      35.927  60.482   7.198  1.00  0.00    -0.335 N 
ATOM     18  H42 UNL     1      35.584  59.687   6.659  1.00  0.00     0.177 HD
ATOM     19  H41 UNL     1      36.823  60.928   7.000  1.00  0.00     0.177 HD
ENDBRANCH   5  17
BRANCH   2  20
HETATM   20  O3  UNL     1      32.947  62.475  11.363  1.00  0.00    -0.358 OA
ATOM     21  H3  UNL     1      32.206  61.985  11.702  1.00  0.00     0.217 HD
ENDBRANCH   2  20
BRANCH   1  22
HETATM   22  C2  UNL     1      33.660  64.226   9.156  1.00  0.00     0.299 C 
HETATM   23  O2  UNL     1      32.488  64.641   9.451  1.00  0.00    -0.259 OA
BRANCH  22  24
HETATM   24  O1  UNL     1      34.531  65.188   8.720  1.00  0.00    -0.322 OA
HETATM   25  C1  UNL     1      34.134  66.407   8.161  1.00  0.00     0.213 C 
ENDBRANCH  22  24
ENDBRANCH   1  22
TORSDOF 8
ENDMDL
MODEL 5
REMARK VINA RESULT: -7.061470759      2.390      4.510
REMARK  8 active torsions:
REMARK  status: ('A' for Active; 'I' for Inactive)
REMARK    1  A    between atoms: O1_2  and  C2_3 
REMARK    2  A    between atoms: C2_3  and  C3_5 
REMARK    3  A    between atoms: C4_6  and  O3_7 
REMARK    4  A    between atoms: C5_9  and  C6_10 
REMARK    5  A    between atoms: C6_10  and  O5_12 
REMARK    6  A    between atoms: C8_14  and  N1_15 
REMARK    7  A    between atoms: N1_15  and  N2_17 
REMARK    8  A    between atoms: N3_20  and  N4_21 
ROOT
HETATM    1  C3  UNL     1      33.546  60.969  10.633  1.00  0.00     0.116 A 
HETATM    2  C4  UNL     1      34.010  59.744  10.267  1.00  0.00     0.105 A 
HETATM    3  C5  UNL     1      34.791  59.638   9.085  1.00  0.00     0.120 A 
HETATM    4  C8  UNL     1      35.091  60.722   8.306  1.00  0.00     0.161 A 
HETATM    5  N3  UNL     1      34.613  61.916   8.700  1.00  0.00    -0.229 N 
HETATM    6  C9  UNL     1      33.873  62.059   9.808  1.00  0.00     0.158 A 
HETATM    7  N5  UNL     1      33.408  63.358  10.152  1.00  0.00    -0.079 NA
ENDROOT
BRANCH   4   8
HETATM    8  N1  UNL     1      35.796  60.618   7.240  1.00  0.00    -0.290 N 
ATOM      9  H1  UNL     1      36.692  61.106   7.223  1.00  0.00     0.188 HD
BRANCH   8  10
HETATM   10  N2  UNL     1      35.449  59.905   6.119  1.00  0.00    -0.344 N 
ATOM     11  H22 UNL     1      35.643  58.904   6.144  1.00  0.00     0.176 HD
ATOM     12  H21 UNL     1      35.018  60.293   5.280  1.00  0.00     0.176 HD
ENDBRANCH   8  10
ENDBRANCH   4   8
BRANCH   3  13
HETATM   13  C6  UNL     1      35.272  58.314   8.723  1.00  0.00     0.299 C 
HETATM   14  O4  UNL     1      36.508  58.062   8.660  1.00  0.00    -0.259 OA
BRANCH  13  15
HETATM   15  O5  UNL     1      34.420  57.263   8.427  1.00  0.00    -0.322 OA
HETATM   16  C7  UNL     1      33.792  57.173   7.166  1.00  0.00     0.213 C 
ENDBRANCH  13  15
ENDBRANCH   3  13
BRANCH   5  17
HETATM   17  N4  UNL     1      34.917  63.024   7.906  1.00  0.00    -0.335 N 
ATOM     18  H42 UNL     1      34.472  63.144   6.997  1.00  0.00     0.177 HD
ATOM     19  H41 UNL     1      35.593  63.694   8.274  1.00  0.00     0.177 HD
ENDBRANCH   5  17
BRANCH   2  20
HETATM   20  O3  UNL     1      33.750  58.632  10.996  1.00  0.00    -0.358 OA
ATOM     21  H3  UNL     1      33.207  57.927  10.661  1.00  0.00     0.217 HD
ENDBRANCH   2  20
BRANCH   1  22
HETATM   22  C2  UNL     1      32.748  61.241  11.793  1.00  0.00     0.299 C 
HETATM   23  O2  UNL     1      31.629  61.852  11.706  1.00  0.00    -0.259 OA
BRANCH  22  24
HETATM   24  O1  UNL     1      33.119  60.874  13.058  1.00  0.00    -0.322 OA
HETATM   25  C1  UNL     1      32.401  59.975  13.854  1.00  0.00     0.213 C 
ENDBRANCH  22  24
ENDBRANCH   1  22
TORSDOF 8
ENDMDL
