MODEL 1
REMARK VINA RESULT: -7.448177593      0.000      0.000
REMARK  8 active torsions:
REMARK  status: ('A' for Active; 'I' for Inactive)
REMARK    1  A    between atoms: S1_2  and  C2_3 
REMARK    2  A    between atoms: C3_4  and  C4_5 
REMARK    3  A    between atoms: C4_5  and  O1_6 
REMARK    4  A    between atoms: C4_5  and  N1_8 
REMARK    5  A    between atoms: N1_8  and  N2_10 
REMARK    6  A    between atoms: N3_15  and  N4_16 
REMARK    7  A    between atoms: C6_19  and  N5_20 
REMARK    8  A    between atoms: N7_24  and  O3_25 
ROOT
HETATM    1  N5  UNL     1      32.958  59.906  11.506  1.00  0.00    -0.122 N 
ATOM      2  H5  UNL     1      32.066  59.468  11.275  1.00  0.00     0.197 HD
HETATM    3  C7  UNL     1      33.421  59.761  12.792  1.00  0.00     0.196 C 
HETATM    4  N6  UNL     1      33.795  59.621  13.904  1.00  0.00    -0.171 NA
ENDROOT
BRANCH   1   5
HETATM    5  C6  UNL     1      33.547  60.534  10.596  1.00  0.00     0.742 A 
HETATM    6  N3  UNL     1      33.350  61.864  10.513  1.00  0.00    -0.051 N 
HETATM    7  C5  UNL     1      33.912  62.636   9.598  1.00  0.00     0.299 A 
HETATM    8  C3  UNL     1      34.775  62.056   8.641  1.00  0.00     0.123 A 
HETATM    9  O2  UNL     1      33.698  63.873   9.562  1.00  0.00    -0.264 OA
HETATM   10  C2  UNL     1      34.962  60.727   8.739  1.00  0.00     0.137 A 
HETATM   11  N7  UNL     1      34.350  59.963   9.712  1.00  0.00    -0.042 N 
BRANCH   6  12
HETATM   12  N4  UNL     1      32.488  62.479  11.461  1.00  0.00    -0.321 N 
ATOM     13  H42 UNL     1      32.860  63.238  12.032  1.00  0.00     0.178 HD
ATOM     14  H41 UNL     1      31.530  62.134  11.529  1.00  0.00     0.178 HD
ENDBRANCH   6  12
BRANCH   8  15
HETATM   15  C4  UNL     1      35.316  62.926   7.641  1.00  0.00     0.173 C 
BRANCH  15  16
HETATM   16  O1  UNL     1      34.777  62.931   6.451  1.00  0.00    -0.344 OA
ATOM     17  H1  UNL     1      35.316  63.167   5.704  1.00  0.00     0.219 HD
ENDBRANCH  15  16
BRANCH  15  18
HETATM   18  N1  UNL     1      36.395  63.793   7.814  1.00  0.00    -0.286 N 
ATOM     19  H1  UNL     1      36.243  64.777   8.035  1.00  0.00     0.188 HD
BRANCH  18  20
HETATM   20  N2  UNL     1      37.722  63.268   7.674  1.00  0.00    -0.343 N 
ATOM     21  H22 UNL     1      38.080  62.604   8.359  1.00  0.00     0.176 HD
ATOM     22  H21 UNL     1      38.286  63.577   6.881  1.00  0.00     0.176 HD
ENDBRANCH  18  20
ENDBRANCH  15  18
ENDBRANCH   8  15
BRANCH  10  23
HETATM   23  S1  UNL     1      36.072  59.868   7.650  1.00  0.00    -0.113 SA
HETATM   24  C1  UNL     1      35.062  59.050   6.374  1.00  0.00     0.097 C 
ENDBRANCH  10  23
BRANCH  11  25
HETATM   25  O3  UNL     1      34.611  58.618   9.718  1.00  0.00    -0.268 OA
ATOM     26  H3  UNL     1      33.925  58.039  10.032  1.00  0.00     0.246 HD
ENDBRANCH  11  25
ENDBRANCH   1   5
TORSDOF 8
ENDMDL
MODEL 2
REMARK VINA RESULT: -7.012470873      1.810      3.084
REMARK  8 active torsions:
REMARK  status: ('A' for Active; 'I' for Inactive)
REMARK    1  A    between atoms: S1_2  and  C2_3 
REMARK    2  A    between atoms: C3_4  and  C4_5 
REMARK    3  A    between atoms: C4_5  and  O1_6 
REMARK    4  A    between atoms: C4_5  and  N1_8 
REMARK    5  A    between atoms: N1_8  and  N2_10 
REMARK    6  A    between atoms: N3_15  and  N4_16 
REMARK    7  A    between atoms: C6_19  and  N5_20 
REMARK    8  A    between atoms: N7_24  and  O3_25 
ROOT
HETATM    1  N5  UNL     1      33.475  59.607  11.143  1.00  0.00    -0.122 N 
ATOM      2  H5  UNL     1      32.893  58.841  10.803  1.00  0.00     0.197 HD
HETATM    3  C7  UNL     1      33.774  59.630  12.484  1.00  0.00     0.196 C 
HETATM    4  N6  UNL     1      34.015  59.625  13.641  1.00  0.00    -0.171 NA
ENDROOT
BRANCH   1   5
HETATM    5  C6  UNL     1      33.862  60.455  10.306  1.00  0.00     0.742 A 
HETATM    6  N3  UNL     1      34.703  60.050   9.334  1.00  0.00    -0.051 N 
HETATM    7  C5  UNL     1      35.182  60.848   8.394  1.00  0.00     0.299 A 
HETATM    8  C3  UNL     1      34.804  62.210   8.387  1.00  0.00     0.123 A 
HETATM    9  O2  UNL     1      35.964  60.423   7.509  1.00  0.00    -0.264 OA
HETATM   10  C2  UNL     1      33.964  62.598   9.362  1.00  0.00     0.137 A 
HETATM   11  N7  UNL     1      33.491  61.726  10.323  1.00  0.00    -0.042 N 
BRANCH   6  12
HETATM   12  N4  UNL     1      35.102  58.686   9.313  1.00  0.00    -0.321 N 
ATOM     13  H42 UNL     1      35.614  58.344   8.500  1.00  0.00     0.178 HD
ATOM     14  H41 UNL     1      34.860  58.106  10.116  1.00  0.00     0.178 HD
ENDBRANCH   6  12
BRANCH   8  15
HETATM   15  C4  UNL     1      35.392  63.042   7.381  1.00  0.00     0.173 C 
BRANCH  15  16
HETATM   16  O1  UNL     1      34.796  63.149   6.223  1.00  0.00    -0.344 OA
ATOM     17  H1  UNL     1      33.870  62.946   6.163  1.00  0.00     0.219 HD
ENDBRANCH  15  16
BRANCH  15  18
HETATM   18  N1  UNL     1      36.575  63.768   7.514  1.00  0.00    -0.286 N 
ATOM     19  H1  UNL     1      36.567  64.788   7.484  1.00  0.00     0.188 HD
BRANCH  18  20
HETATM   20  N2  UNL     1      37.802  63.049   7.696  1.00  0.00    -0.343 N 
ATOM     21  H22 UNL     1      38.540  63.121   6.996  1.00  0.00     0.176 HD
ATOM     22  H21 UNL     1      37.909  62.473   8.531  1.00  0.00     0.176 HD
ENDBRANCH  18  20
ENDBRANCH  15  18
ENDBRANCH   8  15
BRANCH  10  23
HETATM   23  S1  UNL     1      33.346  64.262   9.443  1.00  0.00    -0.113 SA
HETATM   24  C1  UNL     1      34.764  65.356   9.776  1.00  0.00     0.097 C 
ENDBRANCH  10  23
BRANCH  11  25
HETATM   25  O3  UNL     1      32.640  62.229  11.272  1.00  0.00    -0.268 OA
ATOM     26  H3  UNL     1      31.762  62.463  10.994  1.00  0.00     0.246 HD
ENDBRANCH  11  25
ENDBRANCH   1   5
TORSDOF 8
ENDMDL
MODEL 3
REMARK VINA RESULT: -6.994074526      2.278      4.792
REMARK  8 active torsions:
REMARK  status: ('A' for Active; 'I' for Inactive)
REMARK    1  A    between atoms: S1_2  and  C2_3 
REMARK    2  A    between atoms: C3_4  and  C4_5 
REMARK    3  A    between atoms: C4_5  and  O1_6 
REMARK    4  A    between atoms: C4_5  and  N1_8 
REMARK    5  A    between atoms: N1_8  and  N2_10 
REMARK    6  A    between atoms: N3_15  and  N4_16 
REMARK    7  A    between atoms: C6_19  and  N5_20 
REMARK    8  A    between atoms: N7_24  and  O3_25 
ROOT
HETATM    1  N5  UNL     1      33.918  64.563   9.567  1.00  0.00    -0.122 N 
ATOM      2  H5  UNL     1      33.796  64.899  10.522  1.00  0.00     0.197 HD
HETATM    3  C7  UNL     1      33.786  65.479   8.550  1.00  0.00     0.196 C 
HETATM    4  N6  UNL     1      33.669  66.288   7.697  1.00  0.00    -0.171 NA
ENDROOT
BRANCH   1   5
HETATM    5  C6  UNL     1      34.175  63.347   9.410  1.00  0.00     0.742 A 
HETATM    6  N3  UNL     1      35.089  63.006   8.480  1.00  0.00    -0.051 N 
HETATM    7  C5  UNL     1      35.445  61.759   8.221  1.00  0.00     0.299 A 
HETATM    8  C3  UNL     1      34.846  60.704   8.948  1.00  0.00     0.123 A 
HETATM    9  O2  UNL     1      36.302  61.491   7.344  1.00  0.00    -0.264 OA
HETATM   10  C2  UNL     1      33.937  61.062   9.872  1.00  0.00     0.137 A 
HETATM   11  N7  UNL     1      33.598  62.379  10.106  1.00  0.00    -0.042 N 
BRANCH   6  12
HETATM   12  N4  UNL     1      35.709  64.043   7.733  1.00  0.00    -0.321 N 
ATOM     13  H42 UNL     1      36.375  64.650   8.209  1.00  0.00     0.178 HD
ATOM     14  H41 UNL     1      35.461  64.134   6.748  1.00  0.00     0.178 HD
ENDBRANCH   6  12
BRANCH   8  15
HETATM   15  C4  UNL     1      35.227  59.371   8.591  1.00  0.00     0.173 C 
BRANCH  15  16
HETATM   16  O1  UNL     1      36.074  58.732   9.354  1.00  0.00    -0.344 OA
ATOM     17  H1  UNL     1      36.989  58.987   9.339  1.00  0.00     0.219 HD
ENDBRANCH  15  16
BRANCH  15  18
HETATM   18  N1  UNL     1      34.776  58.666   7.476  1.00  0.00    -0.286 N 
ATOM     19  H1  UNL     1      33.960  58.056   7.539  1.00  0.00     0.188 HD
BRANCH  18  20
HETATM   20  N2  UNL     1      35.485  58.819   6.238  1.00  0.00    -0.343 N 
ATOM     21  H22 UNL     1      36.444  58.482   6.159  1.00  0.00     0.176 HD
ATOM     22  H21 UNL     1      35.007  59.266   5.456  1.00  0.00     0.176 HD
ENDBRANCH  18  20
ENDBRANCH  15  18
ENDBRANCH   8  15
BRANCH  10  23
HETATM   23  S1  UNL     1      33.151  59.854  10.911  1.00  0.00    -0.113 SA
HETATM   24  C1  UNL     1      34.228  59.594  12.357  1.00  0.00     0.097 C 
ENDBRANCH  10  23
BRANCH  11  25
HETATM   25  O3  UNL     1      32.658  62.630  11.071  1.00  0.00    -0.268 OA
ATOM     26  H3  UNL     1      31.751  62.436  10.862  1.00  0.00     0.246 HD
ENDBRANCH  11  25
ENDBRANCH   1   5
TORSDOF 8
ENDMDL
MODEL 4
REMARK VINA RESULT: -6.787180091      2.438      3.995
REMARK  8 active torsions:
REMARK  status: ('A' for Active; 'I' for Inactive)
REMARK    1  A    between atoms: S1_2  and  C2_3 
REMARK    2  A    between atoms: C3_4  and  C4_5 
REMARK    3  A    between atoms: C4_5  and  O1_6 
REMARK    4  A    between atoms: C4_5  and  N1_8 
REMARK    5  A    between atoms: N1_8  and  N2_10 
REMARK    6  A    between atoms: N3_15  and  N4_16 
REMARK    7  A    between atoms: C6_19  and  N5_20 
REMARK    8  A    between atoms: N7_24  and  O3_25 
ROOT
HETATM    1  N5  UNL     1      35.375  58.566   8.833  1.00  0.00    -0.122 N 
ATOM      2  H5  UNL     1      36.349  58.363   9.056  1.00  0.00     0.197 HD
HETATM    3  C7  UNL     1      34.638  57.567   8.242  1.00  0.00     0.196 C 
HETATM    4  N6  UNL     1      34.029  56.691   7.735  1.00  0.00    -0.171 NA
ENDROOT
BRANCH   1   5
HETATM    5  C6  UNL     1      34.941  59.706   9.118  1.00  0.00     0.742 A 
HETATM    6  N3  UNL     1      35.134  60.700   8.228  1.00  0.00    -0.051 N 
HETATM    7  C5  UNL     1      34.726  61.944   8.413  1.00  0.00     0.299 A 
HETATM    8  C3  UNL     1      34.044  62.276   9.607  1.00  0.00     0.123 A 
HETATM    9  O2  UNL     1      34.929  62.835   7.553  1.00  0.00    -0.264 OA
HETATM   10  C2  UNL     1      33.859  61.273  10.483  1.00  0.00     0.137 A 
HETATM   11  N7  UNL     1      34.306  59.989  10.245  1.00  0.00    -0.042 N 
BRANCH   6  12
HETATM   12  N4  UNL     1      35.816  60.398   7.018  1.00  0.00    -0.321 N 
ATOM     13  H42 UNL     1      36.093  61.171   6.413  1.00  0.00     0.178 HD
ATOM     14  H41 UNL     1      35.999  59.417   6.806  1.00  0.00     0.178 HD
ENDBRANCH   6  12
BRANCH   8  15
HETATM   15  C4  UNL     1      33.671  63.647   9.781  1.00  0.00     0.173 C 
BRANCH  15  16
HETATM   16  O1  UNL     1      32.411  63.939   9.972  1.00  0.00    -0.344 OA
ATOM     17  H1  UNL     1      32.191  64.697  10.500  1.00  0.00     0.219 HD
ENDBRANCH  15  16
BRANCH  15  18
HETATM   18  N1  UNL     1      34.541  64.736   9.762  1.00  0.00    -0.286 N 
ATOM     19  H1  UNL     1      35.270  64.834  10.470  1.00  0.00     0.188 HD
BRANCH  18  20
HETATM   20  N2  UNL     1      34.389  65.716   8.726  1.00  0.00    -0.343 N 
ATOM     21  H22 UNL     1      34.175  65.418   7.774  1.00  0.00     0.176 HD
ATOM     22  H21 UNL     1      34.500  66.701   8.967  1.00  0.00     0.176 HD
ENDBRANCH  18  20
ENDBRANCH  15  18
ENDBRANCH   8  15
BRANCH  10  23
HETATM   23  S1  UNL     1      32.960  61.522  11.995  1.00  0.00    -0.113 SA
HETATM   24  C1  UNL     1      31.296  60.819  11.763  1.00  0.00     0.097 C 
ENDBRANCH  10  23
BRANCH  11  25
HETATM   25  O3  UNL     1      34.064  59.045  11.208  1.00  0.00    -0.268 OA
ATOM     26  H3  UNL     1      34.532  58.221  11.142  1.00  0.00     0.246 HD
ENDBRANCH  11  25
ENDBRANCH   1   5
TORSDOF 8
ENDMDL
MODEL 5
REMARK VINA RESULT: -6.742989075      2.338      5.319
REMARK  8 active torsions:
REMARK  status: ('A' for Active; 'I' for Inactive)
REMARK    1  A    between atoms: S1_2  and  C2_3 
REMARK    2  A    between atoms: C3_4  and  C4_5 
REMARK    3  A    between atoms: C4_5  and  O1_6 
REMARK    4  A    between atoms: C4_5  and  N1_8 
REMARK    5  A    between atoms: N1_8  and  N2_10 
REMARK    6  A    between atoms: N3_15  and  N4_16 
REMARK    7  A    between atoms: C6_19  and  N5_20 
REMARK    8  A    between atoms: N7_24  and  O3_25 
ROOT
HETATM    1  N5  UNL     1      35.810  60.397   7.384  1.00  0.00    -0.122 N 
ATOM      2  H5  UNL     1      36.607  60.991   7.154  1.00  0.00     0.197 HD
HETATM    3  C7  UNL     1      35.578  59.307   6.580  1.00  0.00     0.196 C 
HETATM    4  N6  UNL     1      35.403  58.376   5.873  1.00  0.00    -0.171 NA
ENDROOT
BRANCH   1   5
HETATM    5  C6  UNL     1      35.117  60.718   8.377  1.00  0.00     0.742 A 
HETATM    6  N3  UNL     1      34.846  59.770   9.295  1.00  0.00    -0.051 N 
HETATM    7  C5  UNL     1      34.126  59.983  10.384  1.00  0.00     0.299 A 
HETATM    8  C3  UNL     1      33.600  61.274  10.622  1.00  0.00     0.123 A 
HETATM    9  O2  UNL     1      33.901  59.066  11.212  1.00  0.00    -0.264 OA
HETATM   10  C2  UNL     1      33.881  62.209   9.697  1.00  0.00     0.137 A 
HETATM   11  N7  UNL     1      34.636  61.936   8.574  1.00  0.00    -0.042 N 
BRANCH   6  12
HETATM   12  N4  UNL     1      35.361  58.462   9.086  1.00  0.00    -0.321 N 
ATOM     13  H42 UNL     1      36.348  58.294   9.280  1.00  0.00     0.178 HD
ATOM     14  H41 UNL     1      34.719  57.744   8.750  1.00  0.00     0.178 HD
ENDBRANCH   6  12
BRANCH   8  15
HETATM   15  C4  UNL     1      32.785  61.438  11.787  1.00  0.00     0.173 C 
BRANCH  15  16
HETATM   16  O1  UNL     1      31.521  61.734  11.636  1.00  0.00    -0.344 OA
ATOM     17  H1  UNL     1      31.172  61.822  10.757  1.00  0.00     0.219 HD
ENDBRANCH  15  16
BRANCH  15  18
HETATM   18  N1  UNL     1      33.217  61.314  13.107  1.00  0.00    -0.286 N 
ATOM     19  H1  UNL     1      33.848  62.005  13.516  1.00  0.00     0.188 HD
BRANCH  18  20
HETATM   20  N2  UNL     1      32.755  60.195  13.875  1.00  0.00    -0.343 N 
ATOM     21  H22 UNL     1      32.342  60.348  14.796  1.00  0.00     0.176 HD
ATOM     22  H21 UNL     1      32.852  59.260  13.479  1.00  0.00     0.176 HD
ENDBRANCH  18  20
ENDBRANCH  15  18
ENDBRANCH   8  15
BRANCH  10  23
HETATM   23  S1  UNL     1      33.347  63.892   9.892  1.00  0.00    -0.113 SA
HETATM   24  C1  UNL     1      34.716  64.965   9.353  1.00  0.00     0.097 C 
ENDBRANCH  10  23
BRANCH  11  25
HETATM   25  O3  UNL     1      34.860  62.964   7.696  1.00  0.00    -0.268 OA
ATOM     26  H3  UNL     1      34.203  63.649   7.646  1.00  0.00     0.246 HD
ENDBRANCH  11  25
ENDBRANCH   1   5
TORSDOF 8
ENDMDL
