MODEL 1
REMARK VINA RESULT: -6.342712442      0.000      0.000
REMARK  4 active torsions:
REMARK  status: ('A' for Active; 'I' for Inactive)
REMARK    1  A    between atoms: C1_2  and  N2_4 
REMARK    2  A    between atoms: N2_4  and  N3_6 
REMARK    3  A    between atoms: C2_8  and  C3_9 
REMARK    4  A    between atoms: C4_10  and  C5_11 
ROOT
HETATM    1  C3  UNL     1       9.676  32.448  37.639  1.00  0.00     0.021 C 
HETATM    2  C4  UNL     1       9.697  32.638  38.905  1.00  0.00     0.031 C 
ENDROOT
BRANCH   1   3
HETATM    3  C2  UNL     1      10.119  31.396  36.770  1.00  0.00     0.107 C 
HETATM    4  N3  UNL     1      11.089  31.715  35.926  1.00  0.00    -0.310 N 
ATOM      5  H3  UNL     1      11.486  32.654  35.907  1.00  0.00     0.186 HD
BRANCH   4   6
HETATM    6  N2  UNL     1      11.546  30.724  35.070  1.00  0.00    -0.279 N 
ATOM      7  H2  UNL     1      11.596  29.757  35.388  1.00  0.00     0.189 HD
BRANCH   6   8
HETATM    8  C1  UNL     1      11.937  31.058  33.764  1.00  0.00     0.199 C 
HETATM    9  N1  UNL     1      11.955  32.423  33.369  1.00  0.00    -0.068 NA
HETATM   10  S1  UNL     1      12.361  29.892  32.724  1.00  0.00    -0.043 SA
ENDBRANCH   6   8
ENDBRANCH   4   6
ENDBRANCH   1   3
BRANCH   2  11
HETATM   11  C5  UNL     1      10.173  31.887  40.023  1.00  0.00     0.031 A 
HETATM   12  C6  UNL     1      10.734  32.410  41.143  1.00  0.00     0.029 A 
HETATM   13  C7  UNL     1      11.192  31.632  42.228  1.00  0.00     0.004 A 
HETATM   14  C8  UNL     1      11.070  30.270  42.162  1.00  0.00     0.017 A 
HETATM   15  C9  UNL     1      10.499  29.754  41.022  1.00  0.00     0.088 A 
HETATM   16  N4  UNL     1      10.072  30.505  40.007  1.00  0.00    -0.366 N 
ATOM     17  H4  UNL     1       9.658  30.048  39.195  1.00  0.00     0.165 HD
ENDBRANCH   2  11
TORSDOF 4
ENDMDL
MODEL 2
REMARK VINA RESULT: -6.251784055      0.720      1.243
REMARK  4 active torsions:
REMARK  status: ('A' for Active; 'I' for Inactive)
REMARK    1  A    between atoms: C1_2  and  N2_4 
REMARK    2  A    between atoms: N2_4  and  N3_6 
REMARK    3  A    between atoms: C2_8  and  C3_9 
REMARK    4  A    between atoms: C4_10  and  C5_11 
ROOT
HETATM    1  C3  UNL     1       9.675  32.458  37.626  1.00  0.00     0.021 C 
HETATM    2  C4  UNL     1       9.700  32.628  38.894  1.00  0.00     0.031 C 
ENDROOT
BRANCH   1   3
HETATM    3  C2  UNL     1      10.101  31.413  36.740  1.00  0.00     0.107 C 
HETATM    4  N3  UNL     1      11.112  31.711  35.938  1.00  0.00    -0.310 N 
ATOM      5  H3  UNL     1      11.550  32.632  35.960  1.00  0.00     0.186 HD
BRANCH   4   6
HETATM    6  N2  UNL     1      11.553  30.726  35.068  1.00  0.00    -0.279 N 
ATOM      7  H2  UNL     1      11.595  29.755  35.374  1.00  0.00     0.189 HD
BRANCH   6   8
HETATM    8  C1  UNL     1      11.940  31.070  33.764  1.00  0.00     0.199 C 
HETATM    9  N1  UNL     1      11.956  32.439  33.380  1.00  0.00    -0.068 NA
HETATM   10  S1  UNL     1      12.361  29.913  32.712  1.00  0.00    -0.043 SA
ENDBRANCH   6   8
ENDBRANCH   4   6
ENDBRANCH   1   3
BRANCH   2  11
HETATM   11  C5  UNL     1      10.163  31.852  40.001  1.00  0.00     0.031 A 
HETATM   12  C6  UNL     1      10.073  30.502  40.108  1.00  0.00     0.029 A 
HETATM   13  C7  UNL     1      10.543  29.771  41.220  1.00  0.00     0.004 A 
HETATM   14  C8  UNL     1      11.125  30.449  42.259  1.00  0.00     0.017 A 
HETATM   15  C9  UNL     1      11.208  31.816  42.136  1.00  0.00     0.088 A 
HETATM   16  N4  UNL     1      10.759  32.489  41.077  1.00  0.00    -0.366 N 
ATOM     17  H4  UNL     1      10.858  33.504  41.058  1.00  0.00     0.165 HD
ENDBRANCH   2  11
TORSDOF 4
ENDMDL
MODEL 3
REMARK VINA RESULT: -6.219309812      1.047      1.215
REMARK  4 active torsions:
REMARK  status: ('A' for Active; 'I' for Inactive)
REMARK    1  A    between atoms: C1_2  and  N2_4 
REMARK    2  A    between atoms: N2_4  and  N3_6 
REMARK    3  A    between atoms: C2_8  and  C3_9 
REMARK    4  A    between atoms: C4_10  and  C5_11 
ROOT
HETATM    1  C3  UNL     1       9.053  30.641  37.766  1.00  0.00     0.021 C 
HETATM    2  C4  UNL     1       9.023  30.375  39.018  1.00  0.00     0.031 C 
ENDROOT
BRANCH   1   3
HETATM    3  C2  UNL     1       9.913  31.418  36.920  1.00  0.00     0.107 C 
HETATM    4  N3  UNL     1      10.717  30.729  36.125  1.00  0.00    -0.310 N 
ATOM      5  H3  UNL     1      10.714  29.709  36.126  1.00  0.00     0.186 HD
BRANCH   4   6
HETATM    6  N2  UNL     1      11.563  31.445  35.292  1.00  0.00    -0.279 N 
ATOM      7  H2  UNL     1      11.965  32.327  35.608  1.00  0.00     0.189 HD
BRANCH   6   8
HETATM    8  C1  UNL     1      11.864  30.952  34.014  1.00  0.00     0.199 C 
HETATM    9  N1  UNL     1      12.219  31.863  32.981  1.00  0.00    -0.068 NA
HETATM   10  S1  UNL     1      11.804  29.360  33.725  1.00  0.00    -0.043 SA
ENDBRANCH   6   8
ENDBRANCH   4   6
ENDBRANCH   1   3
BRANCH   2  11
HETATM   11  C5  UNL     1       9.835  30.733  40.138  1.00  0.00     0.031 A 
HETATM   12  C6  UNL     1      10.017  31.993  40.609  1.00  0.00     0.029 A 
HETATM   13  C7  UNL     1      10.829  32.305  41.721  1.00  0.00     0.004 A 
HETATM   14  C8  UNL     1      11.476  31.289  42.372  1.00  0.00     0.017 A 
HETATM   15  C9  UNL     1      11.282  30.018  41.884  1.00  0.00     0.088 A 
HETATM   16  N4  UNL     1      10.511  29.742  40.833  1.00  0.00    -0.366 N 
ATOM     17  H4  UNL     1      10.415  28.773  40.530  1.00  0.00     0.165 HD
ENDBRANCH   2  11
TORSDOF 4
ENDMDL
MODEL 4
REMARK VINA RESULT: -6.100958011      1.071      1.595
REMARK  4 active torsions:
REMARK  status: ('A' for Active; 'I' for Inactive)
REMARK    1  A    between atoms: C1_2  and  N2_4 
REMARK    2  A    between atoms: N2_4  and  N3_6 
REMARK    3  A    between atoms: C2_8  and  C3_9 
REMARK    4  A    between atoms: C4_10  and  C5_11 
ROOT
HETATM    1  C3  UNL     1       9.039  30.659  37.809  1.00  0.00     0.021 C 
HETATM    2  C4  UNL     1       9.008  30.370  39.056  1.00  0.00     0.031 C 
ENDROOT
BRANCH   1   3
HETATM    3  C2  UNL     1       9.905  31.445  36.978  1.00  0.00     0.107 C 
HETATM    4  N3  UNL     1      10.648  30.769  36.116  1.00  0.00    -0.310 N 
ATOM      5  H3  UNL     1      10.598  29.752  36.058  1.00  0.00     0.186 HD
BRANCH   4   6
HETATM    6  N2  UNL     1      11.498  31.494  35.294  1.00  0.00    -0.279 N 
ATOM      7  H2  UNL     1      11.846  32.404  35.595  1.00  0.00     0.189 HD
BRANCH   6   8
HETATM    8  C1  UNL     1      11.877  30.973  34.048  1.00  0.00     0.199 C 
HETATM    9  N1  UNL     1      12.187  31.864  32.985  1.00  0.00    -0.068 NA
HETATM   10  S1  UNL     1      11.955  29.370  33.831  1.00  0.00    -0.043 SA
ENDBRANCH   6   8
ENDBRANCH   4   6
ENDBRANCH   1   3
BRANCH   2  11
HETATM   11  C5  UNL     1       9.822  30.700  40.182  1.00  0.00     0.031 A 
HETATM   12  C6  UNL     1      10.506  29.811  40.947  1.00  0.00     0.029 A 
HETATM   13  C7  UNL     1      11.302  30.179  42.054  1.00  0.00     0.004 A 
HETATM   14  C8  UNL     1      11.399  31.503  42.387  1.00  0.00     0.017 A 
HETATM   15  C9  UNL     1      10.700  32.391  41.603  1.00  0.00     0.088 A 
HETATM   16  N4  UNL     1       9.954  32.026  40.561  1.00  0.00    -0.366 N 
ATOM     17  H4  UNL     1       9.466  32.744  40.027  1.00  0.00     0.165 HD
ENDBRANCH   2  11
TORSDOF 4
ENDMDL
MODEL 5
REMARK VINA RESULT: -6.014345178      1.391      1.736
REMARK  4 active torsions:
REMARK  status: ('A' for Active; 'I' for Inactive)
REMARK    1  A    between atoms: C1_2  and  N2_4 
REMARK    2  A    between atoms: N2_4  and  N3_6 
REMARK    3  A    between atoms: C2_8  and  C3_9 
REMARK    4  A    between atoms: C4_10  and  C5_11 
ROOT
HETATM    1  C3  UNL     1       8.907  30.337  37.602  1.00  0.00     0.021 C 
HETATM    2  C4  UNL     1       8.696  30.114  38.844  1.00  0.00     0.031 C 
ENDROOT
BRANCH   1   3
HETATM    3  C2  UNL     1       9.690  31.288  36.866  1.00  0.00     0.107 C 
HETATM    4  N3  UNL     1      10.736  30.798  36.218  1.00  0.00    -0.310 N 
ATOM      5  H3  UNL     1      10.959  29.803  36.250  1.00  0.00     0.186 HD
BRANCH   4   6
HETATM    6  N2  UNL     1      11.517  31.687  35.495  1.00  0.00    -0.279 N 
ATOM      7  H2  UNL     1      11.899  32.517  35.948  1.00  0.00     0.189 HD
BRANCH   6   8
HETATM    8  C1  UNL     1      11.780  31.441  34.140  1.00  0.00     0.199 C 
HETATM    9  N1  UNL     1      11.992  32.538  33.260  1.00  0.00    -0.068 NA
HETATM   10  S1  UNL     1      11.838  29.919  33.589  1.00  0.00    -0.043 SA
ENDBRANCH   6   8
ENDBRANCH   4   6
ENDBRANCH   1   3
BRANCH   2  11
HETATM   11  C5  UNL     1       9.146  30.714  40.061  1.00  0.00     0.031 A 
HETATM   12  C6  UNL     1       8.574  30.546  41.280  1.00  0.00     0.029 A 
HETATM   13  C7  UNL     1       9.050  31.158  42.460  1.00  0.00     0.004 A 
HETATM   14  C8  UNL     1      10.152  31.968  42.386  1.00  0.00     0.017 A 
HETATM   15  C9  UNL     1      10.720  32.128  41.144  1.00  0.00     0.088 A 
HETATM   16  N4  UNL     1      10.257  31.542  40.041  1.00  0.00    -0.366 N 
ATOM     17  H4  UNL     1      10.734  31.709  39.155  1.00  0.00     0.165 HD
ENDBRANCH   2  11
TORSDOF 4
ENDMDL
