MODEL 1
REMARK VINA RESULT: -6.465516757      0.000      0.000
REMARK  4 active torsions:
REMARK  status: ('A' for Active; 'I' for Inactive)
REMARK    1  A    between atoms: C6_7  and  N2_8 
REMARK    2  A    between atoms: N2_8  and  C7_10 
REMARK    3  A    between atoms: C7_10  and  C8_11 
REMARK    4  A    between atoms: C8_11  and  C9_12 
ROOT
HETATM    1  N1  UNL     1      13.769  30.798  31.035  1.00  0.00    -0.190 NA
HETATM    2  C1  UNL     1      12.961  30.443  31.793  1.00  0.00     0.117 C 
HETATM    3  C2  UNL     1      11.972  30.007  32.742  1.00  0.00     0.115 A 
HETATM    4  C3  UNL     1      11.090  28.999  32.414  1.00  0.00     0.041 A 
HETATM    5  C4  UNL     1      10.144  28.572  33.303  1.00  0.00     0.007 A 
HETATM    6  C5  UNL     1      10.044  29.143  34.568  1.00  0.00     0.048 A 
HETATM    7  C6  UNL     1      10.947  30.147  34.849  1.00  0.00     0.101 A 
HETATM    8  N5  UNL     1      11.877  30.567  33.975  1.00  0.00    -0.334 N 
ATOM      9  H5  UNL     1      12.518  31.315  34.240  1.00  0.00     0.168 HD
ENDROOT
BRANCH   7  10
HETATM   10  N2  UNL     1      10.901  30.711  36.002  1.00  0.00    -0.376 N 
ATOM     11  H2  UNL     1      11.748  31.129  36.386  1.00  0.00     0.161 HD
BRANCH  10  12
HETATM   12  C7  UNL     1       9.682  30.766  36.766  1.00  0.00     0.127 C 
BRANCH  12  13
HETATM   13  C8  UNL     1       9.606  32.142  37.438  1.00  0.00     0.078 C 
BRANCH  13  14
HETATM   14  C9  UNL     1       9.928  31.948  38.874  1.00  0.00     0.027 A 
HETATM   15  C10 UNL     1       9.993  30.787  39.628  1.00  0.00     0.114 A 
HETATM   16  N3  UNL     1      10.322  31.086  40.895  1.00  0.00    -0.360 N 
HETATM   17  C11 UNL     1      10.469  32.419  40.960  1.00  0.00     0.180 A 
ATOM     18  H3  UNL     1      10.438  30.424  41.664  1.00  0.00     0.166 HD
HETATM   19  N4  UNL     1      10.229  32.933  39.729  1.00  0.00    -0.355 N 
ATOM     20  H4  UNL     1      10.271  33.923  39.491  1.00  0.00     0.166 HD
ENDBRANCH  13  14
ENDBRANCH  12  13
ENDBRANCH  10  12
ENDBRANCH   7  10
TORSDOF 4
ENDMDL
MODEL 2
REMARK VINA RESULT: -6.437923595      1.269      7.027
REMARK  4 active torsions:
REMARK  status: ('A' for Active; 'I' for Inactive)
REMARK    1  A    between atoms: C6_7  and  N2_8 
REMARK    2  A    between atoms: N2_8  and  C7_10 
REMARK    3  A    between atoms: C7_10  and  C8_11 
REMARK    4  A    between atoms: C8_11  and  C9_12 
ROOT
HETATM    1  N1  UNL     1      10.675  32.968  40.211  1.00  0.00    -0.190 NA
HETATM    2  C1  UNL     1      10.368  32.286  39.319  1.00  0.00     0.117 C 
HETATM    3  C2  UNL     1       9.996  31.452  38.207  1.00  0.00     0.115 A 
HETATM    4  C3  UNL     1       8.863  30.669  38.275  1.00  0.00     0.041 A 
HETATM    5  C4  UNL     1       8.494  29.871  37.229  1.00  0.00     0.007 A 
HETATM    6  C5  UNL     1       9.252  29.828  36.063  1.00  0.00     0.048 A 
HETATM    7  C6  UNL     1      10.374  30.629  36.043  1.00  0.00     0.101 A 
HETATM    8  N5  UNL     1      10.737  31.413  37.072  1.00  0.00    -0.334 N 
ATOM      9  H5  UNL     1      11.579  31.984  36.999  1.00  0.00     0.168 HD
ENDROOT
BRANCH   7  10
HETATM   10  N2  UNL     1      11.111  30.629  34.991  1.00  0.00    -0.376 N 
ATOM     11  H2  UNL     1      11.698  31.440  34.795  1.00  0.00     0.161 HD
BRANCH  10  12
HETATM   12  C7  UNL     1      11.130  29.513  34.083  1.00  0.00     0.127 C 
BRANCH  12  13
HETATM   13  C8  UNL     1      12.592  29.202  33.744  1.00  0.00     0.078 C 
BRANCH  13  14
HETATM   14  C9  UNL     1      12.784  29.512  32.305  1.00  0.00     0.027 A 
HETATM   15  C10 UNL     1      12.002  29.190  31.207  1.00  0.00     0.114 A 
HETATM   16  N3  UNL     1      12.563  29.678  30.089  1.00  0.00    -0.360 N 
HETATM   17  C11 UNL     1      13.692  30.307  30.457  1.00  0.00     0.180 A 
ATOM     18  H3  UNL     1      12.201  29.588  29.139  1.00  0.00     0.166 HD
HETATM   19  N4  UNL     1      13.816  30.201  31.802  1.00  0.00    -0.355 N 
ATOM     20  H4  UNL     1      14.584  30.589  32.351  1.00  0.00     0.166 HD
ENDBRANCH  13  14
ENDBRANCH  12  13
ENDBRANCH  10  12
ENDBRANCH   7  10
TORSDOF 4
ENDMDL
MODEL 3
REMARK VINA RESULT: -6.353996600      1.377      7.151
REMARK  4 active torsions:
REMARK  status: ('A' for Active; 'I' for Inactive)
REMARK    1  A    between atoms: C6_7  and  N2_8 
REMARK    2  A    between atoms: N2_8  and  C7_10 
REMARK    3  A    between atoms: C7_10  and  C8_11 
REMARK    4  A    between atoms: C8_11  and  C9_12 
ROOT
HETATM    1  N1  UNL     1      10.068  33.253  39.261  1.00  0.00    -0.190 NA
HETATM    2  C1  UNL     1       9.938  32.428  38.450  1.00  0.00     0.117 C 
HETATM    3  C2  UNL     1       9.787  31.416  37.438  1.00  0.00     0.115 A 
HETATM    4  C3  UNL     1       8.591  30.744  37.302  1.00  0.00     0.041 A 
HETATM    5  C4  UNL     1       8.429  29.780  36.347  1.00  0.00     0.007 A 
HETATM    6  C5  UNL     1       9.469  29.450  35.483  1.00  0.00     0.048 A 
HETATM    7  C6  UNL     1      10.645  30.150  35.659  1.00  0.00     0.101 A 
HETATM    8  N5  UNL     1      10.803  31.097  36.598  1.00  0.00    -0.334 N 
ATOM      9  H5  UNL     1      11.697  31.582  36.681  1.00  0.00     0.168 HD
ENDROOT
BRANCH   7  10
HETATM   10  N2  UNL     1      11.638  29.887  34.890  1.00  0.00    -0.376 N 
ATOM     11  H2  UNL     1      12.571  29.799  35.294  1.00  0.00     0.161 HD
BRANCH  10  12
HETATM   12  C7  UNL     1      11.468  29.712  33.471  1.00  0.00     0.127 C 
BRANCH  12  13
HETATM   13  C8  UNL     1      12.390  30.707  32.757  1.00  0.00     0.078 C 
BRANCH  13  14
HETATM   14  C9  UNL     1      12.825  30.071  31.488  1.00  0.00     0.027 A 
HETATM   15  C10 UNL     1      12.693  28.762  31.052  1.00  0.00     0.114 A 
HETATM   16  N3  UNL     1      13.237  28.632  29.831  1.00  0.00    -0.360 N 
HETATM   17  C11 UNL     1      13.713  29.839  29.482  1.00  0.00     0.180 A 
ATOM     18  H3  UNL     1      13.281  27.779  29.274  1.00  0.00     0.166 HD
HETATM   19  N4  UNL     1      13.457  30.704  30.493  1.00  0.00    -0.355 N 
ATOM     20  H4  UNL     1      13.711  31.692  30.495  1.00  0.00     0.166 HD
ENDBRANCH  13  14
ENDBRANCH  12  13
ENDBRANCH  10  12
ENDBRANCH   7  10
TORSDOF 4
ENDMDL
MODEL 4
REMARK VINA RESULT: -6.221857302      1.235      7.010
REMARK  4 active torsions:
REMARK  status: ('A' for Active; 'I' for Inactive)
REMARK    1  A    between atoms: C6_7  and  N2_8 
REMARK    2  A    between atoms: N2_8  and  C7_10 
REMARK    3  A    between atoms: C7_10  and  C8_11 
REMARK    4  A    between atoms: C8_11  and  C9_12 
ROOT
HETATM    1  N1  UNL     1      10.680  32.964  40.182  1.00  0.00    -0.190 NA
HETATM    2  C1  UNL     1      10.372  32.291  39.285  1.00  0.00     0.117 C 
HETATM    3  C2  UNL     1       9.997  31.468  38.166  1.00  0.00     0.115 A 
HETATM    4  C3  UNL     1       8.857  30.694  38.223  1.00  0.00     0.041 A 
HETATM    5  C4  UNL     1       8.486  29.906  37.169  1.00  0.00     0.007 A 
HETATM    6  C5  UNL     1       9.250  29.864  36.007  1.00  0.00     0.048 A 
HETATM    7  C6  UNL     1      10.380  30.654  35.998  1.00  0.00     0.101 A 
HETATM    8  N5  UNL     1      10.745  31.428  37.034  1.00  0.00    -0.334 N 
ATOM      9  H5  UNL     1      11.592  31.992  36.969  1.00  0.00     0.168 HD
ENDROOT
BRANCH   7  10
HETATM   10  N2  UNL     1      11.123  30.654  34.951  1.00  0.00    -0.376 N 
ATOM     11  H2  UNL     1      11.317  31.537  34.478  1.00  0.00     0.161 HD
BRANCH  10  12
HETATM   12  C7  UNL     1      11.688  29.439  34.427  1.00  0.00     0.127 C 
BRANCH  12  13
HETATM   13  C8  UNL     1      11.099  29.205  33.031  1.00  0.00     0.078 C 
BRANCH  13  14
HETATM   14  C9  UNL     1      12.169  29.505  32.047  1.00  0.00     0.027 A 
HETATM   15  C10 UNL     1      13.464  29.957  32.242  1.00  0.00     0.114 A 
HETATM   16  N3  UNL     1      14.083  30.092  31.058  1.00  0.00    -0.360 N 
HETATM   17  C11 UNL     1      13.202  29.731  30.110  1.00  0.00     0.180 A 
ATOM     18  H3  UNL     1      15.041  30.409  30.907  1.00  0.00     0.166 HD
HETATM   19  N4  UNL     1      12.045  29.377  30.720  1.00  0.00    -0.355 N 
ATOM     20  H4  UNL     1      11.204  29.059  30.239  1.00  0.00     0.166 HD
ENDBRANCH  13  14
ENDBRANCH  12  13
ENDBRANCH  10  12
ENDBRANCH   7  10
TORSDOF 4
ENDMDL
MODEL 5
REMARK VINA RESULT: -5.934582205      1.547      2.111
REMARK  4 active torsions:
REMARK  status: ('A' for Active; 'I' for Inactive)
REMARK    1  A    between atoms: C6_7  and  N2_8 
REMARK    2  A    between atoms: N2_8  and  C7_10 
REMARK    3  A    between atoms: C7_10  and  C8_11 
REMARK    4  A    between atoms: C8_11  and  C9_12 
ROOT
HETATM    1  N1  UNL     1      12.005  32.650  33.298  1.00  0.00    -0.190 NA
HETATM    2  C1  UNL     1      11.926  31.558  33.689  1.00  0.00     0.117 C 
HETATM    3  C2  UNL     1      11.829  30.211  34.187  1.00  0.00     0.115 A 
HETATM    4  C3  UNL     1      12.325  29.159  33.446  1.00  0.00     0.041 A 
HETATM    5  C4  UNL     1      12.241  27.874  33.903  1.00  0.00     0.007 A 
HETATM    6  C5  UNL     1      11.652  27.590  35.132  1.00  0.00     0.048 A 
HETATM    7  C6  UNL     1      11.172  28.675  35.835  1.00  0.00     0.101 A 
HETATM    8  N5  UNL     1      11.254  29.938  35.386  1.00  0.00    -0.334 N 
ATOM      9  H5  UNL     1      10.880  30.701  35.951  1.00  0.00     0.168 HD
ENDROOT
BRANCH   7  10
HETATM   10  N2  UNL     1      10.618  28.473  36.976  1.00  0.00    -0.376 N 
ATOM     11  H2  UNL     1      10.894  27.659  37.526  1.00  0.00     0.161 HD
BRANCH  10  12
HETATM   12  C7  UNL     1       9.618  29.367  37.498  1.00  0.00     0.127 C 
BRANCH  12  13
HETATM   13  C8  UNL     1       9.703  29.331  39.028  1.00  0.00     0.078 C 
BRANCH  13  14
HETATM   14  C9  UNL     1       9.945  30.722  39.487  1.00  0.00     0.027 A 
HETATM   15  C10 UNL     1       9.934  31.914  38.779  1.00  0.00     0.114 A 
HETATM   16  N3  UNL     1      10.210  32.936  39.604  1.00  0.00    -0.360 N 
HETATM   17  C11 UNL     1      10.398  32.415  40.828  1.00  0.00     0.180 A 
ATOM     18  H3  UNL     1      10.268  33.923  39.350  1.00  0.00     0.166 HD
HETATM   19  N4  UNL     1      10.234  31.072  40.746  1.00  0.00    -0.355 N 
ATOM     20  H4  UNL     1      10.319  30.424  41.529  1.00  0.00     0.166 HD
ENDBRANCH  13  14
ENDBRANCH  12  13
ENDBRANCH  10  12
ENDBRANCH   7  10
TORSDOF 4
ENDMDL
