MODEL 1
REMARK VINA RESULT: -7.494602195      0.000      0.000
REMARK  6 active torsions:
REMARK  status: ('A' for Active; 'I' for Inactive)
REMARK    1  A    between atoms: C4_4  and  N1_5 
REMARK    2  A    between atoms: N1_5  and  C5_6 
REMARK    3  A    between atoms: N1_5  and  S1_32 
REMARK    4  A    between atoms: C6_7  and  C7_8 
REMARK    5  A    between atoms: N2_9  and  O1_11 
REMARK    6  A    between atoms: C10_19  and  C11_20 
ROOT
HETATM    1  C1  UNL     1       4.983   4.771  19.951  1.00  0.00     0.017 C 
HETATM    2  C2  UNL     1       4.992   5.974  19.952  1.00  0.00    -0.088 C 
HETATM    3  C3  UNL     1       4.995   7.421  19.923  1.00  0.00     0.082 C 
HETATM    4  C4  UNL     1       5.076   8.112  21.182  1.00  0.00     0.118 C 
ENDROOT
BRANCH   4   5
HETATM    5  N1  UNL     1       6.122   8.177  22.125  1.00  0.00    -0.249 N 
BRANCH   5   6
HETATM    6  C5  UNL     1       6.004   8.174  23.530  1.00  0.00     0.076 A 
HETATM    7  C6  UNL     1       5.791   9.237  24.333  1.00  0.00     0.025 A 
HETATM    8  C8  UNL     1       5.599   8.930  25.705  1.00  0.00     0.105 A 
HETATM    9  N3  UNL     1       5.629   7.685  26.176  1.00  0.00    -0.351 N 
HETATM   10  C9  UNL     1       5.842   6.616  25.394  1.00  0.00     0.118 A 
ATOM     11  H3  UNL     1       5.484   7.538  27.174  1.00  0.00     0.166 HD
HETATM   12  N4  UNL     1       5.977   5.268  25.619  1.00  0.00    -0.344 N 
HETATM   13  C22 UNL     1       6.032   6.856  24.059  1.00  0.00     0.039 A 
HETATM   14  C10 UNL     1       6.250   4.635  24.462  1.00  0.00     0.020 A 
ATOM     15  H4  UNL     1       5.885   4.813  26.529  1.00  0.00     0.167 HD
HETATM   16  C21 UNL     1       6.280   5.641  23.499  1.00  0.00     0.043 A 
BRANCH   7  17
HETATM   17  C7  UNL     1       5.779  10.612  23.915  1.00  0.00     0.129 C 
HETATM   18  N2  UNL     1       5.911  11.597  24.627  1.00  0.00    -0.280 N 
ATOM     19  H2  UNL     1       6.038  11.343  25.606  1.00  0.00     0.193 HD
BRANCH  18  20
HETATM   20  O1  UNL     1       5.932  12.928  24.451  1.00  0.00    -0.290 OA
ATOM     21  H1  UNL     1       5.915  13.697  25.009  1.00  0.00     0.244 HD
ENDBRANCH  18  20
ENDBRANCH   7  17
BRANCH  14  22
HETATM   22  C11 UNL     1       6.541   3.185  24.209  1.00  0.00     0.003 C 
HETATM   23  C12 UNL     1       5.655   2.674  23.111  1.00  0.00     0.020 C 
HETATM   24  C13 UNL     1       5.786   1.198  22.922  1.00  0.00    -0.013 C 
HETATM   25  C14 UNL     1       5.398   0.481  24.212  1.00  0.00     0.009 C 
HETATM   26  C18 UNL     1       7.231   0.878  22.614  1.00  0.00     0.009 C 
HETATM   27  C15 UNL     1       6.319   0.964  25.289  1.00  0.00    -0.013 C 
HETATM   28  C16 UNL     1       7.786   0.717  24.974  1.00  0.00     0.009 C 
HETATM   29  C20 UNL     1       6.164   2.428  25.494  1.00  0.00     0.020 C 
HETATM   30  C17 UNL     1       8.120   1.410  23.693  1.00  0.00    -0.013 C 
HETATM   31  C19 UNL     1       7.970   2.924  23.846  1.00  0.00     0.020 C 
ENDBRANCH  14  22
ENDBRANCH   5   6
BRANCH   5  32
HETATM   32  S1  UNL     1       7.713   8.590  21.481  1.00  0.00     0.233 S 
HETATM   33  C23 UNL     1       7.552   9.940  20.284  1.00  0.00     0.186 C 
HETATM   34  O2  UNL     1       8.284   7.425  20.708  1.00  0.00    -0.206 OA
HETATM   35  O3  UNL     1       8.662   9.119  22.491  1.00  0.00    -0.206 OA
ENDBRANCH   5  32
ENDBRANCH   4   5
TORSDOF 6
ENDMDL
MODEL 2
REMARK VINA RESULT: -7.466544004      0.222      1.335
REMARK  6 active torsions:
REMARK  status: ('A' for Active; 'I' for Inactive)
REMARK    1  A    between atoms: C4_4  and  N1_5 
REMARK    2  A    between atoms: N1_5  and  C5_6 
REMARK    3  A    between atoms: N1_5  and  S1_32 
REMARK    4  A    between atoms: C6_7  and  C7_8 
REMARK    5  A    between atoms: N2_9  and  O1_11 
REMARK    6  A    between atoms: C10_19  and  C11_20 
ROOT
HETATM    1  C1  UNL     1       4.966   4.835  19.860  1.00  0.00     0.017 C 
HETATM    2  C2  UNL     1       4.959   6.037  19.905  1.00  0.00    -0.088 C 
HETATM    3  C3  UNL     1       4.944   7.484  19.928  1.00  0.00     0.082 C 
HETATM    4  C4  UNL     1       5.037   8.131  21.209  1.00  0.00     0.118 C 
ENDROOT
BRANCH   4   5
HETATM    5  N1  UNL     1       6.097   8.175  22.137  1.00  0.00    -0.249 N 
BRANCH   5   6
HETATM    6  C5  UNL     1       5.998   8.166  23.545  1.00  0.00     0.076 A 
HETATM    7  C6  UNL     1       5.798   9.225  24.356  1.00  0.00     0.025 A 
HETATM    8  C8  UNL     1       5.625   8.912  25.728  1.00  0.00     0.105 A 
HETATM    9  N3  UNL     1       5.661   7.664  26.192  1.00  0.00    -0.351 N 
HETATM   10  C9  UNL     1       5.862   6.599  25.403  1.00  0.00     0.118 A 
ATOM     11  H3  UNL     1       5.530   7.512  27.193  1.00  0.00     0.166 HD
HETATM   12  N4  UNL     1       6.000   5.249  25.620  1.00  0.00    -0.344 N 
HETATM   13  C22 UNL     1       6.033   6.846  24.066  1.00  0.00     0.039 A 
HETATM   14  C10 UNL     1       6.256   4.622  24.455  1.00  0.00     0.020 A 
ATOM     15  H4  UNL     1       5.920   4.790  26.528  1.00  0.00     0.167 HD
HETATM   16  C21 UNL     1       6.273   5.633  23.497  1.00  0.00     0.043 A 
BRANCH   7  17
HETATM   17  C7  UNL     1       5.780  10.602  23.945  1.00  0.00     0.129 C 
HETATM   18  N2  UNL     1       5.920  11.584  24.660  1.00  0.00    -0.280 N 
ATOM     19  H2  UNL     1       6.057  11.325  25.636  1.00  0.00     0.193 HD
BRANCH  18  20
HETATM   20  O1  UNL     1       5.939  12.916  24.490  1.00  0.00    -0.290 OA
ATOM     21  H1  UNL     1       6.123  13.676  25.029  1.00  0.00     0.244 HD
ENDBRANCH  18  20
ENDBRANCH   7  17
BRANCH  14  22
HETATM   22  C11 UNL     1       6.543   3.173  24.191  1.00  0.00     0.003 C 
HETATM   23  C12 UNL     1       7.972   3.009  23.766  1.00  0.00     0.020 C 
HETATM   24  C13 UNL     1       8.275   1.610  23.337  1.00  0.00    -0.013 C 
HETATM   25  C14 UNL     1       7.386   1.235  22.155  1.00  0.00     0.009 C 
HETATM   26  C18 UNL     1       7.964   0.676  24.483  1.00  0.00     0.009 C 
HETATM   27  C15 UNL     1       5.963   1.358  22.605  1.00  0.00    -0.013 C 
HETATM   28  C16 UNL     1       5.640   0.479  23.803  1.00  0.00     0.009 C 
HETATM   29  C20 UNL     1       5.659   2.756  23.004  1.00  0.00     0.020 C 
HETATM   30  C17 UNL     1       6.548   0.857  24.928  1.00  0.00    -0.013 C 
HETATM   31  C19 UNL     1       6.280   2.295  25.375  1.00  0.00     0.020 C 
ENDBRANCH  14  22
ENDBRANCH   5   6
BRANCH   5  32
HETATM   32  S1  UNL     1       7.684   8.571  21.474  1.00  0.00     0.233 S 
HETATM   33  C23 UNL     1       7.520   9.908  20.264  1.00  0.00     0.186 C 
HETATM   34  O2  UNL     1       8.240   7.393  20.708  1.00  0.00    -0.206 OA
HETATM   35  O3  UNL     1       8.646   9.104  22.468  1.00  0.00    -0.206 OA
ENDBRANCH   5  32
ENDBRANCH   4   5
TORSDOF 6
ENDMDL
MODEL 3
REMARK VINA RESULT: -7.465642086      0.139      1.322
REMARK  6 active torsions:
REMARK  status: ('A' for Active; 'I' for Inactive)
REMARK    1  A    between atoms: C4_4  and  N1_5 
REMARK    2  A    between atoms: N1_5  and  C5_6 
REMARK    3  A    between atoms: N1_5  and  S1_32 
REMARK    4  A    between atoms: C6_7  and  C7_8 
REMARK    5  A    between atoms: N2_9  and  O1_11 
REMARK    6  A    between atoms: C10_19  and  C11_20 
ROOT
HETATM    1  C1  UNL     1       4.954   4.797  19.885  1.00  0.00     0.017 C 
HETATM    2  C2  UNL     1       4.955   5.999  19.911  1.00  0.00    -0.088 C 
HETATM    3  C3  UNL     1       4.949   7.447  19.911  1.00  0.00     0.082 C 
HETATM    4  C4  UNL     1       5.036   8.113  21.183  1.00  0.00     0.118 C 
ENDROOT
BRANCH   4   5
HETATM    5  N1  UNL     1       6.089   8.165  22.118  1.00  0.00    -0.249 N 
BRANCH   5   6
HETATM    6  C5  UNL     1       5.981   8.156  23.525  1.00  0.00     0.076 A 
HETATM    7  C6  UNL     1       5.801   9.218  24.337  1.00  0.00     0.025 A 
HETATM    8  C8  UNL     1       5.611   8.906  25.707  1.00  0.00     0.105 A 
HETATM    9  N3  UNL     1       5.615   7.657  26.169  1.00  0.00    -0.351 N 
HETATM   10  C9  UNL     1       5.796   6.589  25.379  1.00  0.00     0.118 A 
ATOM     11  H3  UNL     1       5.474   7.507  27.168  1.00  0.00     0.166 HD
HETATM   12  N4  UNL     1       5.900   5.236  25.594  1.00  0.00    -0.344 N 
HETATM   13  C22 UNL     1       5.982   6.834  24.044  1.00  0.00     0.039 A 
HETATM   14  C10 UNL     1       6.150   4.605  24.430  1.00  0.00     0.020 A 
ATOM     15  H4  UNL     1       5.804   4.778  26.501  1.00  0.00     0.167 HD
HETATM   16  C21 UNL     1       6.196   5.617  23.474  1.00  0.00     0.043 A 
BRANCH   7  17
HETATM   17  C7  UNL     1       5.818  10.596  23.928  1.00  0.00     0.129 C 
HETATM   18  N2  UNL     1       5.922  11.575  24.652  1.00  0.00    -0.280 N 
ATOM     19  H2  UNL     1       5.999  11.313  25.635  1.00  0.00     0.193 HD
BRANCH  18  20
HETATM   20  O1  UNL     1       5.961  12.907  24.487  1.00  0.00    -0.290 OA
ATOM     21  H1  UNL     1       6.516  13.621  24.778  1.00  0.00     0.244 HD
ENDBRANCH  18  20
ENDBRANCH   7  17
BRANCH  14  22
HETATM   22  C11 UNL     1       6.404   3.150  24.165  1.00  0.00     0.003 C 
HETATM   23  C12 UNL     1       6.110   2.352  25.402  1.00  0.00     0.020 C 
HETATM   24  C13 UNL     1       6.496   0.916  25.250  1.00  0.00    -0.013 C 
HETATM   25  C14 UNL     1       7.992   0.816  24.968  1.00  0.00     0.009 C 
HETATM   26  C18 UNL     1       5.748   0.339  24.070  1.00  0.00     0.009 C 
HETATM   27  C15 UNL     1       8.265   1.577  23.708  1.00  0.00    -0.013 C 
HETATM   28  C16 UNL     1       7.472   1.061  22.517  1.00  0.00     0.009 C 
HETATM   29  C20 UNL     1       7.907   3.010  23.873  1.00  0.00     0.020 C 
HETATM   30  C17 UNL     1       6.016   1.149  22.841  1.00  0.00    -0.013 C 
HETATM   31  C19 UNL     1       5.595   2.607  23.029  1.00  0.00     0.020 C 
ENDBRANCH  14  22
ENDBRANCH   5   6
BRANCH   5  32
HETATM   32  S1  UNL     1       7.678   8.572  21.465  1.00  0.00     0.233 S 
HETATM   33  C23 UNL     1       7.518   9.931  20.279  1.00  0.00     0.186 C 
HETATM   34  O2  UNL     1       8.235   7.408  20.680  1.00  0.00    -0.206 OA
HETATM   35  O3  UNL     1       8.638   9.087  22.471  1.00  0.00    -0.206 OA
ENDBRANCH   5  32
ENDBRANCH   4   5
TORSDOF 6
ENDMDL
MODEL 4
REMARK VINA RESULT: -7.419950148      3.824      9.002
REMARK  6 active torsions:
REMARK  status: ('A' for Active; 'I' for Inactive)
REMARK    1  A    between atoms: C4_4  and  N1_5 
REMARK    2  A    between atoms: N1_5  and  C5_6 
REMARK    3  A    between atoms: N1_5  and  S1_32 
REMARK    4  A    between atoms: C6_7  and  C7_8 
REMARK    5  A    between atoms: N2_9  and  O1_11 
REMARK    6  A    between atoms: C10_19  and  C11_20 
ROOT
HETATM    1  C1  UNL     1       8.178   4.860  20.685  1.00  0.00     0.017 C 
HETATM    2  C2  UNL     1       8.382   6.038  20.556  1.00  0.00    -0.088 C 
HETATM    3  C3  UNL     1       8.659   7.451  20.407  1.00  0.00     0.082 C 
HETATM    4  C4  UNL     1       7.618   8.278  19.859  1.00  0.00     0.118 C 
ENDROOT
BRANCH   4   5
HETATM    5  N1  UNL     1       6.358   8.630  20.382  1.00  0.00    -0.249 N 
BRANCH   5   6
HETATM    6  C5  UNL     1       6.054   8.981  21.714  1.00  0.00     0.076 A 
HETATM    7  C6  UNL     1       5.686   8.152  22.713  1.00  0.00     0.025 A 
HETATM    8  C8  UNL     1       5.554   8.762  23.987  1.00  0.00     0.105 A 
HETATM    9  N3  UNL     1       5.770  10.060  24.190  1.00  0.00    -0.351 N 
HETATM   10  C9  UNL     1       6.133  10.901  23.210  1.00  0.00     0.118 A 
ATOM     11  H3  UNL     1       5.654  10.432  25.133  1.00  0.00     0.166 HD
HETATM   12  N4  UNL     1       6.357  12.253  23.133  1.00  0.00    -0.344 N 
HETATM   13  C22 UNL     1       6.278  10.362  21.959  1.00  0.00     0.039 A 
HETATM   14  C10 UNL     1       6.642  12.599  21.861  1.00  0.00     0.020 A 
ATOM     15  H4  UNL     1       6.314  12.901  23.920  1.00  0.00     0.167 HD
HETATM   16  C21 UNL     1       6.588  11.406  21.143  1.00  0.00     0.043 A 
BRANCH   7  17
HETATM   17  C7  UNL     1       5.400   6.751  22.575  1.00  0.00     0.129 C 
HETATM   18  N2  UNL     1       4.677   6.228  21.738  1.00  0.00    -0.280 N 
ATOM     19  H2  UNL     1       4.268   6.917  21.107  1.00  0.00     0.193 HD
BRANCH  18  20
HETATM   20  O1  UNL     1       4.284   4.980  21.436  1.00  0.00    -0.290 OA
ATOM     21  H1  UNL     1       3.895   4.543  20.688  1.00  0.00     0.244 HD
ENDBRANCH  18  20
ENDBRANCH   7  17
BRANCH  14  22
HETATM   22  C11 UNL     1       6.896  13.955  21.272  1.00  0.00     0.003 C 
HETATM   23  C12 UNL     1       6.156  14.089  19.973  1.00  0.00     0.020 C 
HETATM   24  C13 UNL     1       6.496  15.358  19.261  1.00  0.00    -0.013 C 
HETATM   25  C14 UNL     1       7.991  15.389  18.957  1.00  0.00     0.009 C 
HETATM   26  C18 UNL     1       6.168  16.522  20.167  1.00  0.00     0.009 C 
HETATM   27  C15 UNL     1       8.717  15.301  20.264  1.00  0.00    -0.013 C 
HETATM   28  C16 UNL     1       8.354  16.423  21.223  1.00  0.00     0.009 C 
HETATM   29  C20 UNL     1       8.399  14.025  20.955  1.00  0.00     0.020 C 
HETATM   30  C17 UNL     1       6.882  16.377  21.474  1.00  0.00    -0.013 C 
HETATM   31  C19 UNL     1       6.497  15.076  22.180  1.00  0.00     0.020 C 
ENDBRANCH  14  22
ENDBRANCH   5   6
BRANCH   5  32
HETATM   32  S1  UNL     1       4.975   8.321  19.328  1.00  0.00     0.233 S 
HETATM   33  C23 UNL     1       5.144   9.290  17.807  1.00  0.00     0.186 C 
HETATM   34  O2  UNL     1       3.701   8.803  19.980  1.00  0.00    -0.206 OA
HETATM   35  O3  UNL     1       4.872   6.921  18.851  1.00  0.00    -0.206 OA
ENDBRANCH   5  32
ENDBRANCH   4   5
TORSDOF 6
ENDMDL
MODEL 5
REMARK VINA RESULT: -7.410429024      1.676      2.319
REMARK  6 active torsions:
REMARK  status: ('A' for Active; 'I' for Inactive)
REMARK    1  A    between atoms: C4_4  and  N1_5 
REMARK    2  A    between atoms: N1_5  and  C5_6 
REMARK    3  A    between atoms: N1_5  and  S1_32 
REMARK    4  A    between atoms: C6_7  and  C7_8 
REMARK    5  A    between atoms: N2_9  and  O1_11 
REMARK    6  A    between atoms: C10_19  and  C11_20 
ROOT
HETATM    1  C1  UNL     1       7.647   5.578  19.433  1.00  0.00     0.017 C 
HETATM    2  C2  UNL     1       8.074   6.455  20.137  1.00  0.00    -0.088 C 
HETATM    3  C3  UNL     1       8.616   7.496  20.984  1.00  0.00     0.082 C 
HETATM    4  C4  UNL     1       7.795   8.652  21.226  1.00  0.00     0.118 C 
ENDROOT
BRANCH   4   5
HETATM    5  N1  UNL     1       6.580   8.780  21.928  1.00  0.00    -0.249 N 
BRANCH   5   6
HETATM    6  C5  UNL     1       6.398   8.775  23.327  1.00  0.00     0.076 A 
HETATM    7  C6  UNL     1       6.213   9.842  24.130  1.00  0.00     0.025 A 
HETATM    8  C8  UNL     1       5.940   9.537  25.488  1.00  0.00     0.105 A 
HETATM    9  N3  UNL     1       5.876   8.289  25.948  1.00  0.00    -0.351 N 
HETATM   10  C9  UNL     1       6.060   7.214  25.166  1.00  0.00     0.118 A 
ATOM     11  H3  UNL     1       5.677   8.143  26.938  1.00  0.00     0.166 HD
HETATM   12  N4  UNL     1       6.105   5.859  25.383  1.00  0.00    -0.344 N 
HETATM   13  C22 UNL     1       6.324   7.453  23.843  1.00  0.00     0.039 A 
HETATM   14  C10 UNL     1       6.393   5.220  24.232  1.00  0.00     0.020 A 
ATOM     15  H4  UNL     1       5.945   5.404  26.283  1.00  0.00     0.167 HD
HETATM   16  C21 UNL     1       6.525   6.230  23.282  1.00  0.00     0.043 A 
BRANCH   7  17
HETATM   17  C7  UNL     1       6.300  11.219  23.726  1.00  0.00     0.129 C 
HETATM   18  N2  UNL     1       6.028  12.201  24.401  1.00  0.00    -0.280 N 
ATOM     19  H2  UNL     1       5.712  11.942  25.336  1.00  0.00     0.193 HD
BRANCH  18  20
HETATM   20  O1  UNL     1       6.038  13.533  24.229  1.00  0.00    -0.290 OA
ATOM     21  H1  UNL     1       6.604  14.255  24.478  1.00  0.00     0.244 HD
ENDBRANCH  18  20
ENDBRANCH   7  17
BRANCH  14  22
HETATM   22  C11 UNL     1       6.609   3.757  23.979  1.00  0.00     0.003 C 
HETATM   23  C12 UNL     1       8.033   3.519  23.571  1.00  0.00     0.020 C 
HETATM   24  C13 UNL     1       8.270   2.104  23.151  1.00  0.00    -0.013 C 
HETATM   25  C14 UNL     1       7.376   1.768  21.960  1.00  0.00     0.009 C 
HETATM   26  C18 UNL     1       7.899   1.193  24.298  1.00  0.00     0.009 C 
HETATM   27  C15 UNL     1       5.956   1.965  22.394  1.00  0.00    -0.013 C 
HETATM   28  C16 UNL     1       5.576   1.110  23.592  1.00  0.00     0.009 C 
HETATM   29  C20 UNL     1       5.718   3.379  22.783  1.00  0.00     0.020 C 
HETATM   30  C17 UNL     1       6.488   1.447  24.726  1.00  0.00    -0.013 C 
HETATM   31  C19 UNL     1       6.289   2.899  25.163  1.00  0.00     0.020 C 
ENDBRANCH  14  22
ENDBRANCH   5   6
BRANCH   5  32
HETATM   32  S1  UNL     1       5.112   8.648  20.955  1.00  0.00     0.233 S 
HETATM   33  C23 UNL     1       5.492   9.039  19.228  1.00  0.00     0.186 C 
HETATM   34  O2  UNL     1       4.098   9.678  21.394  1.00  0.00    -0.206 OA
HETATM   35  O3  UNL     1       4.540   7.281  20.895  1.00  0.00    -0.206 OA
ENDBRANCH   5  32
ENDBRANCH   4   5
TORSDOF 6
ENDMDL
