MODEL 1
REMARK VINA RESULT: -8.762242403      0.000      0.000
REMARK  6 active torsions:
REMARK  status: ('A' for Active; 'I' for Inactive)
REMARK    1  A    between atoms: O1_2  and  C2_3 
REMARK    2  A    between atoms: C2_3  and  C3_4 
REMARK    3  A    between atoms: C3_4  and  C4_5 
REMARK    4  A    between atoms: C4_5  and  C5_6 
REMARK       I    between atoms: C5_6  and  N1_8 
REMARK    5  A    between atoms: N1_8  and  C6_10 
REMARK    6  A    between atoms: C6_10  and  C7_11 
ROOT
HETATM    1  C2  UNL     1       6.725   7.367  24.628  1.00  0.00     0.068 C 
HETATM    2  C10 UNL     1       5.403   7.622  25.322  1.00  0.00     0.039 C 
HETATM    3  C11 UNL     1       4.680   8.711  24.535  1.00  0.00     0.009 C 
HETATM    4  C12 UNL     1       5.714   9.162  23.548  1.00  0.00     0.002 C 
HETATM    5  C13 UNL     1       5.131   9.713  22.283  1.00  0.00     0.000 C 
HETATM    6  C14 UNL     1       5.904   9.434  21.041  1.00  0.00    -0.001 C 
HETATM    7  C15 UNL     1       7.306   9.032  21.232  1.00  0.00     0.007 C 
HETATM    8  C16 UNL     1       7.513   7.953  22.285  1.00  0.00     0.013 C 
HETATM    9  C17 UNL     1       6.386   7.827  23.234  1.00  0.00    -0.009 C 
HETATM   10  C18 UNL     1       5.347   6.883  22.660  1.00  0.00     0.019 C 
HETATM   11  C19 UNL     1       5.620  10.839  20.593  1.00  0.00    -0.035 C 
HETATM   12  C20 UNL     1       4.330  10.933  19.760  1.00  0.00     0.016 C 
HETATM   13  C21 UNL     1       6.692  11.614  19.959  1.00  0.00     0.017 C 
HETATM   14  C22 UNL     1       6.685  13.062  20.463  1.00  0.00     0.079 C 
HETATM   15  C23 UNL     1       6.886  13.078  21.927  1.00  0.00     0.127 C 
HETATM   16  O4  UNL     1       7.470  14.000  22.445  1.00  0.00    -0.298 OA
HETATM   17  C24 UNL     1       6.353  11.939  22.722  1.00  0.00     0.084 C 
HETATM   18  C25 UNL     1       5.301  11.178  22.025  1.00  0.00     0.006 C 
ENDROOT
BRANCH   1  19
HETATM   19  O1  UNL     1       7.239   6.155  24.676  1.00  0.00    -0.384 OA
HETATM   20  C1  UNL     1       6.912   5.042  25.258  1.00  0.00     0.202 C 
ENDBRANCH   1  19
BRANCH   1  21
HETATM   21  C3  UNL     1       7.817   8.268  25.255  1.00  0.00     0.048 C 
BRANCH  21  22
HETATM   22  C4  UNL     1       7.513   8.498  26.734  1.00  0.00     0.106 C 
BRANCH  22  23
HETATM   23  C5  UNL     1       8.613   7.910  27.526  1.00  0.00     0.217 C 
HETATM   24  O2  UNL     1       9.370   7.049  27.034  1.00  0.00    -0.274 OA
HETATM   25  N1  UNL     1       8.809   8.328  28.858  1.00  0.00    -0.357 N 
ATOM     26  H1  UNL     1       8.183   9.033  29.248  1.00  0.00     0.162 HD
BRANCH  25  27
HETATM   27  C6  UNL     1       9.867   7.795  29.700  1.00  0.00     0.183 C 
BRANCH  27  28
HETATM   28  C7  UNL     1       9.339   7.056  30.909  1.00  0.00     0.338 C 
HETATM   29  N2  UNL     1       7.891   6.978  30.739  1.00  0.00    -0.045 N 
HETATM   30  C8  UNL     1       7.549   5.804  31.481  1.00  0.00     0.261 C 
ATOM     31  H22 UNL     1       7.382   7.819  31.012  1.00  0.00     0.280 HD
ATOM     32  H21 UNL     1       7.573   6.979  29.770  1.00  0.00     0.280 HD
HETATM   33  C9  UNL     1       8.825   5.024  31.561  1.00  0.00     0.198 C 
HETATM   34  O3  UNL     1       9.774   5.732  30.824  1.00  0.00    -0.356 OA
ENDBRANCH  27  28
ENDBRANCH  25  27
ENDBRANCH  22  23
ENDBRANCH  21  22
ENDBRANCH   1  21
TORSDOF 6
ENDMDL
MODEL 2
REMARK VINA RESULT: -8.154691354      2.860      4.375
REMARK  6 active torsions:
REMARK  status: ('A' for Active; 'I' for Inactive)
REMARK    1  A    between atoms: O1_2  and  C2_3 
REMARK    2  A    between atoms: C2_3  and  C3_4 
REMARK    3  A    between atoms: C3_4  and  C4_5 
REMARK    4  A    between atoms: C4_5  and  C5_6 
REMARK       I    between atoms: C5_6  and  N1_8 
REMARK    5  A    between atoms: N1_8  and  C6_10 
REMARK    6  A    between atoms: C6_10  and  C7_11 
ROOT
HETATM    1  C2  UNL     1       6.739   8.096  25.766  1.00  0.00     0.068 C 
HETATM    2  C10 UNL     1       7.278   9.417  25.259  1.00  0.00     0.039 C 
HETATM    3  C11 UNL     1       7.275   9.354  23.735  1.00  0.00     0.009 C 
HETATM    4  C12 UNL     1       6.922   7.926  23.454  1.00  0.00     0.002 C 
HETATM    5  C13 UNL     1       6.228   7.729  22.140  1.00  0.00     0.000 C 
HETATM    6  C14 UNL     1       5.189   6.664  22.112  1.00  0.00    -0.001 C 
HETATM    7  C15 UNL     1       5.246   5.679  23.203  1.00  0.00     0.007 C 
HETATM    8  C16 UNL     1       5.399   6.286  24.590  1.00  0.00     0.013 C 
HETATM    9  C17 UNL     1       5.918   7.671  24.577  1.00  0.00    -0.009 C 
HETATM   10  C18 UNL     1       4.762   8.640  24.425  1.00  0.00     0.019 C 
HETATM   11  C19 UNL     1       5.696   6.257  20.758  1.00  0.00    -0.035 C 
HETATM   12  C20 UNL     1       4.964   6.990  19.620  1.00  0.00     0.016 C 
HETATM   13  C21 UNL     1       5.821   4.829  20.445  1.00  0.00     0.017 C 
HETATM   14  C22 UNL     1       7.119   4.556  19.676  1.00  0.00     0.079 C 
HETATM   15  C23 UNL     1       8.277   4.968  20.496  1.00  0.00     0.127 C 
HETATM   16  O4  UNL     1       9.324   4.371  20.404  1.00  0.00    -0.298 OA
HETATM   17  C24 UNL     1       8.109   6.122  21.419  1.00  0.00     0.084 C 
HETATM   18  C25 UNL     1       6.972   6.992  21.070  1.00  0.00     0.006 C 
ENDROOT
BRANCH   1  19
HETATM   19  O1  UNL     1       6.073   8.081  26.903  1.00  0.00    -0.384 OA
HETATM   20  C1  UNL     1       5.898   8.923  27.876  1.00  0.00     0.202 C 
ENDBRANCH   1  19
BRANCH   1  21
HETATM   21  C3  UNL     1       7.915   7.117  26.003  1.00  0.00     0.048 C 
BRANCH  21  22
HETATM   22  C4  UNL     1       9.106   7.870  26.592  1.00  0.00     0.106 C 
BRANCH  22  23
HETATM   23  C5  UNL     1       9.305   7.401  27.979  1.00  0.00     0.217 C 
HETATM   24  O2  UNL     1       8.458   6.679  28.541  1.00  0.00    -0.274 OA
HETATM   25  N1  UNL     1      10.470   7.778  28.678  1.00  0.00    -0.357 N 
ATOM     26  H1  UNL     1      11.155   8.369  28.206  1.00  0.00     0.162 HD
BRANCH  25  27
HETATM   27  C6  UNL     1      10.736   7.358  30.043  1.00  0.00     0.183 C 
BRANCH  27  28
HETATM   28  C7  UNL     1      11.709   6.204  30.123  1.00  0.00     0.338 C 
HETATM   29  N2  UNL     1      12.977   6.770  30.577  1.00  0.00    -0.045 N 
HETATM   30  C8  UNL     1      13.605   5.659  31.224  1.00  0.00     0.261 C 
ATOM     31  H22 UNL     1      13.536   7.209  29.846  1.00  0.00     0.280 HD
ATOM     32  H21 UNL     1      12.890   7.606  31.154  1.00  0.00     0.280 HD
HETATM   33  C9  UNL     1      12.477   4.732  31.559  1.00  0.00     0.198 C 
HETATM   34  O3  UNL     1      11.302   5.372  31.169  1.00  0.00    -0.356 OA
ENDBRANCH  27  28
ENDBRANCH  25  27
ENDBRANCH  22  23
ENDBRANCH  21  22
ENDBRANCH   1  21
TORSDOF 6
ENDMDL
MODEL 3
REMARK VINA RESULT: -8.108153474      3.372      7.695
REMARK  6 active torsions:
REMARK  status: ('A' for Active; 'I' for Inactive)
REMARK    1  A    between atoms: O1_2  and  C2_3 
REMARK    2  A    between atoms: C2_3  and  C3_4 
REMARK    3  A    between atoms: C3_4  and  C4_5 
REMARK    4  A    between atoms: C4_5  and  C5_6 
REMARK       I    between atoms: C5_6  and  N1_8 
REMARK    5  A    between atoms: N1_8  and  C6_10 
REMARK    6  A    between atoms: C6_10  and  C7_11 
ROOT
HETATM    1  C2  UNL     1       6.152   7.542  25.658  1.00  0.00     0.068 C 
HETATM    2  C10 UNL     1       5.163   8.506  26.277  1.00  0.00     0.039 C 
HETATM    3  C11 UNL     1       5.637   8.791  27.699  1.00  0.00     0.009 C 
HETATM    4  C12 UNL     1       6.762   7.819  27.885  1.00  0.00     0.002 C 
HETATM    5  C13 UNL     1       7.796   8.282  28.866  1.00  0.00     0.000 C 
HETATM    6  C14 UNL     1       9.199   7.894  28.556  1.00  0.00    -0.001 C 
HETATM    7  C15 UNL     1       9.367   6.794  27.594  1.00  0.00     0.007 C 
HETATM    8  C16 UNL     1       8.522   6.925  26.335  1.00  0.00     0.013 C 
HETATM    9  C17 UNL     1       7.374   7.845  26.485  1.00  0.00    -0.009 C 
HETATM   10  C18 UNL     1       7.819   9.261  26.176  1.00  0.00     0.019 C 
HETATM   11  C19 UNL     1       9.402   7.603  30.015  1.00  0.00    -0.035 C 
HETATM   12  C20 UNL     1       9.919   8.830  30.785  1.00  0.00     0.016 C 
HETATM   13  C21 UNL     1      10.155   6.405  30.403  1.00  0.00     0.017 C 
HETATM   14  C22 UNL     1       9.490   5.711  31.597  1.00  0.00     0.079 C 
HETATM   15  C23 UNL     1       8.114   5.314  31.236  1.00  0.00     0.127 C 
HETATM   16  O4  UNL     1       7.627   4.319  31.721  1.00  0.00    -0.298 OA
HETATM   17  C24 UNL     1       7.365   6.166  30.274  1.00  0.00     0.084 C 
HETATM   18  C25 UNL     1       7.905   7.533  30.158  1.00  0.00     0.006 C 
ENDROOT
BRANCH   1  19
HETATM   19  O1  UNL     1       6.364   7.602  24.358  1.00  0.00    -0.384 OA
HETATM   20  C1  UNL     1       5.973   8.387  23.401  1.00  0.00     0.202 C 
ENDBRANCH   1  19
BRANCH   1  21
HETATM   21  C3  UNL     1       5.672   6.088  25.896  1.00  0.00     0.048 C 
BRANCH  21  22
HETATM   22  C4  UNL     1       5.737   5.301  24.589  1.00  0.00     0.106 C 
BRANCH  22  23
HETATM   23  C5  UNL     1       6.457   4.037  24.850  1.00  0.00     0.217 C 
HETATM   24  O2  UNL     1       7.691   3.955  24.691  1.00  0.00    -0.274 OA
HETATM   25  N1  UNL     1       5.736   2.906  25.286  1.00  0.00    -0.357 N 
ATOM     26  H1  UNL     1       4.727   2.986  25.413  1.00  0.00     0.162 HD
BRANCH  25  27
HETATM   27  C6  UNL     1       6.373   1.629  25.562  1.00  0.00     0.183 C 
BRANCH  27  28
HETATM   28  C7  UNL     1       5.698   0.867  26.680  1.00  0.00     0.338 C 
HETATM   29  N2  UNL     1       6.772   0.273  27.474  1.00  0.00    -0.045 N 
HETATM   30  C8  UNL     1       6.175   0.147  28.767  1.00  0.00     0.261 C 
ATOM     31  H22 UNL     1       7.155  -0.593  27.094  1.00  0.00     0.280 HD
ATOM     32  H21 UNL     1       7.651   0.788  27.457  1.00  0.00     0.280 HD
HETATM   33  C9  UNL     1       5.047   1.132  28.759  1.00  0.00     0.198 C 
HETATM   34  O3  UNL     1       5.104   1.797  27.536  1.00  0.00    -0.356 OA
ENDBRANCH  27  28
ENDBRANCH  25  27
ENDBRANCH  22  23
ENDBRANCH  21  22
ENDBRANCH   1  21
TORSDOF 6
ENDMDL
MODEL 4
REMARK VINA RESULT: -7.674983732      3.018      6.180
REMARK  6 active torsions:
REMARK  status: ('A' for Active; 'I' for Inactive)
REMARK    1  A    between atoms: O1_2  and  C2_3 
REMARK    2  A    between atoms: C2_3  and  C3_4 
REMARK    3  A    between atoms: C3_4  and  C4_5 
REMARK    4  A    between atoms: C4_5  and  C5_6 
REMARK       I    between atoms: C5_6  and  N1_8 
REMARK    5  A    between atoms: N1_8  and  C6_10 
REMARK    6  A    between atoms: C6_10  and  C7_11 
ROOT
HETATM    1  C2  UNL     1       5.446   8.008  21.290  1.00  0.00     0.068 C 
HETATM    2  C10 UNL     1       6.741   8.792  21.326  1.00  0.00     0.039 C 
HETATM    3  C11 UNL     1       7.884   7.783  21.278  1.00  0.00     0.009 C 
HETATM    4  C12 UNL     1       7.182   6.466  21.418  1.00  0.00     0.002 C 
HETATM    5  C13 UNL     1       7.915   5.328  20.775  1.00  0.00     0.000 C 
HETATM    6  C14 UNL     1       7.059   4.276  20.159  1.00  0.00    -0.001 C 
HETATM    7  C15 UNL     1       5.655   4.251  20.595  1.00  0.00     0.007 C 
HETATM    8  C16 UNL     1       4.972   5.611  20.594  1.00  0.00     0.013 C 
HETATM    9  C17 UNL     1       5.917   6.749  20.610  1.00  0.00    -0.009 C 
HETATM   10  C18 UNL     1       6.314   7.094  19.189  1.00  0.00     0.019 C 
HETATM   11  C19 UNL     1       7.996   3.242  20.714  1.00  0.00    -0.035 C 
HETATM   12  C20 UNL     1       9.123   2.891  19.728  1.00  0.00     0.016 C 
HETATM   13  C21 UNL     1       7.438   2.019  21.302  1.00  0.00     0.017 C 
HETATM   14  C22 UNL     1       8.194   1.640  22.581  1.00  0.00     0.079 C 
HETATM   15  C23 UNL     1       8.085   2.737  23.565  1.00  0.00     0.127 C 
HETATM   16  O4  UNL     1       8.067   2.486  24.747  1.00  0.00    -0.298 OA
HETATM   17  C24 UNL     1       8.001   4.132  23.056  1.00  0.00     0.084 C 
HETATM   18  C25 UNL     1       8.497   4.285  21.677  1.00  0.00     0.006 C 
ENDROOT
BRANCH   1  19
HETATM   19  O1  UNL     1       4.392   8.556  20.719  1.00  0.00    -0.384 OA
HETATM   20  C1  UNL     1       4.028   9.771  20.440  1.00  0.00     0.202 C 
ENDBRANCH   1  19
BRANCH   1  21
HETATM   21  C3  UNL     1       4.982   7.713  22.738  1.00  0.00     0.048 C 
BRANCH  21  22
HETATM   22  C4  UNL     1       5.522   8.785  23.683  1.00  0.00     0.106 C 
BRANCH  22  23
HETATM   23  C5  UNL     1       5.981   8.117  24.919  1.00  0.00     0.217 C 
HETATM   24  O2  UNL     1       5.248   8.054  25.925  1.00  0.00    -0.274 OA
HETATM   25  N1  UNL     1       7.268   7.542  24.960  1.00  0.00    -0.357 N 
ATOM     26  H1  UNL     1       7.858   7.600  24.129  1.00  0.00     0.162 HD
BRANCH  25  27
HETATM   27  C6  UNL     1       7.790   6.871  26.138  1.00  0.00     0.183 C 
BRANCH  27  28
HETATM   28  C7  UNL     1       8.409   7.826  27.133  1.00  0.00     0.338 C 
HETATM   29  N2  UNL     1       7.456   7.943  28.233  1.00  0.00    -0.045 N 
HETATM   30  C8  UNL     1       8.294   8.281  29.342  1.00  0.00     0.261 C 
ATOM     31  H22 UNL     1       6.687   8.592  28.066  1.00  0.00     0.280 HD
ATOM     32  H21 UNL     1       6.867   7.123  28.378  1.00  0.00     0.280 HD
HETATM   33  C9  UNL     1       9.660   7.818  28.937  1.00  0.00     0.198 C 
HETATM   34  O3  UNL     1       9.521   7.196  27.697  1.00  0.00    -0.356 OA
ENDBRANCH  27  28
ENDBRANCH  25  27
ENDBRANCH  22  23
ENDBRANCH  21  22
ENDBRANCH   1  21
TORSDOF 6
ENDMDL
MODEL 5
REMARK VINA RESULT: -7.670572611      2.532      4.679
REMARK  6 active torsions:
REMARK  status: ('A' for Active; 'I' for Inactive)
REMARK    1  A    between atoms: O1_2  and  C2_3 
REMARK    2  A    between atoms: C2_3  and  C3_4 
REMARK    3  A    between atoms: C3_4  and  C4_5 
REMARK    4  A    between atoms: C4_5  and  C5_6 
REMARK       I    between atoms: C5_6  and  N1_8 
REMARK    5  A    between atoms: N1_8  and  C6_10 
REMARK    6  A    between atoms: C6_10  and  C7_11 
ROOT
HETATM    1  C2  UNL     1       6.792   8.734  24.693  1.00  0.00     0.068 C 
HETATM    2  C10 UNL     1       7.795   9.644  24.015  1.00  0.00     0.039 C 
HETATM    3  C11 UNL     1       7.994   9.122  22.596  1.00  0.00     0.009 C 
HETATM    4  C12 UNL     1       7.246   7.824  22.601  1.00  0.00     0.002 C 
HETATM    5  C13 UNL     1       6.726   7.429  21.253  1.00  0.00     0.000 C 
HETATM    6  C14 UNL     1       5.415   6.722  21.248  1.00  0.00    -0.001 C 
HETATM    7  C15 UNL     1       4.993   6.139  22.531  1.00  0.00     0.007 C 
HETATM    8  C16 UNL     1       5.129   7.076  23.722  1.00  0.00     0.013 C 
HETATM    9  C17 UNL     1       6.061   8.201  23.489  1.00  0.00    -0.009 C 
HETATM   10  C18 UNL     1       5.313   9.348  22.839  1.00  0.00     0.019 C 
HETATM   11  C19 UNL     1       5.956   5.803  20.191  1.00  0.00    -0.035 C 
HETATM   12  C20 UNL     1       5.673   6.321  18.771  1.00  0.00     0.016 C 
HETATM   13  C21 UNL     1       5.660   4.369  20.277  1.00  0.00     0.017 C 
HETATM   14  C22 UNL     1       6.899   3.539  19.921  1.00  0.00     0.079 C 
HETATM   15  C23 UNL     1       7.996   3.857  20.859  1.00  0.00     0.127 C 
HETATM   16  O4  UNL     1       8.797   3.004  21.161  1.00  0.00    -0.298 OA
HETATM   17  C24 UNL     1       8.075   5.239  21.405  1.00  0.00     0.084 C 
HETATM   18  C25 UNL     1       7.341   6.231  20.599  1.00  0.00     0.006 C 
ENDROOT
BRANCH   1  19
HETATM   19  O1  UNL     1       5.998   9.244  25.613  1.00  0.00    -0.384 OA
HETATM   20  C1  UNL     1       5.392   8.778  26.662  1.00  0.00     0.202 C 
ENDBRANCH   1  19
BRANCH   1  21
HETATM   21  C3  UNL     1       7.544   7.597  25.429  1.00  0.00     0.048 C 
BRANCH  21  22
HETATM   22  C4  UNL     1       8.781   8.160  26.124  1.00  0.00     0.106 C 
BRANCH  22  23
HETATM   23  C5  UNL     1       8.756   7.719  27.535  1.00  0.00     0.217 C 
HETATM   24  O2  UNL     1       7.947   6.853  27.923  1.00  0.00    -0.274 OA
HETATM   25  N1  UNL     1       9.660   8.287  28.456  1.00  0.00    -0.357 N 
ATOM     26  H1  UNL     1      10.317   8.994  28.124  1.00  0.00     0.162 HD
BRANCH  25  27
HETATM   27  C6  UNL     1       9.696   7.906  29.857  1.00  0.00     0.183 C 
BRANCH  27  28
HETATM   28  C7  UNL     1      10.768   6.885  30.161  1.00  0.00     0.338 C 
HETATM   29  N2  UNL     1      11.841   7.120  29.197  1.00  0.00    -0.045 N 
HETATM   30  C8  UNL     1      12.996   6.635  29.887  1.00  0.00     0.261 C 
ATOM     31  H22 UNL     1      11.687   6.707  28.277  1.00  0.00     0.280 HD
ATOM     32  H21 UNL     1      11.914   8.082  28.866  1.00  0.00     0.280 HD
HETATM   33  C9  UNL     1      12.610   6.660  31.334  1.00  0.00     0.198 C 
HETATM   34  O3  UNL     1      11.331   7.209  31.397  1.00  0.00    -0.356 OA
ENDBRANCH  27  28
ENDBRANCH  25  27
ENDBRANCH  22  23
ENDBRANCH  21  22
ENDBRANCH   1  21
TORSDOF 6
ENDMDL
