MODEL 1
REMARK VINA RESULT: -6.996584009      0.000      0.000
REMARK  7 active torsions:
REMARK  status: ('A' for Active; 'I' for Inactive)
REMARK    1  A    between atoms: C2_2  and  C9_21 
REMARK    2  A    between atoms: N1_3  and  O1_5 
REMARK    3  A    between atoms: O1_5  and  C3_6 
REMARK    4  A    between atoms: C3_6  and  O2_7 
REMARK    5  A    between atoms: C3_6  and  C4_9 
REMARK    6  A    between atoms: C4_9  and  N2_10 
REMARK    7  A    between atoms: C6_12  and  C7_13 
ROOT
HETATM    1  C3  UNL     1      -2.494  26.970  11.925  1.00  0.00     0.305 C 
ENDROOT
BRANCH   1   2
HETATM    2  O1  UNL     1      -2.808  28.299  11.584  1.00  0.00    -0.246 OA
BRANCH   2   3
HETATM    3  N1  UNL     1      -3.634  28.577  10.566  1.00  0.00    -0.267 N 
HETATM    4  C2  UNL     1      -3.579  29.467   9.668  1.00  0.00     0.046 C 
HETATM    5  C1  UNL     1      -4.668  29.514   8.664  1.00  0.00     0.071 C 
ATOM      6  H1  UNL     1      -4.448  27.965  10.505  1.00  0.00     0.194 HD
BRANCH   4   7
HETATM    7  C9  UNL     1      -2.500  30.413   9.600  1.00  0.00     0.082 A 
HETATM    8  C10 UNL     1      -1.417  30.491   8.747  1.00  0.00     0.186 A 
HETATM    9  O3  UNL     1      -0.705  31.558   9.095  1.00  0.00    -0.246 OA
HETATM   10  N5  UNL     1      -1.242  32.156  10.084  1.00  0.00    -0.225 N 
HETATM   11  C11 UNL     1      -2.347  31.505  10.445  1.00  0.00     0.279 A 
ATOM     12  H5  UNL     1      -0.881  32.999  10.530  1.00  0.00     0.198 HD
HETATM   13  O4  UNL     1      -3.152  31.789  11.382  1.00  0.00    -0.265 OA
ENDBRANCH   4   7
ENDBRANCH   2   3
ENDBRANCH   1   2
BRANCH   1  14
HETATM   14  O2  UNL     1      -1.751  26.991  13.102  1.00  0.00    -0.367 OA
ATOM     15  H2  UNL     1      -1.035  26.374  13.008  1.00  0.00     0.212 HD
ENDBRANCH   1  14
BRANCH   1  16
HETATM   16  C4  UNL     1      -1.736  26.341  10.789  1.00  0.00     0.212 C 
BRANCH  16  17
HETATM   17  N2  UNL     1      -0.443  26.916  10.576  1.00  0.00    -0.282 N 
HETATM   18  C5  UNL     1       0.572  26.421   9.882  1.00  0.00     0.142 A 
HETATM   19  C6  UNL     1       1.649  27.306   9.926  1.00  0.00     0.068 A 
HETATM   20  N3  UNL     1       1.201  28.341  10.684  1.00  0.00    -0.285 N 
HETATM   21  N4  UNL     1      -0.053  28.080  11.058  1.00  0.00    -0.240 N 
ATOM     22  H3  UNL     1       1.733  29.176  10.927  1.00  0.00     0.188 HD
ATOM     23  H4  UNL     1      -0.629  28.693  11.635  1.00  0.00     0.208 HD
BRANCH  19  24
HETATM   24  C7  UNL     1       2.955  27.147   9.301  1.00  0.00     0.059 C 
HETATM   25  C8  UNL     1       3.186  27.749   8.147  1.00  0.00     0.059 C 
HETATM   26 BR1  UNL     1       4.893  27.560   7.300  1.00  0.00    -0.043 Br
HETATM   27 BR2  UNL     1       1.813  28.809   7.315  1.00  0.00    -0.043 Br
ENDBRANCH  19  24
ENDBRANCH  16  17
ENDBRANCH   1  16
TORSDOF 7
ENDMDL
MODEL 2
REMARK VINA RESULT: -6.912022403      1.302      1.406
REMARK  7 active torsions:
REMARK  status: ('A' for Active; 'I' for Inactive)
REMARK    1  A    between atoms: C2_2  and  C9_21 
REMARK    2  A    between atoms: N1_3  and  O1_5 
REMARK    3  A    between atoms: O1_5  and  C3_6 
REMARK    4  A    between atoms: C3_6  and  O2_7 
REMARK    5  A    between atoms: C3_6  and  C4_9 
REMARK    6  A    between atoms: C4_9  and  N2_10 
REMARK    7  A    between atoms: C6_12  and  C7_13 
ROOT
HETATM    1  C3  UNL     1      -0.890  26.963  11.785  1.00  0.00     0.305 C 
ENDROOT
BRANCH   1   2
HETATM    2  O1  UNL     1      -1.139  27.912  10.777  1.00  0.00    -0.246 OA
BRANCH   2   3
HETATM    3  N1  UNL     1      -2.386  28.164  10.354  1.00  0.00    -0.267 N 
HETATM    4  C2  UNL     1      -2.899  29.204   9.848  1.00  0.00     0.046 C 
HETATM    5  C1  UNL     1      -4.334  29.164   9.477  1.00  0.00     0.071 C 
ATOM      6  H1  UNL     1      -3.032  27.381  10.458  1.00  0.00     0.194 HD
BRANCH   4   7
HETATM    7  C9  UNL     1      -2.134  30.398   9.625  1.00  0.00     0.082 A 
HETATM    8  C10 UNL     1      -1.192  30.705   8.662  1.00  0.00     0.186 A 
HETATM    9  O3  UNL     1      -0.776  31.946   8.885  1.00  0.00    -0.246 OA
HETATM   10  N5  UNL     1      -1.369  32.447   9.896  1.00  0.00    -0.225 N 
HETATM   11  C11 UNL     1      -2.215  31.550  10.398  1.00  0.00     0.279 A 
ATOM     12  H5  UNL     1      -1.217  33.387  10.263  1.00  0.00     0.198 HD
HETATM   13  O4  UNL     1      -2.983  31.673  11.400  1.00  0.00    -0.265 OA
ENDBRANCH   4   7
ENDBRANCH   2   3
ENDBRANCH   1   2
BRANCH   1  14
HETATM   14  O2  UNL     1      -0.114  27.571  12.768  1.00  0.00    -0.367 OA
ATOM     15  H2  UNL     1      -0.399  27.243  13.613  1.00  0.00     0.212 HD
ENDBRANCH   1  14
BRANCH   1  16
HETATM   16  C4  UNL     1      -0.199  25.774  11.176  1.00  0.00     0.212 C 
BRANCH  16  17
HETATM   17  N2  UNL     1       1.068  26.087  10.589  1.00  0.00    -0.282 N 
HETATM   18  C5  UNL     1       1.457  25.915   9.334  1.00  0.00     0.142 A 
HETATM   19  C6  UNL     1       2.771  26.358   9.183  1.00  0.00     0.068 A 
HETATM   20  N3  UNL     1       3.121  26.796  10.421  1.00  0.00    -0.285 N 
HETATM   21  N4  UNL     1       2.082  26.622  11.241  1.00  0.00    -0.240 N 
ATOM     22  H3  UNL     1       4.024  27.191  10.680  1.00  0.00     0.188 HD
ATOM     23  H4  UNL     1       2.074  26.867  12.230  1.00  0.00     0.208 HD
BRANCH  19  24
HETATM   24  C7  UNL     1       3.578  26.346   7.970  1.00  0.00     0.059 C 
HETATM   25  C8  UNL     1       3.507  27.379   7.149  1.00  0.00     0.059 C 
HETATM   26 BR1  UNL     1       4.556  27.395   5.547  1.00  0.00    -0.043 Br
HETATM   27 BR2  UNL     1       2.352  28.864   7.555  1.00  0.00    -0.043 Br
ENDBRANCH  19  24
ENDBRANCH  16  17
ENDBRANCH   1  16
TORSDOF 7
ENDMDL
MODEL 3
REMARK VINA RESULT: -6.906967227      4.204      6.775
REMARK  7 active torsions:
REMARK  status: ('A' for Active; 'I' for Inactive)
REMARK    1  A    between atoms: C2_2  and  C9_21 
REMARK    2  A    between atoms: N1_3  and  O1_5 
REMARK    3  A    between atoms: O1_5  and  C3_6 
REMARK    4  A    between atoms: C3_6  and  O2_7 
REMARK    5  A    between atoms: C3_6  and  C4_9 
REMARK    6  A    between atoms: C4_9  and  N2_10 
REMARK    7  A    between atoms: C6_12  and  C7_13 
ROOT
HETATM    1  C3  UNL     1      -1.560  25.275  13.319  1.00  0.00     0.305 C 
ENDROOT
BRANCH   1   2
HETATM    2  O1  UNL     1      -2.380  25.069  14.444  1.00  0.00    -0.246 OA
BRANCH   2   3
HETATM    3  N1  UNL     1      -3.715  25.035  14.331  1.00  0.00    -0.267 N 
HETATM    4  C2  UNL     1      -4.576  24.272  14.859  1.00  0.00     0.046 C 
HETATM    5  C1  UNL     1      -6.003  24.497  14.529  1.00  0.00     0.071 C 
ATOM      6  H1  UNL     1      -4.105  25.748  13.714  1.00  0.00     0.194 HD
BRANCH   4   7
HETATM    7  C9  UNL     1      -4.206  23.215  15.758  1.00  0.00     0.082 A 
HETATM    8  C10 UNL     1      -4.459  23.040  17.104  1.00  0.00     0.186 A 
HETATM    9  O3  UNL     1      -3.902  21.893  17.475  1.00  0.00    -0.246 OA
HETATM   10  N5  UNL     1      -3.324  21.331  16.487  1.00  0.00    -0.225 N 
HETATM   11  C11 UNL     1      -3.471  22.090  15.403  1.00  0.00     0.279 A 
ATOM     12  H5  UNL     1      -2.827  20.442  16.523  1.00  0.00     0.198 HD
HETATM   13  O4  UNL     1      -3.041  21.872  14.230  1.00  0.00    -0.265 OA
ENDBRANCH   4   7
ENDBRANCH   2   3
ENDBRANCH   1   2
BRANCH   1  14
HETATM   14  O2  UNL     1      -0.237  25.307  13.749  1.00  0.00    -0.367 OA
ATOM     15  H2  UNL     1       0.025  26.216  13.828  1.00  0.00     0.212 HD
ENDBRANCH   1  14
BRANCH   1  16
HETATM   16  C4  UNL     1      -1.966  26.557  12.647  1.00  0.00     0.212 C 
BRANCH  16  17
HETATM   17  N2  UNL     1      -0.883  27.234  12.002  1.00  0.00    -0.282 N 
HETATM   18  C5  UNL     1      -0.551  27.219  10.719  1.00  0.00     0.142 A 
HETATM   19  C6  UNL     1       0.571  28.020  10.513  1.00  0.00     0.068 A 
HETATM   20  N3  UNL     1       0.871  28.500  11.748  1.00  0.00    -0.285 N 
HETATM   21  N4  UNL     1      -0.016  28.014  12.618  1.00  0.00    -0.240 N 
ATOM     22  H3  UNL     1       1.643  29.127  11.973  1.00  0.00     0.188 HD
ATOM     23  H4  UNL     1      -0.023  28.216  13.617  1.00  0.00     0.208 HD
BRANCH  19  24
HETATM   24  C7  UNL     1       1.261  28.276   9.255  1.00  0.00     0.059 C 
HETATM   25  C8  UNL     1       0.815  29.240   8.469  1.00  0.00     0.059 C 
HETATM   26 BR1  UNL     1       1.700  29.601   6.810  1.00  0.00    -0.043 Br
HETATM   27 BR2  UNL     1      -0.722  30.277   8.983  1.00  0.00    -0.043 Br
ENDBRANCH  19  24
ENDBRANCH  16  17
ENDBRANCH   1  16
TORSDOF 7
ENDMDL
MODEL 4
REMARK VINA RESULT: -6.882592873      1.520      1.731
REMARK  7 active torsions:
REMARK  status: ('A' for Active; 'I' for Inactive)
REMARK    1  A    between atoms: C2_2  and  C9_21 
REMARK    2  A    between atoms: N1_3  and  O1_5 
REMARK    3  A    between atoms: O1_5  and  C3_6 
REMARK    4  A    between atoms: C3_6  and  O2_7 
REMARK    5  A    between atoms: C3_6  and  C4_9 
REMARK    6  A    between atoms: C4_9  and  N2_10 
REMARK    7  A    between atoms: C6_12  and  C7_13 
ROOT
HETATM    1  C3  UNL     1      -1.009  27.513  12.223  1.00  0.00     0.305 C 
ENDROOT
BRANCH   1   2
HETATM    2  O1  UNL     1      -1.621  28.712  11.813  1.00  0.00    -0.246 OA
BRANCH   2   3
HETATM    3  N1  UNL     1      -2.713  28.703  11.035  1.00  0.00    -0.267 N 
HETATM    4  C2  UNL     1      -3.072  29.471  10.095  1.00  0.00     0.046 C 
HETATM    5  C1  UNL     1      -4.360  29.189   9.418  1.00  0.00     0.071 C 
ATOM      6  H1  UNL     1      -3.367  27.947  11.236  1.00  0.00     0.194 HD
BRANCH   4   7
HETATM    7  C9  UNL     1      -2.270  30.586   9.676  1.00  0.00     0.082 A 
HETATM    8  C10 UNL     1      -1.451  30.751   8.577  1.00  0.00     0.186 A 
HETATM    9  O3  UNL     1      -0.931  31.972   8.640  1.00  0.00    -0.246 OA
HETATM   10  N5  UNL     1      -1.348  32.588   9.674  1.00  0.00    -0.225 N 
HETATM   11  C11 UNL     1      -2.173  31.795  10.355  1.00  0.00     0.279 A 
ATOM     12  H5  UNL     1      -1.090  33.538   9.939  1.00  0.00     0.198 HD
HETATM   13  O4  UNL     1      -2.789  32.047  11.435  1.00  0.00    -0.265 OA
ENDBRANCH   4   7
ENDBRANCH   2   3
ENDBRANCH   1   2
BRANCH   1  14
HETATM   14  O2  UNL     1       0.144  27.837  12.930  1.00  0.00    -0.367 OA
ATOM     15  H2  UNL     1       0.667  27.049  13.017  1.00  0.00     0.212 HD
ENDBRANCH   1  14
BRANCH   1  16
HETATM   16  C4  UNL     1      -0.711  26.678  11.008  1.00  0.00     0.212 C 
BRANCH  16  17
HETATM   17  N2  UNL     1       0.688  26.538  10.739  1.00  0.00    -0.282 N 
HETATM   18  C5  UNL     1       1.381  27.024   9.720  1.00  0.00     0.142 A 
HETATM   19  C6  UNL     1       2.720  26.656   9.842  1.00  0.00     0.068 A 
HETATM   20  N3  UNL     1       2.764  25.931  10.991  1.00  0.00    -0.285 N 
HETATM   21  N4  UNL     1       1.534  25.878  11.505  1.00  0.00    -0.240 N 
ATOM     22  H3  UNL     1       3.596  25.499  11.392  1.00  0.00     0.188 HD
ATOM     23  H4  UNL     1       1.283  25.395  12.368  1.00  0.00     0.208 HD
BRANCH  19  24
HETATM   24  C7  UNL     1       3.816  26.978   8.939  1.00  0.00     0.059 C 
HETATM   25  C8  UNL     1       4.325  26.018   8.187  1.00  0.00     0.059 C 
HETATM   26 BR1  UNL     1       5.766  26.409   6.988  1.00  0.00    -0.043 Br
HETATM   27 BR2  UNL     1       3.624  24.229   8.294  1.00  0.00    -0.043 Br
ENDBRANCH  19  24
ENDBRANCH  16  17
ENDBRANCH   1  16
TORSDOF 7
ENDMDL
MODEL 5
REMARK VINA RESULT: -6.866410486      3.463      5.736
REMARK  7 active torsions:
REMARK  status: ('A' for Active; 'I' for Inactive)
REMARK    1  A    between atoms: C2_2  and  C9_21 
REMARK    2  A    between atoms: N1_3  and  O1_5 
REMARK    3  A    between atoms: O1_5  and  C3_6 
REMARK    4  A    between atoms: C3_6  and  O2_7 
REMARK    5  A    between atoms: C3_6  and  C4_9 
REMARK    6  A    between atoms: C4_9  and  N2_10 
REMARK    7  A    between atoms: C6_12  and  C7_13 
ROOT
HETATM    1  C3  UNL     1       0.453  22.611  11.222  1.00  0.00     0.305 C 
ENDROOT
BRANCH   1   2
HETATM    2  O1  UNL     1      -0.952  22.551  11.259  1.00  0.00    -0.246 OA
BRANCH   2   3
HETATM    3  N1  UNL     1      -1.599  22.100  12.343  1.00  0.00    -0.267 N 
HETATM    4  C2  UNL     1      -2.384  22.683  13.146  1.00  0.00     0.046 C 
HETATM    5  C1  UNL     1      -2.947  21.895  14.268  1.00  0.00     0.071 C 
ATOM      6  H1  UNL     1      -1.429  21.117  12.557  1.00  0.00     0.194 HD
BRANCH   4   7
HETATM    7  C9  UNL     1      -2.738  24.067  12.994  1.00  0.00     0.082 A 
HETATM    8  C10 UNL     1      -3.908  24.661  12.562  1.00  0.00     0.186 A 
HETATM    9  O3  UNL     1      -3.733  25.977  12.605  1.00  0.00    -0.246 OA
HETATM   10  N5  UNL     1      -2.564  26.264  13.024  1.00  0.00    -0.225 N 
HETATM   11  C11 UNL     1      -1.900  25.138  13.281  1.00  0.00     0.279 A 
ATOM     12  H5  UNL     1      -2.196  27.207  13.144  1.00  0.00     0.198 HD
HETATM   13  O4  UNL     1      -0.715  25.009  13.712  1.00  0.00    -0.265 OA
ENDBRANCH   4   7
ENDBRANCH   2   3
ENDBRANCH   1   2
BRANCH   1  14
HETATM   14  O2  UNL     1       0.903  22.982  12.485  1.00  0.00    -0.367 OA
ATOM     15  H2  UNL     1       1.425  22.270  12.834  1.00  0.00     0.212 HD
ENDBRANCH   1  14
BRANCH   1  16
HETATM   16  C4  UNL     1       0.871  23.592  10.163  1.00  0.00     0.212 C 
BRANCH  16  17
HETATM   17  N2  UNL     1       0.640  24.958  10.524  1.00  0.00    -0.282 N 
HETATM   18  C5  UNL     1      -0.217  25.815   9.989  1.00  0.00     0.142 A 
HETATM   19  C6  UNL     1      -0.124  27.044  10.642  1.00  0.00     0.068 A 
HETATM   20  N3  UNL     1       0.834  26.850  11.585  1.00  0.00    -0.285 N 
HETATM   21  N4  UNL     1       1.272  25.593  11.491  1.00  0.00    -0.240 N 
ATOM     22  H3  UNL     1       1.163  27.547  12.253  1.00  0.00     0.188 HD
ATOM     23  H4  UNL     1       1.994  25.181  12.083  1.00  0.00     0.208 HD
BRANCH  19  24
HETATM   24  C7  UNL     1      -0.884  28.256  10.366  1.00  0.00     0.059 C 
HETATM   25  C8  UNL     1      -0.434  29.095   9.450  1.00  0.00     0.059 C 
HETATM   26 BR1  UNL     1      -1.410  30.697   9.065  1.00  0.00    -0.043 Br
HETATM   27 BR2  UNL     1       1.198  28.715   8.505  1.00  0.00    -0.043 Br
ENDBRANCH  19  24
ENDBRANCH  16  17
ENDBRANCH   1  16
TORSDOF 7
ENDMDL
