MODEL 1
REMARK VINA RESULT: -8.508805578      0.000      0.000
REMARK  8 active torsions:
REMARK  status: ('A' for Active; 'I' for Inactive)
REMARK    1  A    between atoms: C2_2  and  O1_3 
REMARK    2  A    between atoms: O1_3  and  C3_4 
REMARK    3  A    between atoms: C3_4  and  C4_6 
REMARK    4  A    between atoms: C8_13  and  N2_14 
REMARK    5  A    between atoms: N2_14  and  N3_16 
REMARK    6  A    between atoms: C9_18  and  C10_19 
REMARK    7  A    between atoms: C9_18  and  C12_22 
REMARK    8  A    between atoms: C12_22  and  C13_23 
ROOT
HETATM    1  C10 UNL     1      -6.930  24.523  15.513  1.00  0.00     0.177 C 
HETATM    2  C11 UNL     1      -7.820  24.587  14.382  1.00  0.00     0.065 C 
HETATM    3  N4  UNL     1      -8.555  24.659  13.490  1.00  0.00    -0.197 NA
ENDROOT
BRANCH   1   4
HETATM    4  C9  UNL     1      -5.498  24.407  15.209  1.00  0.00     0.019 C 
HETATM    5  N3  UNL     1      -5.098  24.971  14.098  1.00  0.00    -0.294 N 
ATOM      6  H3  UNL     1      -5.795  25.447  13.526  1.00  0.00     0.186 HD
BRANCH   5   7
HETATM    7  N2  UNL     1      -3.799  24.963  13.655  1.00  0.00    -0.132 N 
ATOM      8  H2  UNL     1      -3.120  24.305  14.037  1.00  0.00     0.205 HD
BRANCH   7   9
HETATM    9  C8  UNL     1      -3.454  25.822  12.728  1.00  0.00     0.703 A 
HETATM   10  N1  UNL     1      -4.346  26.648  12.191  1.00  0.00    -0.154 N 
HETATM   11  C7  UNL     1      -3.972  27.507  11.253  1.00  0.00     0.273 A 
ATOM     12  H1  UNL     1      -5.317  26.621  12.500  1.00  0.00     0.187 HD
HETATM   13  C6  UNL     1      -2.650  27.517  10.859  1.00  0.00     0.079 A 
HETATM   14  O3  UNL     1      -4.776  28.319  10.705  1.00  0.00    -0.267 OA
HETATM   15  C5  UNL     1      -2.267  28.413   9.882  1.00  0.00     0.044 A 
HETATM   16  C15 UNL     1      -1.716  26.635  11.436  1.00  0.00     0.143 A 
HETATM   17  C4  UNL     1      -0.972  28.440   9.477  1.00  0.00     0.108 A 
HETATM   18  C17 UNL     1      -0.094  27.569  10.060  1.00  0.00     0.265 A 
HETATM   19  N6  UNL     1      -0.431  26.654  11.041  1.00  0.00    -0.302 N 
HETATM   20  O4  UNL     1       1.127  27.564   9.708  1.00  0.00    -0.267 OA
HETATM   21  C16 UNL     1       0.545  25.789  11.585  1.00  0.00     0.161 C 
HETATM   22  N5  UNL     1      -2.119  25.770  12.388  1.00  0.00    -0.170 N 
HETATM   23  C14 UNL     1      -1.238  24.865  13.008  1.00  0.00     0.177 C 
BRANCH  17  24
HETATM   24  C3  UNL     1      -0.497  29.365   8.445  1.00  0.00     0.298 C 
HETATM   25  O2  UNL     1      -0.307  28.959   7.270  1.00  0.00    -0.259 OA
BRANCH  24  26
HETATM   26  O1  UNL     1      -0.235  30.692   8.687  1.00  0.00    -0.318 OA
BRANCH  26  27
HETATM   27  C2  UNL     1      -1.158  31.727   8.736  1.00  0.00     0.174 C 
HETATM   28  C1  UNL     1      -1.642  32.115  10.078  1.00  0.00     0.034 C 
ENDBRANCH  26  27
ENDBRANCH  24  26
ENDBRANCH  17  24
ENDBRANCH   7   9
ENDBRANCH   5   7
BRANCH   4  29
HETATM   29  C12 UNL     1      -4.574  23.700  16.097  1.00  0.00     0.091 C 
BRANCH  29  30
HETATM   30  C13 UNL     1      -4.525  22.211  15.970  1.00  0.00     0.183 C 
HETATM   31 CL1  UNL     1      -3.192  21.698  14.882  1.00  0.00    -0.108 Cl
HETATM   32 CL2  UNL     1      -4.089  21.496  17.577  1.00  0.00    -0.108 Cl
ENDBRANCH  29  30
ENDBRANCH   4  29
ENDBRANCH   1   4
TORSDOF 8
ENDMDL
MODEL 2
REMARK VINA RESULT: -8.209432470      0.810      1.492
REMARK  8 active torsions:
REMARK  status: ('A' for Active; 'I' for Inactive)
REMARK    1  A    between atoms: C2_2  and  O1_3 
REMARK    2  A    between atoms: O1_3  and  C3_4 
REMARK    3  A    between atoms: C3_4  and  C4_6 
REMARK    4  A    between atoms: C8_13  and  N2_14 
REMARK    5  A    between atoms: N2_14  and  N3_16 
REMARK    6  A    between atoms: C9_18  and  C10_19 
REMARK    7  A    between atoms: C9_18  and  C12_22 
REMARK    8  A    between atoms: C12_22  and  C13_23 
ROOT
HETATM    1  C10 UNL     1      -6.871  24.578  15.464  1.00  0.00     0.177 C 
HETATM    2  C11 UNL     1      -7.782  24.593  14.348  1.00  0.00     0.065 C 
HETATM    3  N4  UNL     1      -8.533  24.627  13.467  1.00  0.00    -0.197 NA
ENDROOT
BRANCH   1   4
HETATM    4  C9  UNL     1      -5.444  24.450  15.138  1.00  0.00     0.019 C 
HETATM    5  N3  UNL     1      -5.056  25.013  14.022  1.00  0.00    -0.294 N 
ATOM      6  H3  UNL     1      -5.757  25.495  13.461  1.00  0.00     0.186 HD
BRANCH   5   7
HETATM    7  N2  UNL     1      -3.764  24.994  13.560  1.00  0.00    -0.132 N 
ATOM      8  H2  UNL     1      -3.094  24.307  13.907  1.00  0.00     0.205 HD
BRANCH   7   9
HETATM    9  C8  UNL     1      -3.413  25.881  12.662  1.00  0.00     0.703 A 
HETATM   10  N1  UNL     1      -4.305  26.715  12.136  1.00  0.00    -0.154 N 
HETATM   11  C7  UNL     1      -3.925  27.602  11.227  1.00  0.00     0.273 A 
ATOM     12  H1  UNL     1      -5.279  26.672  12.431  1.00  0.00     0.187 HD
HETATM   13  C6  UNL     1      -2.597  27.633  10.851  1.00  0.00     0.079 A 
HETATM   14  O3  UNL     1      -4.728  28.423  10.690  1.00  0.00    -0.267 OA
HETATM   15  C5  UNL     1      -2.208  28.558   9.905  1.00  0.00     0.044 A 
HETATM   16  C15 UNL     1      -1.665  26.742  11.416  1.00  0.00     0.143 A 
HETATM   17  C4  UNL     1      -0.908  28.607   9.518  1.00  0.00     0.108 A 
HETATM   18  C17 UNL     1      -0.032  27.726  10.090  1.00  0.00     0.265 A 
HETATM   19  N6  UNL     1      -0.375  26.783  11.040  1.00  0.00    -0.302 N 
HETATM   20  O4  UNL     1       1.194  27.740   9.754  1.00  0.00    -0.267 OA
HETATM   21  C16 UNL     1       0.600  25.910  11.573  1.00  0.00     0.161 C 
HETATM   22  N5  UNL     1      -2.074  25.848  12.339  1.00  0.00    -0.170 N 
HETATM   23  C14 UNL     1      -1.194  24.934  12.946  1.00  0.00     0.177 C 
BRANCH  17  24
HETATM   24  C3  UNL     1      -0.427  29.564   8.519  1.00  0.00     0.298 C 
HETATM   25  O2  UNL     1      -0.481  30.799   8.750  1.00  0.00    -0.259 OA
BRANCH  24  26
HETATM   26  O1  UNL     1       0.095  29.187   7.306  1.00  0.00    -0.318 OA
BRANCH  26  27
HETATM   27  C2  UNL     1       1.256  29.664   6.715  1.00  0.00     0.174 C 
HETATM   28  C1  UNL     1       2.359  28.693   6.550  1.00  0.00     0.034 C 
ENDBRANCH  26  27
ENDBRANCH  24  26
ENDBRANCH  17  24
ENDBRANCH   7   9
ENDBRANCH   5   7
BRANCH   4  29
HETATM   29  C12 UNL     1      -4.513  23.733  16.011  1.00  0.00     0.091 C 
BRANCH  29  30
HETATM   30  C13 UNL     1      -4.491  22.243  15.893  1.00  0.00     0.183 C 
HETATM   31 CL1  UNL     1      -3.159  21.698  14.821  1.00  0.00    -0.108 Cl
HETATM   32 CL2  UNL     1      -4.083  21.530  17.509  1.00  0.00    -0.108 Cl
ENDBRANCH  29  30
ENDBRANCH   4  29
ENDBRANCH   1   4
TORSDOF 8
ENDMDL
MODEL 3
REMARK VINA RESULT: -8.192232329      6.132      9.419
REMARK  8 active torsions:
REMARK  status: ('A' for Active; 'I' for Inactive)
REMARK    1  A    between atoms: C2_2  and  O1_3 
REMARK    2  A    between atoms: O1_3  and  C3_4 
REMARK    3  A    between atoms: C3_4  and  C4_6 
REMARK    4  A    between atoms: C8_13  and  N2_14 
REMARK    5  A    between atoms: N2_14  and  N3_16 
REMARK    6  A    between atoms: C9_18  and  C10_19 
REMARK    7  A    between atoms: C9_18  and  C12_22 
REMARK    8  A    between atoms: C12_22  and  C13_23 
ROOT
HETATM    1  C10 UNL     1       4.032  26.517   3.807  1.00  0.00     0.177 C 
HETATM    2  C11 UNL     1       3.757  25.150   3.448  1.00  0.00     0.065 C 
HETATM    3  N4  UNL     1       3.556  24.054   3.133  1.00  0.00    -0.197 NA
ENDROOT
BRANCH   1   4
HETATM    4  C9  UNL     1       4.114  26.809   5.245  1.00  0.00     0.019 C 
HETATM    5  N3  UNL     1       3.685  27.987   5.619  1.00  0.00    -0.294 N 
ATOM      6  H3  UNL     1       3.327  28.615   4.900  1.00  0.00     0.186 HD
BRANCH   5   7
HETATM    7  N2  UNL     1       3.687  28.430   6.918  1.00  0.00    -0.132 N 
ATOM      8  H2  UNL     1       4.507  28.307   7.511  1.00  0.00     0.205 HD
BRANCH   7   9
HETATM    9  C8  UNL     1       2.608  29.015   7.375  1.00  0.00     0.703 A 
HETATM   10  N1  UNL     1       2.161  30.147   6.840  1.00  0.00    -0.154 N 
HETATM   11  C7  UNL     1       1.068  30.721   7.322  1.00  0.00     0.273 A 
ATOM     12  H1  UNL     1       2.659  30.573   6.059  1.00  0.00     0.187 HD
HETATM   13  C6  UNL     1       0.419  30.116   8.380  1.00  0.00     0.079 A 
HETATM   14  O3  UNL     1       0.593  31.798   6.854  1.00  0.00    -0.267 OA
HETATM   15  C5  UNL     1      -0.718  30.718   8.878  1.00  0.00     0.044 A 
HETATM   16  C15 UNL     1       0.905  28.918   8.937  1.00  0.00     0.143 A 
HETATM   17  C4  UNL     1      -1.373  30.143   9.919  1.00  0.00     0.108 A 
HETATM   18  C17 UNL     1      -0.871  28.980  10.433  1.00  0.00     0.265 A 
HETATM   19  N6  UNL     1       0.264  28.341   9.968  1.00  0.00    -0.302 N 
HETATM   20  O4  UNL     1      -1.455  28.411  11.408  1.00  0.00    -0.267 OA
HETATM   21  C16 UNL     1       0.710  27.142  10.566  1.00  0.00     0.161 C 
HETATM   22  N5  UNL     1       2.019  28.352   8.430  1.00  0.00    -0.170 N 
HETATM   23  C14 UNL     1       2.555  27.155   8.937  1.00  0.00     0.177 C 
BRANCH  17  24
HETATM   24  C3  UNL     1      -2.586  30.728  10.496  1.00  0.00     0.298 C 
HETATM   25  O2  UNL     1      -2.505  31.726  11.258  1.00  0.00    -0.259 OA
BRANCH  24  26
HETATM   26  O1  UNL     1      -3.846  30.240  10.252  1.00  0.00    -0.318 OA
BRANCH  26  27
HETATM   27  C2  UNL     1      -4.226  29.393   9.220  1.00  0.00     0.174 C 
HETATM   28  C1  UNL     1      -4.312  29.996   7.872  1.00  0.00     0.034 C 
ENDBRANCH  26  27
ENDBRANCH  24  26
ENDBRANCH  17  24
ENDBRANCH   7   9
ENDBRANCH   5   7
BRANCH   4  29
HETATM   29  C12 UNL     1       4.649  25.838   6.201  1.00  0.00     0.091 C 
BRANCH  29  30
HETATM   30  C13 UNL     1       6.135  25.689   6.249  1.00  0.00     0.183 C 
HETATM   31 CL1  UNL     1       6.730  25.683   7.943  1.00  0.00    -0.108 Cl
HETATM   32 CL2  UNL     1       6.585  24.051   5.613  1.00  0.00    -0.108 Cl
ENDBRANCH  29  30
ENDBRANCH   4  29
ENDBRANCH   1   4
TORSDOF 8
ENDMDL
MODEL 4
REMARK VINA RESULT: -8.181846838      6.396     10.125
REMARK  8 active torsions:
REMARK  status: ('A' for Active; 'I' for Inactive)
REMARK    1  A    between atoms: C2_2  and  O1_3 
REMARK    2  A    between atoms: O1_3  and  C3_4 
REMARK    3  A    between atoms: C3_4  and  C4_6 
REMARK    4  A    between atoms: C8_13  and  N2_14 
REMARK    5  A    between atoms: N2_14  and  N3_16 
REMARK    6  A    between atoms: C9_18  and  C10_19 
REMARK    7  A    between atoms: C9_18  and  C12_22 
REMARK    8  A    between atoms: C12_22  and  C13_23 
ROOT
HETATM    1  C10 UNL     1       5.317  26.365   3.340  1.00  0.00     0.177 C 
HETATM    2  C11 UNL     1       6.375  27.092   2.685  1.00  0.00     0.065 C 
HETATM    3  N4  UNL     1       7.204  27.682   2.133  1.00  0.00    -0.197 NA
ENDROOT
BRANCH   1   4
HETATM    4  C9  UNL     1       5.229  26.516   4.798  1.00  0.00     0.019 C 
HETATM    5  N3  UNL     1       4.892  27.703   5.235  1.00  0.00    -0.294 N 
ATOM      6  H3  UNL     1       4.716  28.433   4.545  1.00  0.00     0.186 HD
BRANCH   5   7
HETATM    7  N2  UNL     1       4.762  28.026   6.562  1.00  0.00    -0.132 N 
ATOM      8  H2  UNL     1       5.567  28.004   7.187  1.00  0.00     0.205 HD
BRANCH   7   9
HETATM    9  C8  UNL     1       3.576  28.363   7.005  1.00  0.00     0.703 A 
HETATM   10  N1  UNL     1       2.823  29.241   6.350  1.00  0.00    -0.154 N 
HETATM   11  C7  UNL     1       1.627  29.567   6.819  1.00  0.00     0.273 A 
ATOM     12  H1  UNL     1       3.164  29.662   5.487  1.00  0.00     0.187 HD
HETATM   13  C6  UNL     1       1.196  28.977   7.991  1.00  0.00     0.079 A 
HETATM   14  O3  UNL     1       0.863  30.396   6.240  1.00  0.00    -0.267 OA
HETATM   15  C5  UNL     1      -0.049  29.321   8.475  1.00  0.00     0.044 A 
HETATM   16  C15 UNL     1       2.006  28.051   8.674  1.00  0.00     0.143 A 
HETATM   17  C4  UNL     1      -0.494  28.755   9.626  1.00  0.00     0.108 A 
HETATM   18  C17 UNL     1       0.321  27.860  10.261  1.00  0.00     0.265 A 
HETATM   19  N6  UNL     1       1.574  27.485   9.815  1.00  0.00    -0.302 N 
HETATM   20  O4  UNL     1      -0.060  27.308  11.341  1.00  0.00    -0.267 OA
HETATM   21  C16 UNL     1       2.348  26.552  10.541  1.00  0.00     0.161 C 
HETATM   22  N5  UNL     1       3.219  27.733   8.178  1.00  0.00    -0.170 N 
HETATM   23  C14 UNL     1       4.076  26.813   8.808  1.00  0.00     0.177 C 
BRANCH  17  24
HETATM   24  C3  UNL     1      -1.805  29.075  10.196  1.00  0.00     0.298 C 
HETATM   25  O2  UNL     1      -2.824  28.430   9.838  1.00  0.00    -0.259 OA
BRANCH  24  26
HETATM   26  O1  UNL     1      -2.000  30.068  11.125  1.00  0.00    -0.318 OA
BRANCH  26  27
HETATM   27  C2  UNL     1      -2.539  31.325  10.898  1.00  0.00     0.174 C 
HETATM   28  C1  UNL     1      -1.727  32.252  10.080  1.00  0.00     0.034 C 
ENDBRANCH  26  27
ENDBRANCH  24  26
ENDBRANCH  17  24
ENDBRANCH   7   9
ENDBRANCH   5   7
BRANCH   4  29
HETATM   29  C12 UNL     1       5.504  25.403   5.708  1.00  0.00     0.091 C 
BRANCH  29  30
HETATM   30  C13 UNL     1       6.939  25.141   6.037  1.00  0.00     0.183 C 
HETATM   31 CL1  UNL     1       7.282  25.491   7.764  1.00  0.00    -0.108 Cl
HETATM   32 CL2  UNL     1       7.268  23.366   5.868  1.00  0.00    -0.108 Cl
ENDBRANCH  29  30
ENDBRANCH   4  29
ENDBRANCH   1   4
TORSDOF 8
ENDMDL
MODEL 5
REMARK VINA RESULT: -8.126117530      4.116      8.408
REMARK  8 active torsions:
REMARK  status: ('A' for Active; 'I' for Inactive)
REMARK    1  A    between atoms: C2_2  and  O1_3 
REMARK    2  A    between atoms: O1_3  and  C3_4 
REMARK    3  A    between atoms: C3_4  and  C4_6 
REMARK    4  A    between atoms: C8_13  and  N2_14 
REMARK    5  A    between atoms: N2_14  and  N3_16 
REMARK    6  A    between atoms: C9_18  and  C10_19 
REMARK    7  A    between atoms: C9_18  and  C12_22 
REMARK    8  A    between atoms: C12_22  and  C13_23 
ROOT
HETATM    1  C10 UNL     1       1.501  29.193   6.860  1.00  0.00     0.177 C 
HETATM    2  C11 UNL     1       1.495  30.629   6.738  1.00  0.00     0.065 C 
HETATM    3  N4  UNL     1       1.473  31.779   6.611  1.00  0.00    -0.197 NA
ENDROOT
BRANCH   1   4
HETATM    4  C9  UNL     1       1.396  28.656   8.223  1.00  0.00     0.019 C 
HETATM    5  N3  UNL     1       0.373  29.067   8.927  1.00  0.00    -0.294 N 
ATOM      6  H3  UNL     1      -0.274  29.723   8.492  1.00  0.00     0.186 HD
BRANCH   5   7
HETATM    7  N2  UNL     1       0.117  28.671  10.216  1.00  0.00    -0.132 N 
ATOM      8  H2  UNL     1       0.851  28.686  10.924  1.00  0.00     0.205 HD
BRANCH   7   9
HETATM    9  C8  UNL     1      -1.095  28.273  10.514  1.00  0.00     0.703 A 
HETATM   10  N1  UNL     1      -2.162  28.893  10.019  1.00  0.00    -0.154 N 
HETATM   11  C7  UNL     1      -3.378  28.472  10.336  1.00  0.00     0.273 A 
ATOM     12  H1  UNL     1      -2.045  29.691   9.396  1.00  0.00     0.187 HD
HETATM   13  C6  UNL     1      -3.500  27.388  11.183  1.00  0.00     0.079 A 
HETATM   14  O3  UNL     1      -4.432  29.020   9.897  1.00  0.00    -0.267 OA
HETATM   15  C5  UNL     1      -4.768  26.955  11.510  1.00  0.00     0.044 A 
HETATM   16  C15 UNL     1      -2.360  26.743  11.700  1.00  0.00     0.143 A 
HETATM   17  C4  UNL     1      -4.913  25.892  12.341  1.00  0.00     0.108 A 
HETATM   18  C17 UNL     1      -3.783  25.290  12.823  1.00  0.00     0.265 A 
HETATM   19  N6  UNL     1      -2.494  25.689  12.524  1.00  0.00    -0.302 N 
HETATM   20  O4  UNL     1      -3.877  24.292  13.604  1.00  0.00    -0.267 OA
HETATM   21  C16 UNL     1      -1.384  25.008  13.073  1.00  0.00     0.161 C 
HETATM   22  N5  UNL     1      -1.133  27.188  11.363  1.00  0.00    -0.170 N 
HETATM   23  C14 UNL     1       0.046  26.587  11.840  1.00  0.00     0.177 C 
BRANCH  17  24
HETATM   24  C3  UNL     1      -6.229  25.379  12.729  1.00  0.00     0.298 C 
HETATM   25  O2  UNL     1      -6.898  24.680  11.925  1.00  0.00    -0.259 OA
BRANCH  24  26
HETATM   26  O1  UNL     1      -6.800  25.622  13.955  1.00  0.00    -0.318 OA
BRANCH  26  27
HETATM   27  C2  UNL     1      -7.659  24.787  14.653  1.00  0.00     0.174 C 
HETATM   28  C1  UNL     1      -9.017  25.311  14.916  1.00  0.00     0.034 C 
ENDBRANCH  26  27
ENDBRANCH  24  26
ENDBRANCH  17  24
ENDBRANCH   7   9
ENDBRANCH   5   7
BRANCH   4  29
HETATM   29  C12 UNL     1       2.382  27.716   8.761  1.00  0.00     0.091 C 
BRANCH  29  30
HETATM   30  C13 UNL     1       3.436  27.233   7.818  1.00  0.00     0.183 C 
HETATM   31 CL1  UNL     1       4.898  28.273   7.894  1.00  0.00    -0.108 Cl
HETATM   32 CL2  UNL     1       4.018  25.606   8.367  1.00  0.00    -0.108 Cl
ENDBRANCH  29  30
ENDBRANCH   4  29
ENDBRANCH   1   4
TORSDOF 8
ENDMDL
