MODEL 1
REMARK VINA RESULT: -8.295150344      0.000      0.000
REMARK  8 active torsions:
REMARK  status: ('A' for Active; 'I' for Inactive)
REMARK    1  A    between atoms: C3_3  and  C4_4 
REMARK    2  A    between atoms: C4_4  and  N1_5 
REMARK    3  A    between atoms: N3_13  and  C10_14 
REMARK    4  A    between atoms: C13_18  and  O2_19 
REMARK    5  A    between atoms: C15_22  and  C16_23 
REMARK    6  A    between atoms: C16_23  and  O3_25 
REMARK    7  A    between atoms: N4_28  and  C19_29 
REMARK    8  A    between atoms: C19_29  and  C20_30 
ROOT
HETATM    1  C1  UNL     1      -3.526  24.337  11.448  1.00  0.00     0.112 C 
HETATM    2  C2  UNL     1      -2.167  24.616  11.917  1.00  0.00    -0.109 C 
HETATM    3  C3  UNL     1      -1.063  24.847  12.322  1.00  0.00    -0.087 C 
ENDROOT
BRANCH   3   4
HETATM    4  C4  UNL     1       0.273  25.141  12.837  1.00  0.00     0.223 C 
BRANCH   4   5
HETATM    5  N1  UNL     1       1.171  25.272  11.708  1.00  0.00    -0.326 N 
HETATM    6  C5  UNL     1       2.135  24.433  11.282  1.00  0.00     0.186 A 
HETATM    7  N2  UNL     1       2.740  24.937  10.197  1.00  0.00    -0.336 N 
HETATM    8  C6  UNL     1       2.184  26.116   9.889  1.00  0.00     0.139 A 
ATOM      9  H2  UNL     1       3.503  24.492   9.687  1.00  0.00     0.168 HD
HETATM   10  C7  UNL     1       1.207  26.316  10.838  1.00  0.00     0.118 A 
HETATM   11  N3  UNL     1       2.247  27.119   9.019  1.00  0.00    -0.324 N 
HETATM   12  C8  UNL     1       0.637  27.531  10.518  1.00  0.00     0.147 A 
HETATM   13  C9  UNL     1       1.291  27.999   9.403  1.00  0.00     0.067 A 
HETATM   14  O4  UNL     1      -0.350  28.446  10.908  1.00  0.00    -0.257 OA
HETATM   15  C18 UNL     1       0.644  29.316   9.084  1.00  0.00     0.181 C 
HETATM   16  N4  UNL     1      -0.537  29.324   9.879  1.00  0.00    -0.179 NA
BRANCH  16  17
HETATM   17  C19 UNL     1      -0.853  30.662  10.298  1.00  0.00     0.200 C 
BRANCH  17  18
HETATM   18  C20 UNL     1      -1.978  31.213   9.478  1.00  0.00     0.253 C 
HETATM   19  C21 UNL     1      -3.004  30.126   9.226  1.00  0.00     0.091 C 
HETATM   20  F1  UNL     1      -2.552  32.232  10.257  1.00  0.00    -0.205 F 
HETATM   21  F2  UNL     1      -1.623  31.786   8.301  1.00  0.00    -0.205 F 
ENDBRANCH  17  18
ENDBRANCH  16  17
BRANCH  11  22
HETATM   22  C10 UNL     1       3.081  27.361   7.888  1.00  0.00     0.122 C 
HETATM   23  C11 UNL     1       4.153  28.390   8.081  1.00  0.00     0.194 C 
HETATM   24  O1  UNL     1       5.134  28.300   7.094  1.00  0.00    -0.381 OA
HETATM   25  C12 UNL     1       5.502  27.002   6.834  1.00  0.00     0.157 C 
HETATM   26  C13 UNL     1       4.335  26.347   6.089  1.00  0.00     0.154 C 
HETATM   27  C15 UNL     1       5.140  26.058   7.988  1.00  0.00     0.054 C 
HETATM   28  C14 UNL     1       3.740  26.082   7.470  1.00  0.00     0.051 C 
BRANCH  26  29
HETATM   29  O2  UNL     1       3.600  27.245   5.311  1.00  0.00    -0.393 OA
ATOM     30  H2  UNL     1       4.034  27.485   4.501  1.00  0.00     0.210 HD
ENDBRANCH  26  29
BRANCH  27  31
HETATM   31  C16 UNL     1       5.902  24.761   7.820  1.00  0.00     0.121 C 
HETATM   32  C17 UNL     1       7.349  25.049   8.241  1.00  0.00     0.040 C 
BRANCH  31  33
HETATM   33  O3  UNL     1       5.377  23.807   8.688  1.00  0.00    -0.395 OA
ATOM     34  H3  UNL     1       5.015  23.089   8.181  1.00  0.00     0.210 HD
ENDBRANCH  31  33
ENDBRANCH  27  31
ENDBRANCH  11  22
ENDBRANCH   4   5
ENDBRANCH   3   4
TORSDOF 8
ENDMDL
MODEL 2
REMARK VINA RESULT: -8.154315334      3.941      8.586
REMARK  8 active torsions:
REMARK  status: ('A' for Active; 'I' for Inactive)
REMARK    1  A    between atoms: C3_3  and  C4_4 
REMARK    2  A    between atoms: C4_4  and  N1_5 
REMARK    3  A    between atoms: N3_13  and  C10_14 
REMARK    4  A    between atoms: C13_18  and  O2_19 
REMARK    5  A    between atoms: C15_22  and  C16_23 
REMARK    6  A    between atoms: C16_23  and  O3_25 
REMARK    7  A    between atoms: N4_28  and  C19_29 
REMARK    8  A    between atoms: C19_29  and  C20_30 
ROOT
HETATM    1  C1  UNL     1      -2.156  32.283  10.972  1.00  0.00     0.112 C 
HETATM    2  C2  UNL     1      -2.851  31.087  10.492  1.00  0.00    -0.109 C 
HETATM    3  C3  UNL     1      -3.419  30.118  10.078  1.00  0.00    -0.087 C 
ENDROOT
BRANCH   3   4
HETATM    4  C4  UNL     1      -4.121  28.948   9.552  1.00  0.00     0.223 C 
BRANCH   4   5
HETATM    5  N1  UNL     1      -4.125  27.927  10.579  1.00  0.00    -0.326 N 
HETATM    6  C5  UNL     1      -5.158  27.432  11.289  1.00  0.00     0.186 A 
HETATM    7  N2  UNL     1      -4.725  26.497  12.146  1.00  0.00    -0.336 N 
HETATM    8  C6  UNL     1      -3.399  26.359  12.016  1.00  0.00     0.139 A 
ATOM      9  H2  UNL     1      -5.312  25.974  12.795  1.00  0.00     0.168 HD
HETATM   10  C7  UNL     1      -3.034  27.255  11.037  1.00  0.00     0.118 A 
HETATM   11  N3  UNL     1      -2.356  25.683  12.486  1.00  0.00    -0.324 N 
HETATM   12  C8  UNL     1      -1.669  27.111  10.905  1.00  0.00     0.147 A 
HETATM   13  C9  UNL     1      -1.280  26.144  11.802  1.00  0.00     0.067 A 
HETATM   14  O4  UNL     1      -0.552  27.581  10.203  1.00  0.00    -0.257 OA
HETATM   15  C18 UNL     1       0.205  26.012  11.630  1.00  0.00     0.181 C 
HETATM   16  N4  UNL     1       0.477  26.709  10.419  1.00  0.00    -0.179 NA
BRANCH  16  17
HETATM   17  C19 UNL     1       1.772  27.330  10.474  1.00  0.00     0.200 C 
BRANCH  17  18
HETATM   18  C20 UNL     1       2.520  27.090   9.199  1.00  0.00     0.253 C 
HETATM   19  C21 UNL     1       2.183  28.177   8.199  1.00  0.00     0.091 C 
HETATM   20  F1  UNL     1       3.881  27.165   9.538  1.00  0.00    -0.205 F 
HETATM   21  F2  UNL     1       2.336  25.872   8.629  1.00  0.00    -0.205 F 
ENDBRANCH  17  18
ENDBRANCH  16  17
BRANCH  11  22
HETATM   22  C10 UNL     1      -2.235  24.674  13.486  1.00  0.00     0.122 C 
HETATM   23  C11 UNL     1      -1.785  25.148  14.835  1.00  0.00     0.194 C 
HETATM   24  O1  UNL     1      -2.049  24.202  15.825  1.00  0.00    -0.381 OA
HETATM   25  C12 UNL     1      -3.300  23.646  15.702  1.00  0.00     0.157 C 
HETATM   26  C13 UNL     1      -3.261  22.725  14.479  1.00  0.00     0.154 C 
HETATM   27  C15 UNL     1      -4.240  24.522  14.865  1.00  0.00     0.054 C 
HETATM   28  C14 UNL     1      -3.551  23.978  13.657  1.00  0.00     0.051 C 
BRANCH  26  29
HETATM   29  O2  UNL     1      -2.002  22.165  14.246  1.00  0.00    -0.393 OA
ATOM     30  H2  UNL     1      -1.478  22.660  13.629  1.00  0.00     0.210 HD
ENDBRANCH  26  29
BRANCH  27  31
HETATM   31  C16 UNL     1      -5.666  24.068  15.091  1.00  0.00     0.121 C 
HETATM   32  C17 UNL     1      -6.091  24.633  16.453  1.00  0.00     0.040 C 
BRANCH  31  33
HETATM   33  O3  UNL     1      -6.485  24.627  14.113  1.00  0.00    -0.395 OA
ATOM     34  H3  UNL     1      -7.214  24.041  13.943  1.00  0.00     0.210 HD
ENDBRANCH  31  33
ENDBRANCH  27  31
ENDBRANCH  11  22
ENDBRANCH   4   5
ENDBRANCH   3   4
TORSDOF 8
ENDMDL
MODEL 3
REMARK VINA RESULT: -8.025435743      3.364      8.158
REMARK  8 active torsions:
REMARK  status: ('A' for Active; 'I' for Inactive)
REMARK    1  A    between atoms: C3_3  and  C4_4 
REMARK    2  A    between atoms: C4_4  and  N1_5 
REMARK    3  A    between atoms: N3_13  and  C10_14 
REMARK    4  A    between atoms: C13_18  and  O2_19 
REMARK    5  A    between atoms: C15_22  and  C16_23 
REMARK    6  A    between atoms: C16_23  and  O3_25 
REMARK    7  A    between atoms: N4_28  and  C19_29 
REMARK    8  A    between atoms: C19_29  and  C20_30 
ROOT
HETATM    1  C1  UNL     1      -1.131  32.188  10.095  1.00  0.00     0.112 C 
HETATM    2  C2  UNL     1      -2.174  31.192   9.840  1.00  0.00    -0.109 C 
HETATM    3  C3  UNL     1      -3.035  30.391   9.614  1.00  0.00    -0.087 C 
ENDROOT
BRANCH   3   4
HETATM    4  C4  UNL     1      -4.098  29.430   9.324  1.00  0.00     0.223 C 
BRANCH   4   5
HETATM    5  N1  UNL     1      -4.033  28.376  10.315  1.00  0.00    -0.326 N 
HETATM    6  C5  UNL     1      -5.001  27.903  11.124  1.00  0.00     0.186 A 
HETATM    7  N2  UNL     1      -4.519  26.922  11.899  1.00  0.00    -0.336 N 
HETATM    8  C6  UNL     1      -3.225  26.730  11.613  1.00  0.00     0.139 A 
ATOM      9  H2  UNL     1      -5.053  26.404  12.596  1.00  0.00     0.168 HD
HETATM   10  C7  UNL     1      -2.932  27.641  10.624  1.00  0.00     0.118 A 
HETATM   11  N3  UNL     1      -2.168  25.993  11.940  1.00  0.00    -0.324 N 
HETATM   12  C8  UNL     1      -1.598  27.441  10.332  1.00  0.00     0.147 A 
HETATM   13  C9  UNL     1      -1.156  26.428  11.150  1.00  0.00     0.067 A 
HETATM   14  O4  UNL     1      -0.547  27.885   9.519  1.00  0.00    -0.257 OA
HETATM   15  C18 UNL     1       0.291  26.236  10.804  1.00  0.00     0.181 C 
HETATM   16  N4  UNL     1       0.456  26.962   9.590  1.00  0.00    -0.179 NA
BRANCH  16  17
HETATM   17  C19 UNL     1       1.777  27.523   9.513  1.00  0.00     0.200 C 
BRANCH  17  18
HETATM   18  C20 UNL     1       1.930  28.327   8.259  1.00  0.00     0.253 C 
HETATM   19  C21 UNL     1       3.382  28.321   7.825  1.00  0.00     0.091 C 
HETATM   20  F1  UNL     1       1.145  27.676   7.293  1.00  0.00    -0.205 F 
HETATM   21  F2  UNL     1       1.477  29.604   8.321  1.00  0.00    -0.205 F 
ENDBRANCH  17  18
ENDBRANCH  16  17
BRANCH  11  22
HETATM   22  C10 UNL     1      -1.982  24.946  12.890  1.00  0.00     0.122 C 
HETATM   23  C11 UNL     1      -1.503  25.376  14.243  1.00  0.00     0.194 C 
HETATM   24  O1  UNL     1      -1.705  24.380  15.199  1.00  0.00    -0.381 OA
HETATM   25  C12 UNL     1      -2.941  23.790  15.092  1.00  0.00     0.157 C 
HETATM   26  C13 UNL     1      -2.914  22.924  13.829  1.00  0.00     0.154 C 
HETATM   27  C15 UNL     1      -3.935  24.669  14.325  1.00  0.00     0.054 C 
HETATM   28  C14 UNL     1      -3.270  24.201  13.073  1.00  0.00     0.051 C 
BRANCH  26  29
HETATM   29  O2  UNL     1      -1.647  22.415  13.531  1.00  0.00    -0.393 OA
ATOM     30  H2  UNL     1      -1.564  22.111  12.635  1.00  0.00     0.210 HD
ENDBRANCH  26  29
BRANCH  27  31
HETATM   31  C16 UNL     1      -5.338  24.160  14.576  1.00  0.00     0.121 C 
HETATM   32  C17 UNL     1      -5.674  24.513  16.032  1.00  0.00     0.040 C 
BRANCH  31  33
HETATM   33  O3  UNL     1      -6.227  24.840  13.747  1.00  0.00    -0.395 OA
ATOM     34  H3  UNL     1      -6.563  24.241  13.090  1.00  0.00     0.210 HD
ENDBRANCH  31  33
ENDBRANCH  27  31
ENDBRANCH  11  22
ENDBRANCH   4   5
ENDBRANCH   3   4
TORSDOF 8
ENDMDL
MODEL 4
REMARK VINA RESULT: -7.918521092      2.405      5.840
REMARK  8 active torsions:
REMARK  status: ('A' for Active; 'I' for Inactive)
REMARK    1  A    between atoms: C3_3  and  C4_4 
REMARK    2  A    between atoms: C4_4  and  N1_5 
REMARK    3  A    between atoms: N3_13  and  C10_14 
REMARK    4  A    between atoms: C13_18  and  O2_19 
REMARK    5  A    between atoms: C15_22  and  C16_23 
REMARK    6  A    between atoms: C16_23  and  O3_25 
REMARK    7  A    between atoms: N4_28  and  C19_29 
REMARK    8  A    between atoms: C19_29  and  C20_30 
ROOT
HETATM    1  C1  UNL     1       4.063  26.910   4.096  1.00  0.00     0.112 C 
HETATM    2  C2  UNL     1       3.946  27.231   5.520  1.00  0.00    -0.109 C 
HETATM    3  C3  UNL     1       3.852  27.472   6.690  1.00  0.00    -0.087 C 
ENDROOT
BRANCH   3   4
HETATM    4  C4  UNL     1       3.731  27.740   8.122  1.00  0.00     0.223 C 
BRANCH   4   5
HETATM    5  N1  UNL     1       2.902  26.705   8.704  1.00  0.00    -0.326 N 
HETATM    6  C5  UNL     1       3.178  25.403   8.911  1.00  0.00     0.186 A 
HETATM    7  N2  UNL     1       2.127  24.790   9.473  1.00  0.00    -0.336 N 
HETATM    8  C6  UNL     1       1.140  25.679   9.648  1.00  0.00     0.139 A 
ATOM      9  H2  UNL     1       2.086  23.803   9.727  1.00  0.00     0.168 HD
HETATM   10  C7  UNL     1       1.633  26.869   9.165  1.00  0.00     0.118 A 
HETATM   11  N3  UNL     1      -0.101  25.802  10.108  1.00  0.00    -0.324 N 
HETATM   12  C8  UNL     1       0.614  27.782   9.346  1.00  0.00     0.147 A 
HETATM   13  C9  UNL     1      -0.434  27.103   9.924  1.00  0.00     0.067 A 
HETATM   14  O4  UNL     1       0.262  29.125   9.160  1.00  0.00    -0.257 OA
HETATM   15  C18 UNL     1      -1.518  28.124  10.109  1.00  0.00     0.181 C 
HETATM   16  N4  UNL     1      -0.862  29.370   9.895  1.00  0.00    -0.179 NA
BRANCH  16  17
HETATM   17  C19 UNL     1      -1.762  30.317   9.295  1.00  0.00     0.200 C 
BRANCH  17  18
HETATM   18  C20 UNL     1      -1.512  31.689   9.839  1.00  0.00     0.253 C 
HETATM   19  C21 UNL     1      -2.581  32.037  10.854  1.00  0.00     0.091 C 
HETATM   20  F1  UNL     1      -0.260  31.624  10.474  1.00  0.00    -0.205 F 
HETATM   21  F2  UNL     1      -1.419  32.680   8.916  1.00  0.00    -0.205 F 
ENDBRANCH  17  18
ENDBRANCH  16  17
BRANCH  11  22
HETATM   22  C10 UNL     1      -1.010  24.869  10.689  1.00  0.00     0.122 C 
HETATM   23  C11 UNL     1      -1.668  23.924   9.731  1.00  0.00     0.194 C 
HETATM   24  O1  UNL     1      -2.229  22.832  10.392  1.00  0.00    -0.381 OA
HETATM   25  C12 UNL     1      -1.400  22.321  11.362  1.00  0.00     0.157 C 
HETATM   26  C13 UNL     1      -1.385  23.331  12.513  1.00  0.00     0.154 C 
HETATM   27  C15 UNL     1       0.062  22.726  11.143  1.00  0.00     0.054 C 
HETATM   28  C14 UNL     1      -0.296  24.054  11.724  1.00  0.00     0.051 C 
BRANCH  26  29
HETATM   29  O2  UNL     1      -2.576  24.049  12.638  1.00  0.00    -0.393 OA
ATOM     30  H2  UNL     1      -3.116  23.761  13.364  1.00  0.00     0.210 HD
ENDBRANCH  26  29
BRANCH  27  31
HETATM   31  C16 UNL     1       0.951  21.837  11.985  1.00  0.00     0.121 C 
HETATM   32  C17 UNL     1       1.382  20.673  11.082  1.00  0.00     0.040 C 
BRANCH  31  33
HETATM   33  O3  UNL     1       2.091  22.547  12.355  1.00  0.00    -0.395 OA
ATOM     34  H3  UNL     1       2.818  21.943  12.452  1.00  0.00     0.210 HD
ENDBRANCH  31  33
ENDBRANCH  27  31
ENDBRANCH  11  22
ENDBRANCH   4   5
ENDBRANCH   3   4
TORSDOF 8
ENDMDL
MODEL 5
REMARK VINA RESULT: -7.908509753      4.192      7.109
REMARK  8 active torsions:
REMARK  status: ('A' for Active; 'I' for Inactive)
REMARK    1  A    between atoms: C3_3  and  C4_4 
REMARK    2  A    between atoms: C4_4  and  N1_5 
REMARK    3  A    between atoms: N3_13  and  C10_14 
REMARK    4  A    between atoms: C13_18  and  O2_19 
REMARK    5  A    between atoms: C15_22  and  C16_23 
REMARK    6  A    between atoms: C16_23  and  O3_25 
REMARK    7  A    between atoms: N4_28  and  C19_29 
REMARK    8  A    between atoms: C19_29  and  C20_30 
ROOT
HETATM    1  C1  UNL     1      -2.143  32.184  10.544  1.00  0.00     0.112 C 
HETATM    2  C2  UNL     1      -2.752  30.867  10.741  1.00  0.00    -0.109 C 
HETATM    3  C3  UNL     1      -3.243  29.790  10.924  1.00  0.00    -0.087 C 
ENDROOT
BRANCH   3   4
HETATM    4  C4  UNL     1      -3.827  28.472  11.169  1.00  0.00     0.223 C 
BRANCH   4   5
HETATM    5  N1  UNL     1      -2.804  27.476  10.927  1.00  0.00    -0.326 N 
HETATM    6  C5  UNL     1      -1.799  27.482  10.030  1.00  0.00     0.186 A 
HETATM    7  N2  UNL     1      -1.077  26.358  10.134  1.00  0.00    -0.336 N 
HETATM    8  C6  UNL     1      -1.593  25.591  11.103  1.00  0.00     0.139 A 
ATOM      9  H2  UNL     1      -0.264  26.123   9.566  1.00  0.00     0.168 HD
HETATM   10  C7  UNL     1      -2.670  26.296  11.591  1.00  0.00     0.118 A 
HETATM   11  N3  UNL     1      -1.432  24.430  11.732  1.00  0.00    -0.324 N 
HETATM   12  C8  UNL     1      -3.199  25.504  12.589  1.00  0.00     0.147 A 
HETATM   13  C9  UNL     1      -2.424  24.370  12.653  1.00  0.00     0.067 A 
HETATM   14  O4  UNL     1      -4.221  25.434  13.544  1.00  0.00    -0.257 OA
HETATM   15  C18 UNL     1      -3.025  23.536  13.747  1.00  0.00     0.181 C 
HETATM   16  N4  UNL     1      -3.913  24.427  14.414  1.00  0.00    -0.179 NA
BRANCH  16  17
HETATM   17  C19 UNL     1      -5.055  23.716  14.919  1.00  0.00     0.200 C 
BRANCH  17  18
HETATM   18  C20 UNL     1      -4.927  23.504  16.396  1.00  0.00     0.253 C 
HETATM   19  C21 UNL     1      -4.554  22.061  16.672  1.00  0.00     0.091 C 
HETATM   20  F1  UNL     1      -3.883  24.349  16.811  1.00  0.00    -0.205 F 
HETATM   21  F2  UNL     1      -6.011  23.845  17.136  1.00  0.00    -0.205 F 
ENDBRANCH  17  18
ENDBRANCH  16  17
BRANCH  11  22
HETATM   22  C10 UNL     1      -0.481  23.378  11.580  1.00  0.00     0.122 C 
HETATM   23  C11 UNL     1      -0.534  22.640  10.278  1.00  0.00     0.194 C 
HETATM   24  O1  UNL     1       0.632  21.906  10.057  1.00  0.00    -0.381 OA
HETATM   25  C12 UNL     1       1.767  22.614  10.370  1.00  0.00     0.157 C 
HETATM   26  C13 UNL     1       1.821  22.718  11.897  1.00  0.00     0.154 C 
HETATM   27  C15 UNL     1       1.514  24.127  10.395  1.00  0.00     0.054 C 
HETATM   28  C14 UNL     1       0.903  23.928  11.742  1.00  0.00     0.051 C 
BRANCH  26  29
HETATM   29  O2  UNL     1       1.232  21.631  12.548  1.00  0.00    -0.393 OA
ATOM     30  H2  UNL     1       1.859  20.976  12.831  1.00  0.00     0.210 HD
ENDBRANCH  26  29
BRANCH  27  31
HETATM   31  C16 UNL     1       2.844  24.848  10.355  1.00  0.00     0.121 C 
HETATM   32  C17 UNL     1       3.049  25.303   8.903  1.00  0.00     0.040 C 
BRANCH  31  33
HETATM   33  O3  UNL     1       2.774  25.982  11.161  1.00  0.00    -0.395 OA
ATOM     34  H3  UNL     1       2.970  25.740  12.059  1.00  0.00     0.210 HD
ENDBRANCH  31  33
ENDBRANCH  27  31
ENDBRANCH  11  22
ENDBRANCH   4   5
ENDBRANCH   3   4
TORSDOF 8
ENDMDL
