MODEL 1
REMARK VINA RESULT: -8.640337604      0.000      0.000
REMARK  9 active torsions:
REMARK  status: ('A' for Active; 'I' for Inactive)
REMARK    1  A    between atoms: N2_5  and  C3_6 
REMARK    2  A    between atoms: C3_6  and  C4_7 
REMARK    3  A    between atoms: C4_7  and  O2_8 
REMARK    4  A    between atoms: C4_7  and  O3_10 
REMARK    5  A    between atoms: C4_7  and  C5_12 
REMARK    6  A    between atoms: C5_12  and  N3_13 
REMARK    7  A    between atoms: N3_13  and  C6_15 
REMARK    8  A    between atoms: N5_23  and  C11_24 
REMARK    9  A    between atoms: C11_24  and  C12_25 
ROOT
HETATM    1  C5  UNL     1       1.634  24.982  11.660  1.00  0.00     0.191 C 
ENDROOT
BRANCH   1   2
HETATM    2  C4  UNL     1       0.252  25.459  12.127  1.00  0.00     0.192 C 
BRANCH   2   3
HETATM    3  C3  UNL     1      -0.687  25.297  10.949  1.00  0.00     0.204 C 
BRANCH   3   4
HETATM    4  N2  UNL     1      -2.010  25.778  11.238  1.00  0.00    -0.292 N 
HETATM    5  C2  UNL     1      -2.930  25.120  11.943  1.00  0.00     0.329 A 
HETATM    6  N1  UNL     1      -4.017  25.909  11.979  1.00  0.00    -0.302 N 
HETATM    7  O1  UNL     1      -2.863  23.979  12.493  1.00  0.00    -0.246 OA
HETATM    8  C1  UNL     1      -5.270  25.616  12.632  1.00  0.00     0.161 C 
HETATM    9  C19 UNL     1      -3.785  27.062  11.301  1.00  0.00     0.065 A 
HETATM   10  C14 UNL     1      -2.486  26.968  10.826  1.00  0.00     0.066 A 
HETATM   11  C18 UNL     1      -4.529  28.191  11.029  1.00  0.00     0.032 A 
HETATM   12  C15 UNL     1      -1.984  28.022  10.091  1.00  0.00     0.032 A 
HETATM   13  C16 UNL     1      -2.736  29.152   9.820  1.00  0.00     0.002 A 
HETATM   14  C17 UNL     1      -4.034  29.246  10.295  1.00  0.00     0.002 A 
ENDBRANCH   3   4
ENDBRANCH   2   3
BRANCH   2  15
HETATM   15  O2  UNL     1      -0.115  24.603  13.162  1.00  0.00    -0.363 OA
ATOM     16  H2  UNL     1       0.260  23.741  13.027  1.00  0.00     0.213 HD
ENDBRANCH   2  15
BRANCH   2  17
HETATM   17  O3  UNL     1       0.282  26.747  12.620  1.00  0.00    -0.363 OA
ATOM     18  H3  UNL     1       0.164  26.786  13.562  1.00  0.00     0.213 HD
ENDBRANCH   2  17
ENDBRANCH   1   2
BRANCH   1  19
HETATM   19  N3  UNL     1       2.469  26.068  11.266  1.00  0.00    -0.366 N 
ATOM     20  H3  UNL     1       2.906  26.596  12.020  1.00  0.00     0.161 HD
BRANCH  19  21
HETATM   21  C6  UNL     1       2.734  26.458  10.068  1.00  0.00     0.171 A 
HETATM   22  N4  UNL     1       3.535  25.749   9.295  1.00  0.00    -0.336 N 
HETATM   23  C7  UNL     1       3.823  26.160   8.016  1.00  0.00     0.068 A 
ATOM     24  H4  UNL     1       3.945  24.885   9.651  1.00  0.00     0.168 HD
HETATM   25  C8  UNL     1       4.626  25.522   7.131  1.00  0.00     0.039 A 
HETATM   26  C10 UNL     1       3.243  27.316   7.612  1.00  0.00     0.106 A 
HETATM   27  C9  UNL     1       4.779  26.106   5.900  1.00  0.00     0.054 A 
HETATM   28  S1  UNL     1       3.811  27.507   6.020  1.00  0.00    -0.082 SA
HETATM   29  N5  UNL     1       2.416  28.055   8.402  1.00  0.00    -0.298 N 
HETATM   30  C13 UNL     1       2.130  27.663   9.647  1.00  0.00     0.292 A 
HETATM   31  O4  UNL     1       1.377  28.320  10.390  1.00  0.00    -0.264 OA
BRANCH  29  32
HETATM   32  C11 UNL     1       1.875  29.248   7.850  1.00  0.00     0.204 C 
BRANCH  32  33
HETATM   33  C12 UNL     1       0.530  29.090   7.211  1.00  0.00     0.371 C 
HETATM   34  F1  UNL     1      -0.325  30.008   7.824  1.00  0.00    -0.213 F 
HETATM   35  F2  UNL     1      -0.019  27.855   7.370  1.00  0.00    -0.213 F 
ENDBRANCH  32  33
ENDBRANCH  29  32
ENDBRANCH  19  21
ENDBRANCH   1  19
TORSDOF 9
ENDMDL
MODEL 2
REMARK VINA RESULT: -8.241144661      3.070      4.961
REMARK  9 active torsions:
REMARK  status: ('A' for Active; 'I' for Inactive)
REMARK    1  A    between atoms: N2_5  and  C3_6 
REMARK    2  A    between atoms: C3_6  and  C4_7 
REMARK    3  A    between atoms: C4_7  and  O2_8 
REMARK    4  A    between atoms: C4_7  and  O3_10 
REMARK    5  A    between atoms: C4_7  and  C5_12 
REMARK    6  A    between atoms: C5_12  and  N3_13 
REMARK    7  A    between atoms: N3_13  and  C6_15 
REMARK    8  A    between atoms: N5_23  and  C11_24 
REMARK    9  A    between atoms: C11_24  and  C12_25 
ROOT
HETATM    1  C5  UNL     1      -0.747  25.557  11.954  1.00  0.00     0.191 C 
ENDROOT
BRANCH   1   2
HETATM    2  C4  UNL     1      -1.708  25.389  13.138  1.00  0.00     0.192 C 
BRANCH   2   3
HETATM    3  C3  UNL     1      -2.676  24.287  12.762  1.00  0.00     0.204 C 
BRANCH   3   4
HETATM    4  N2  UNL     1      -3.846  24.282  13.596  1.00  0.00    -0.292 N 
HETATM    5  C2  UNL     1      -4.929  25.035  13.407  1.00  0.00     0.329 A 
HETATM    6  N1  UNL     1      -5.782  24.730  14.399  1.00  0.00    -0.302 N 
HETATM    7  O1  UNL     1      -5.171  25.887  12.499  1.00  0.00    -0.246 OA
HETATM    8  C1  UNL     1      -7.093  25.296  14.609  1.00  0.00     0.161 C 
HETATM    9  C19 UNL     1      -5.241  23.788  15.213  1.00  0.00     0.065 A 
HETATM   10  C14 UNL     1      -3.991  23.505  14.686  1.00  0.00     0.066 A 
HETATM   11  C18 UNL     1      -5.667  23.130  16.349  1.00  0.00     0.032 A 
HETATM   12  C15 UNL     1      -3.212  22.564  15.328  1.00  0.00     0.032 A 
HETATM   13  C16 UNL     1      -3.644  21.907  16.468  1.00  0.00     0.002 A 
HETATM   14  C17 UNL     1      -4.894  22.190  16.994  1.00  0.00     0.002 A 
ENDBRANCH   3   4
ENDBRANCH   2   3
BRANCH   2  15
HETATM   15  O2  UNL     1      -0.919  24.995  14.215  1.00  0.00    -0.363 OA
ATOM     16  H2  UNL     1      -0.134  25.528  14.264  1.00  0.00     0.213 HD
ENDBRANCH   2  15
BRANCH   2  17
HETATM   17  O3  UNL     1      -2.338  26.570  13.472  1.00  0.00    -0.363 OA
ATOM     18  H3  UNL     1      -2.829  26.511  14.284  1.00  0.00     0.213 HD
ENDBRANCH   2  17
ENDBRANCH   1   2
BRANCH   1  19
HETATM   19  N3  UNL     1      -1.410  26.050  10.794  1.00  0.00    -0.366 N 
ATOM     20  H3  UNL     1      -2.186  25.488  10.444  1.00  0.00     0.161 HD
BRANCH  19  21
HETATM   21  C6  UNL     1      -1.144  27.125  10.135  1.00  0.00     0.171 A 
HETATM   22  N4  UNL     1      -0.051  27.205   9.399  1.00  0.00    -0.336 N 
HETATM   23  C7  UNL     1       0.239  28.348   8.695  1.00  0.00     0.068 A 
ATOM     24  H4  UNL     1       0.585  26.409   9.353  1.00  0.00     0.168 HD
HETATM   25  C8  UNL     1       1.324  28.551   7.909  1.00  0.00     0.039 A 
HETATM   26  C10 UNL     1      -0.651  29.363   8.805  1.00  0.00     0.106 A 
HETATM   27  C9  UNL     1       1.423  29.771   7.292  1.00  0.00     0.054 A 
HETATM   28  S1  UNL     1       0.017  30.581   7.823  1.00  0.00    -0.082 SA
HETATM   29  N5  UNL     1      -1.781  29.291   9.561  1.00  0.00    -0.298 N 
HETATM   30  C13 UNL     1      -2.072  28.183  10.249  1.00  0.00     0.292 A 
HETATM   31  O4  UNL     1      -3.098  28.089  10.949  1.00  0.00    -0.264 OA
BRANCH  29  32
HETATM   32  C11 UNL     1      -2.628  30.431   9.585  1.00  0.00     0.204 C 
BRANCH  32  33
HETATM   33  C12 UNL     1      -2.263  31.463  10.607  1.00  0.00     0.371 C 
HETATM   34  F1  UNL     1      -3.429  31.774  11.311  1.00  0.00    -0.213 F 
HETATM   35  F2  UNL     1      -1.786  32.623  10.079  1.00  0.00    -0.213 F 
ENDBRANCH  32  33
ENDBRANCH  29  32
ENDBRANCH  19  21
ENDBRANCH   1  19
TORSDOF 9
ENDMDL
MODEL 3
REMARK VINA RESULT: -8.222651925      2.933      4.655
REMARK  9 active torsions:
REMARK  status: ('A' for Active; 'I' for Inactive)
REMARK    1  A    between atoms: N2_5  and  C3_6 
REMARK    2  A    between atoms: C3_6  and  C4_7 
REMARK    3  A    between atoms: C4_7  and  O2_8 
REMARK    4  A    between atoms: C4_7  and  O3_10 
REMARK    5  A    between atoms: C4_7  and  C5_12 
REMARK    6  A    between atoms: C5_12  and  N3_13 
REMARK    7  A    between atoms: N3_13  and  C6_15 
REMARK    8  A    between atoms: N5_23  and  C11_24 
REMARK    9  A    between atoms: C11_24  and  C12_25 
ROOT
HETATM    1  C5  UNL     1      -0.851  25.471  11.905  1.00  0.00     0.191 C 
ENDROOT
BRANCH   1   2
HETATM    2  C4  UNL     1      -1.671  25.348  13.195  1.00  0.00     0.192 C 
BRANCH   2   3
HETATM    3  C3  UNL     1      -2.539  24.115  13.045  1.00  0.00     0.204 C 
BRANCH   3   4
HETATM    4  N2  UNL     1      -3.509  24.000  14.100  1.00  0.00    -0.292 N 
HETATM    5  C2  UNL     1      -3.263  23.529  15.322  1.00  0.00     0.329 A 
HETATM    6  N1  UNL     1      -4.426  23.590  15.992  1.00  0.00    -0.302 N 
HETATM    7  O1  UNL     1      -2.179  23.096  15.818  1.00  0.00    -0.246 OA
HETATM    8  C1  UNL     1      -4.651  23.186  17.360  1.00  0.00     0.161 C 
HETATM    9  C19 UNL     1      -5.402  24.096  15.198  1.00  0.00     0.065 A 
HETATM   10  C14 UNL     1      -4.801  24.358  13.977  1.00  0.00     0.066 A 
HETATM   11  C18 UNL     1      -6.744  24.369  15.368  1.00  0.00     0.032 A 
HETATM   12  C15 UNL     1      -5.578  24.888  12.968  1.00  0.00     0.032 A 
HETATM   13  C16 UNL     1      -6.924  25.160  13.144  1.00  0.00     0.002 A 
HETATM   14  C17 UNL     1      -7.526  24.898  14.365  1.00  0.00     0.002 A 
ENDBRANCH   3   4
ENDBRANCH   2   3
BRANCH   2  15
HETATM   15  O2  UNL     1      -0.746  25.168  14.219  1.00  0.00    -0.363 OA
ATOM     16  H2  UNL     1      -0.142  25.901  14.252  1.00  0.00     0.213 HD
ENDBRANCH   2  15
BRANCH   2  17
HETATM   17  O3  UNL     1      -2.399  26.489  13.464  1.00  0.00    -0.363 OA
ATOM     18  H3  UNL     1      -2.941  26.763  12.733  1.00  0.00     0.213 HD
ENDBRANCH   2  17
ENDBRANCH   1   2
BRANCH   1  19
HETATM   19  N3  UNL     1      -1.601  26.066  10.850  1.00  0.00    -0.366 N 
ATOM     20  H3  UNL     1      -2.465  25.592  10.587  1.00  0.00     0.161 HD
BRANCH  19  21
HETATM   21  C6  UNL     1      -1.314  27.134  10.189  1.00  0.00     0.171 A 
HETATM   22  N4  UNL     1      -0.234  27.182   9.431  1.00  0.00    -0.336 N 
HETATM   23  C7  UNL     1       0.078  28.317   8.725  1.00  0.00     0.068 A 
ATOM     24  H4  UNL     1       0.375  26.366   9.370  1.00  0.00     0.168 HD
HETATM   25  C8  UNL     1       1.153  28.489   7.917  1.00  0.00     0.039 A 
HETATM   26  C10 UNL     1      -0.776  29.361   8.856  1.00  0.00     0.106 A 
HETATM   27  C9  UNL     1       1.279  29.707   7.302  1.00  0.00     0.054 A 
HETATM   28  S1  UNL     1      -0.089  30.560   7.865  1.00  0.00    -0.082 SA
HETATM   29  N5  UNL     1      -1.892  29.321   9.634  1.00  0.00    -0.298 N 
HETATM   30  C13 UNL     1      -2.205  28.221  10.325  1.00  0.00     0.292 A 
HETATM   31  O4  UNL     1      -3.219  28.158  11.045  1.00  0.00    -0.264 OA
BRANCH  29  32
HETATM   32  C11 UNL     1      -2.702  30.488   9.680  1.00  0.00     0.204 C 
BRANCH  32  33
HETATM   33  C12 UNL     1      -2.268  31.515  10.680  1.00  0.00     0.371 C 
HETATM   34  F1  UNL     1      -3.411  31.928  11.367  1.00  0.00    -0.213 F 
HETATM   35  F2  UNL     1      -1.704  32.624  10.127  1.00  0.00    -0.213 F 
ENDBRANCH  32  33
ENDBRANCH  29  32
ENDBRANCH  19  21
ENDBRANCH   1  19
TORSDOF 9
ENDMDL
MODEL 4
REMARK VINA RESULT: -8.216940375      4.575      7.860
REMARK  9 active torsions:
REMARK  status: ('A' for Active; 'I' for Inactive)
REMARK    1  A    between atoms: N2_5  and  C3_6 
REMARK    2  A    between atoms: C3_6  and  C4_7 
REMARK    3  A    between atoms: C4_7  and  O2_8 
REMARK    4  A    between atoms: C4_7  and  O3_10 
REMARK    5  A    between atoms: C4_7  and  C5_12 
REMARK    6  A    between atoms: C5_12  and  N3_13 
REMARK    7  A    between atoms: N3_13  and  C6_15 
REMARK    8  A    between atoms: N5_23  and  C11_24 
REMARK    9  A    between atoms: C11_24  and  C12_25 
ROOT
HETATM    1  C5  UNL     1      -0.271  25.467  12.275  1.00  0.00     0.191 C 
ENDROOT
BRANCH   1   2
HETATM    2  C4  UNL     1       0.103  26.822  11.660  1.00  0.00     0.192 C 
BRANCH   2   3
HETATM    3  C3  UNL     1      -0.940  27.124  10.603  1.00  0.00     0.204 C 
BRANCH   3   4
HETATM    4  N2  UNL     1      -0.625  28.308   9.851  1.00  0.00    -0.292 N 
HETATM    5  C2  UNL     1       0.224  28.364   8.826  1.00  0.00     0.329 A 
HETATM    6  N1  UNL     1       0.232  29.642   8.410  1.00  0.00    -0.302 N 
HETATM    7  O1  UNL     1       0.918  27.442   8.300  1.00  0.00    -0.246 OA
HETATM    8  C1  UNL     1       1.005  30.185   7.318  1.00  0.00     0.161 C 
HETATM    9  C19 UNL     1      -0.610  30.390   9.167  1.00  0.00     0.065 A 
HETATM   10  C14 UNL     1      -1.158  29.520  10.096  1.00  0.00     0.066 A 
HETATM   11  C18 UNL     1      -0.979  31.720   9.179  1.00  0.00     0.032 A 
HETATM   12  C15 UNL     1      -2.064  30.025  11.006  1.00  0.00     0.032 A 
HETATM   13  C16 UNL     1      -2.430  31.360  11.014  1.00  0.00     0.002 A 
HETATM   14  C17 UNL     1      -1.881  32.230  10.085  1.00  0.00     0.002 A 
ENDBRANCH   3   4
ENDBRANCH   2   3
BRANCH   2  15
HETATM   15  O2  UNL     1       0.023  27.745  12.698  1.00  0.00    -0.363 OA
ATOM     16  H2  UNL     1       0.807  28.282  12.726  1.00  0.00     0.213 HD
ENDBRANCH   2  15
BRANCH   2  17
HETATM   17  O3  UNL     1       1.391  26.836  11.166  1.00  0.00    -0.363 OA
ATOM     18  H3  UNL     1       1.845  27.652  11.338  1.00  0.00     0.213 HD
ENDBRANCH   2  17
ENDBRANCH   1   2
BRANCH   1  19
HETATM   19  N3  UNL     1      -1.040  25.615  13.465  1.00  0.00    -0.366 N 
ATOM     20  H3  UNL     1      -0.555  26.010  14.270  1.00  0.00     0.161 HD
BRANCH  19  21
HETATM   21  C6  UNL     1      -2.279  25.307  13.642  1.00  0.00     0.171 A 
HETATM   22  N4  UNL     1      -3.181  25.611  12.728  1.00  0.00    -0.336 N 
HETATM   23  C7  UNL     1      -4.502  25.286  12.909  1.00  0.00     0.068 A 
ATOM     24  H4  UNL     1      -2.892  26.093  11.876  1.00  0.00     0.168 HD
HETATM   25  C8  UNL     1      -5.517  25.544  12.049  1.00  0.00     0.039 A 
HETATM   26  C10 UNL     1      -4.810  24.647  14.065  1.00  0.00     0.106 A 
HETATM   27  C9  UNL     1      -6.769  25.132  12.426  1.00  0.00     0.054 A 
HETATM   28  S1  UNL     1      -6.491  24.410  13.947  1.00  0.00    -0.082 SA
HETATM   29  N5  UNL     1      -3.888  24.329  15.013  1.00  0.00    -0.298 N 
HETATM   30  C13 UNL     1      -2.599  24.641  14.845  1.00  0.00     0.292 A 
HETATM   31  O4  UNL     1      -1.735  24.362  15.696  1.00  0.00    -0.264 OA
BRANCH  29  32
HETATM   32  C11 UNL     1      -4.349  23.658  16.177  1.00  0.00     0.204 C 
BRANCH  32  33
HETATM   33  C12 UNL     1      -4.438  22.168  16.049  1.00  0.00     0.371 C 
HETATM   34  F1  UNL     1      -3.984  21.625  17.253  1.00  0.00    -0.213 F 
HETATM   35  F2  UNL     1      -3.668  21.650  15.053  1.00  0.00    -0.213 F 
ENDBRANCH  32  33
ENDBRANCH  29  32
ENDBRANCH  19  21
ENDBRANCH   1  19
TORSDOF 9
ENDMDL
MODEL 5
REMARK VINA RESULT: -8.160680062      4.559      7.997
REMARK  9 active torsions:
REMARK  status: ('A' for Active; 'I' for Inactive)
REMARK    1  A    between atoms: N2_5  and  C3_6 
REMARK    2  A    between atoms: C3_6  and  C4_7 
REMARK    3  A    between atoms: C4_7  and  O2_8 
REMARK    4  A    between atoms: C4_7  and  O3_10 
REMARK    5  A    between atoms: C4_7  and  C5_12 
REMARK    6  A    between atoms: C5_12  and  N3_13 
REMARK    7  A    between atoms: N3_13  and  C6_15 
REMARK    8  A    between atoms: N5_23  and  C11_24 
REMARK    9  A    between atoms: C11_24  and  C12_25 
ROOT
HETATM    1  C5  UNL     1      -1.116  25.201  12.197  1.00  0.00     0.191 C 
ENDROOT
BRANCH   1   2
HETATM    2  C4  UNL     1      -0.939  26.706  11.960  1.00  0.00     0.192 C 
BRANCH   2   3
HETATM    3  C3  UNL     1      -1.775  27.058  10.746  1.00  0.00     0.204 C 
BRANCH   3   4
HETATM    4  N2  UNL     1      -1.235  28.174  10.019  1.00  0.00    -0.292 N 
HETATM    5  C2  UNL     1      -0.309  28.094   9.064  1.00  0.00     0.329 A 
HETATM    6  N1  UNL     1      -0.085  29.352   8.647  1.00  0.00    -0.302 N 
HETATM    7  O1  UNL     1       0.283  27.075   8.597  1.00  0.00    -0.246 OA
HETATM    8  C1  UNL     1       0.841  29.763   7.619  1.00  0.00     0.161 C 
HETATM    9  C19 UNL     1      -0.867  30.223   9.334  1.00  0.00     0.065 A 
HETATM   10  C14 UNL     1      -1.606  29.453  10.218  1.00  0.00     0.066 A 
HETATM   11  C18 UNL     1      -1.040  31.592   9.313  1.00  0.00     0.032 A 
HETATM   12  C15 UNL     1      -2.497  30.096  11.053  1.00  0.00     0.032 A 
HETATM   13  C16 UNL     1      -2.667  31.470  11.028  1.00  0.00     0.002 A 
HETATM   14  C17 UNL     1      -1.928  32.239  10.144  1.00  0.00     0.002 A 
ENDBRANCH   3   4
ENDBRANCH   2   3
BRANCH   2  15
HETATM   15  O2  UNL     1      -1.445  27.332  13.096  1.00  0.00    -0.363 OA
ATOM     16  H2  UNL     1      -2.310  26.997  13.300  1.00  0.00     0.213 HD
ENDBRANCH   2  15
BRANCH   2  17
HETATM   17  O3  UNL     1       0.387  27.062  11.823  1.00  0.00    -0.363 OA
ATOM     18  H3  UNL     1       0.980  26.457  12.253  1.00  0.00     0.213 HD
ENDBRANCH   2  17
ENDBRANCH   1   2
BRANCH   1  19
HETATM   19  N3  UNL     1      -2.482  24.803  12.107  1.00  0.00    -0.366 N 
ATOM     20  H3  UNL     1      -2.889  24.799  11.173  1.00  0.00     0.161 HD
BRANCH  19  21
HETATM   21  C6  UNL     1      -3.260  24.449  13.070  1.00  0.00     0.171 A 
HETATM   22  N4  UNL     1      -2.887  23.512  13.922  1.00  0.00    -0.336 N 
HETATM   23  C7  UNL     1      -3.712  23.129  14.951  1.00  0.00     0.068 A 
ATOM     24  H4  UNL     1      -1.975  23.067  13.814  1.00  0.00     0.168 HD
HETATM   25  C8  UNL     1      -3.444  22.184  15.884  1.00  0.00     0.039 A 
HETATM   26  C10 UNL     1      -4.907  23.762  15.030  1.00  0.00     0.106 A 
HETATM   27  C9  UNL     1      -4.410  21.954  16.830  1.00  0.00     0.054 A 
HETATM   28  S1  UNL     1      -5.642  23.050  16.388  1.00  0.00    -0.082 SA
HETATM   29  N5  UNL     1      -5.301  24.729  14.157  1.00  0.00    -0.298 N 
HETATM   30  C13 UNL     1      -4.505  25.109  13.153  1.00  0.00     0.292 A 
HETATM   31  O4  UNL     1      -4.841  25.991  12.340  1.00  0.00    -0.264 OA
BRANCH  29  32
HETATM   32  C11 UNL     1      -6.581  25.312  14.357  1.00  0.00     0.204 C 
BRANCH  32  33
HETATM   33  C12 UNL     1      -7.717  24.564  13.730  1.00  0.00     0.371 C 
HETATM   34  F1  UNL     1      -7.574  24.686  12.346  1.00  0.00    -0.213 F 
HETATM   35  F2  UNL     1      -8.947  25.047  14.056  1.00  0.00    -0.213 F 
ENDBRANCH  32  33
ENDBRANCH  29  32
ENDBRANCH  19  21
ENDBRANCH   1  19
TORSDOF 9
ENDMDL
