MODEL 1
REMARK VINA RESULT: -7.704916390      0.000      0.000
REMARK  8 active torsions:
REMARK  status: ('A' for Active; 'I' for Inactive)
REMARK    1  A    between atoms: C2_2  and  O1_3 
REMARK    2  A    between atoms: O1_3  and  C3_4 
REMARK    3  A    between atoms: C3_4  and  C4_6 
REMARK    4  A    between atoms: C5_8  and  O3_9 
REMARK    5  A    between atoms: O3_9  and  C6_10 
REMARK    6  A    between atoms: C8_13  and  N1_14 
REMARK       I    between atoms: N1_14  and  C9_16 
REMARK    7  A    between atoms: C9_16  and  C10_18 
REMARK    8  A    between atoms: C10_18  and  N2_21 
ROOT
HETATM    1  C6  UNL     1      -2.117  24.871  11.417  1.00  0.00     0.232 C 
HETATM    2  C7  UNL     1      -2.996  24.971  12.605  1.00  0.00     0.183 C 
HETATM    3  O4  UNL     1      -3.890  25.757  12.747  1.00  0.00    -0.293 OA
HETATM    4  C8  UNL     1      -2.549  23.920  13.565  1.00  0.00     0.188 C 
HETATM    5  C13 UNL     1      -1.970  22.865  12.651  1.00  0.00     0.184 A 
HETATM    6  O6  UNL     1      -0.600  23.098  12.346  1.00  0.00    -0.370 OA
HETATM    7  C14 UNL     1      -1.539  23.480  11.423  1.00  0.00     0.190 A 
ENDROOT
BRANCH   1   8
HETATM    8  O3  UNL     1      -1.102  25.875  11.478  1.00  0.00    -0.327 OA
BRANCH   8   9
HETATM    9  C5  UNL     1      -1.202  26.963  10.587  1.00  0.00     0.135 A 
HETATM   10  S1  UNL     1      -2.421  28.150  10.527  1.00  0.00    -0.056 SA
HETATM   11  C4  UNL     1      -1.836  29.081   9.216  1.00  0.00     0.106 A 
HETATM   12  C16 UNL     1      -0.694  28.423   8.868  1.00  0.00     0.082 A 
HETATM   13  C15 UNL     1      -0.360  27.332   9.568  1.00  0.00     0.097 A 
HETATM   14 CL2  UNL     1       0.289  29.040   7.510  1.00  0.00    -0.081 Cl
HETATM   15 CL1  UNL     1       1.095  26.339   9.263  1.00  0.00    -0.079 Cl
BRANCH  11  16
HETATM   16  C3  UNL     1      -2.429  30.293   8.618  1.00  0.00     0.302 C 
HETATM   17  O2  UNL     1      -3.542  30.193   8.061  1.00  0.00    -0.259 OA
BRANCH  16  18
HETATM   18  O1  UNL     1      -1.785  31.484   8.670  1.00  0.00    -0.317 OA
BRANCH  18  19
HETATM   19  C2  UNL     1      -1.256  32.057   9.868  1.00  0.00     0.174 C 
HETATM   20  C1  UNL     1      -2.407  32.142  10.848  1.00  0.00     0.034 C 
ENDBRANCH  18  19
ENDBRANCH  16  18
ENDBRANCH  11  16
ENDBRANCH   8   9
ENDBRANCH   1   8
BRANCH   4  21
HETATM   21  N1  UNL     1      -3.582  23.450  14.432  1.00  0.00    -0.345 N 
HETATM   22  C9  UNL     1      -3.696  23.866  15.788  1.00  0.00     0.253 C 
HETATM   23  O5  UNL     1      -2.839  24.683  16.214  1.00  0.00    -0.271 OA
ATOM     24  H1  UNL     1      -4.266  22.788  14.065  1.00  0.00     0.163 HD
BRANCH  22  25
HETATM   25  C10 UNL     1      -4.746  23.397  16.692  1.00  0.00     0.196 C 
HETATM   26  C11 UNL     1      -6.093  23.685  16.045  1.00  0.00     0.056 C 
HETATM   27  C12 UNL     1      -4.670  21.909  16.951  1.00  0.00     0.056 C 
BRANCH  25  28
HETATM   28  N2  UNL     1      -4.665  24.067  17.953  1.00  0.00    -0.062 N 
ATOM     29  H23 UNL     1      -3.765  23.911  18.406  1.00  0.00     0.275 HD
ATOM     30  H22 UNL     1      -4.607  25.080  17.839  1.00  0.00     0.275 HD
ATOM     31  H21 UNL     1      -5.444  23.799  18.555  1.00  0.00     0.275 HD
ENDBRANCH  25  28
ENDBRANCH  22  25
ENDBRANCH   4  21
TORSDOF 8
ENDMDL
MODEL 2
REMARK VINA RESULT: -7.439320979      1.544      1.779
REMARK  8 active torsions:
REMARK  status: ('A' for Active; 'I' for Inactive)
REMARK    1  A    between atoms: C2_2  and  O1_3 
REMARK    2  A    between atoms: O1_3  and  C3_4 
REMARK    3  A    between atoms: C3_4  and  C4_6 
REMARK    4  A    between atoms: C5_8  and  O3_9 
REMARK    5  A    between atoms: O3_9  and  C6_10 
REMARK    6  A    between atoms: C8_13  and  N1_14 
REMARK       I    between atoms: N1_14  and  C9_16 
REMARK    7  A    between atoms: C9_16  and  C10_18 
REMARK    8  A    between atoms: C10_18  and  N2_21 
ROOT
HETATM    1  C6  UNL     1      -1.845  25.171  11.064  1.00  0.00     0.232 C 
HETATM    2  C7  UNL     1      -2.350  25.705  12.350  1.00  0.00     0.183 C 
HETATM    3  O4  UNL     1      -2.574  26.858  12.585  1.00  0.00    -0.293 OA
HETATM    4  C8  UNL     1      -2.517  24.541  13.267  1.00  0.00     0.188 C 
HETATM    5  C13 UNL     1      -2.790  23.404  12.311  1.00  0.00     0.184 A 
HETATM    6  O6  UNL     1      -1.597  22.792  11.833  1.00  0.00    -0.370 OA
HETATM    7  C14 UNL     1      -2.218  23.712  11.026  1.00  0.00     0.190 A 
ENDROOT
BRANCH   1   8
HETATM    8  O3  UNL     1      -0.433  25.366  10.977  1.00  0.00    -0.327 OA
BRANCH   8   9
HETATM    9  C5  UNL     1       0.035  26.415  10.158  1.00  0.00     0.135 A 
HETATM   10  S1  UNL     1      -0.854  27.729   9.540  1.00  0.00    -0.056 SA
HETATM   11  C4  UNL     1       0.390  28.521   8.674  1.00  0.00     0.106 A 
HETATM   12  C16 UNL     1       1.470  27.721   8.901  1.00  0.00     0.082 A 
HETATM   13  C15 UNL     1       1.297  26.635   9.663  1.00  0.00     0.097 A 
HETATM   14 CL2  UNL     1       3.045  28.155   8.179  1.00  0.00    -0.081 Cl
HETATM   15 CL1  UNL     1       2.588  25.468  10.074  1.00  0.00    -0.079 Cl
BRANCH  11  16
HETATM   16  C3  UNL     1       0.305  29.762   7.880  1.00  0.00     0.302 C 
HETATM   17  O2  UNL     1       0.656  29.723   6.682  1.00  0.00    -0.259 OA
BRANCH  16  18
HETATM   18  O1  UNL     1      -0.141  30.916   8.432  1.00  0.00    -0.317 OA
BRANCH  18  19
HETATM   19  C2  UNL     1      -1.518  31.197   8.696  1.00  0.00     0.174 C 
HETATM   20  C1  UNL     1      -1.545  32.126   9.892  1.00  0.00     0.034 C 
ENDBRANCH  18  19
ENDBRANCH  16  18
ENDBRANCH  11  16
ENDBRANCH   8   9
ENDBRANCH   1   8
BRANCH   4  21
HETATM   21  N1  UNL     1      -3.520  24.729  14.266  1.00  0.00    -0.345 N 
HETATM   22  C9  UNL     1      -3.467  24.096  15.539  1.00  0.00     0.253 C 
HETATM   23  O5  UNL     1      -2.483  23.346  15.768  1.00  0.00    -0.271 OA
ATOM     24  H1  UNL     1      -4.308  25.342  14.058  1.00  0.00     0.163 HD
BRANCH  22  25
HETATM   25  C10 UNL     1      -4.483  24.276  16.576  1.00  0.00     0.196 C 
HETATM   26  C11 UNL     1      -5.835  24.431  15.892  1.00  0.00     0.056 C 
HETATM   27  C12 UNL     1      -4.575  23.093  17.513  1.00  0.00     0.056 C 
BRANCH  25  28
HETATM   28  N2  UNL     1      -4.206  25.439  17.361  1.00  0.00    -0.062 N 
ATOM     29  H23 UNL     1      -3.277  25.813  17.165  1.00  0.00     0.275 HD
ATOM     30  H22 UNL     1      -4.761  26.240  17.059  1.00  0.00     0.275 HD
ATOM     31  H21 UNL     1      -4.333  25.243  18.354  1.00  0.00     0.275 HD
ENDBRANCH  25  28
ENDBRANCH  22  25
ENDBRANCH   4  21
TORSDOF 8
ENDMDL
MODEL 3
REMARK VINA RESULT: -7.430301538      2.221      2.860
REMARK  8 active torsions:
REMARK  status: ('A' for Active; 'I' for Inactive)
REMARK    1  A    between atoms: C2_2  and  O1_3 
REMARK    2  A    between atoms: O1_3  and  C3_4 
REMARK    3  A    between atoms: C3_4  and  C4_6 
REMARK    4  A    between atoms: C5_8  and  O3_9 
REMARK    5  A    between atoms: O3_9  and  C6_10 
REMARK    6  A    between atoms: C8_13  and  N1_14 
REMARK       I    between atoms: N1_14  and  C9_16 
REMARK    7  A    between atoms: C9_16  and  C10_18 
REMARK    8  A    between atoms: C10_18  and  N2_21 
ROOT
HETATM    1  C6  UNL     1      -2.640  25.681  12.110  1.00  0.00     0.232 C 
HETATM    2  C7  UNL     1      -3.708  25.326  13.072  1.00  0.00     0.183 C 
HETATM    3  O4  UNL     1      -4.863  25.631  12.976  1.00  0.00    -0.293 OA
HETATM    4  C8  UNL     1      -3.066  24.532  14.160  1.00  0.00     0.188 C 
HETATM    5  C13 UNL     1      -1.899  23.885  13.450  1.00  0.00     0.184 A 
HETATM    6  O6  UNL     1      -0.741  24.711  13.437  1.00  0.00    -0.370 OA
HETATM    7  C14 UNL     1      -1.527  24.687  12.313  1.00  0.00     0.190 A 
ENDROOT
BRANCH   1   8
HETATM    8  O3  UNL     1      -2.208  27.024  12.336  1.00  0.00    -0.327 OA
BRANCH   8   9
HETATM    9  C5  UNL     1      -2.009  27.847  11.209  1.00  0.00     0.135 A 
HETATM   10  S1  UNL     1      -0.529  28.286  10.489  1.00  0.00    -0.056 SA
HETATM   11  C4  UNL     1      -1.121  29.267   9.218  1.00  0.00     0.106 A 
HETATM   12  C16 UNL     1      -2.470  29.216   9.403  1.00  0.00     0.082 A 
HETATM   13  C15 UNL     1      -2.936  28.488  10.425  1.00  0.00     0.097 A 
HETATM   14 CL2  UNL     1      -3.539  30.113   8.287  1.00  0.00    -0.081 Cl
HETATM   15 CL1  UNL     1      -4.668  28.299  10.828  1.00  0.00    -0.079 Cl
BRANCH  11  16
HETATM   16  C3  UNL     1      -0.352  29.986   8.184  1.00  0.00     0.302 C 
HETATM   17  O2  UNL     1      -0.316  31.233   8.235  1.00  0.00    -0.259 OA
BRANCH  16  18
HETATM   18  O1  UNL     1       0.300  29.314   7.204  1.00  0.00    -0.317 OA
BRANCH  18  19
HETATM   19  C2  UNL     1       1.555  29.721   6.653  1.00  0.00     0.174 C 
HETATM   20  C1  UNL     1       2.458  28.507   6.698  1.00  0.00     0.034 C 
ENDBRANCH  18  19
ENDBRANCH  16  18
ENDBRANCH  11  16
ENDBRANCH   8   9
ENDBRANCH   1   8
BRANCH   4  21
HETATM   21  N1  UNL     1      -3.949  23.614  14.806  1.00  0.00    -0.345 N 
HETATM   22  C9  UNL     1      -4.195  23.641  16.207  1.00  0.00     0.253 C 
HETATM   23  O5  UNL     1      -3.599  24.521  16.880  1.00  0.00    -0.271 OA
ATOM     24  H1  UNL     1      -4.421  22.909  14.241  1.00  0.00     0.163 HD
BRANCH  22  25
HETATM   25  C10 UNL     1      -5.096  22.711  16.889  1.00  0.00     0.196 C 
HETATM   26  C11 UNL     1      -4.688  22.644  18.353  1.00  0.00     0.056 C 
HETATM   27  C12 UNL     1      -6.541  23.154  16.834  1.00  0.00     0.056 C 
BRANCH  25  28
HETATM   28  N2  UNL     1      -5.012  21.408  16.306  1.00  0.00    -0.062 N 
ATOM     29  H23 UNL     1      -5.767  21.242  15.641  1.00  0.00     0.275 HD
ATOM     30  H22 UNL     1      -4.222  21.330  15.664  1.00  0.00     0.275 HD
ATOM     31  H21 UNL     1      -4.982  20.689  17.030  1.00  0.00     0.275 HD
ENDBRANCH  25  28
ENDBRANCH  22  25
ENDBRANCH   4  21
TORSDOF 8
ENDMDL
MODEL 4
REMARK VINA RESULT: -7.404130090      3.422      4.335
REMARK  8 active torsions:
REMARK  status: ('A' for Active; 'I' for Inactive)
REMARK    1  A    between atoms: C2_2  and  O1_3 
REMARK    2  A    between atoms: O1_3  and  C3_4 
REMARK    3  A    between atoms: C3_4  and  C4_6 
REMARK    4  A    between atoms: C5_8  and  O3_9 
REMARK    5  A    between atoms: O3_9  and  C6_10 
REMARK    6  A    between atoms: C8_13  and  N1_14 
REMARK       I    between atoms: N1_14  and  C9_16 
REMARK    7  A    between atoms: C9_16  and  C10_18 
REMARK    8  A    between atoms: C10_18  and  N2_21 
ROOT
HETATM    1  C6  UNL     1      -0.887  26.336  10.998  1.00  0.00     0.232 C 
HETATM    2  C7  UNL     1      -1.952  26.531  12.009  1.00  0.00     0.183 C 
HETATM    3  O4  UNL     1      -2.820  27.354  11.956  1.00  0.00    -0.293 OA
HETATM    4  C8  UNL     1      -1.724  25.518  13.080  1.00  0.00     0.188 C 
HETATM    5  C13 UNL     1      -1.044  24.395  12.332  1.00  0.00     0.184 A 
HETATM    6  O6  UNL     1       0.368  24.562  12.260  1.00  0.00    -0.370 OA
HETATM    7  C14 UNL     1      -0.381  24.927  11.170  1.00  0.00     0.190 A 
ENDROOT
BRANCH   1   8
HETATM    8  O3  UNL     1       0.147  27.304  11.187  1.00  0.00    -0.327 OA
BRANCH   8   9
HETATM    9  C5  UNL     1       0.968  27.610  10.083  1.00  0.00     0.135 A 
HETATM   10  S1  UNL     1       2.527  27.010   9.747  1.00  0.00    -0.056 SA
HETATM   11  C4  UNL     1       2.829  27.835   8.279  1.00  0.00     0.106 A 
HETATM   12  C16 UNL     1       1.688  28.558   8.101  1.00  0.00     0.082 A 
HETATM   13  C15 UNL     1       0.725  28.449   9.024  1.00  0.00     0.097 A 
HETATM   14 CL2  UNL     1       1.535  29.606   6.662  1.00  0.00    -0.081 Cl
HETATM   15 CL1  UNL     1      -0.838  29.315   8.966  1.00  0.00    -0.079 Cl
BRANCH  11  16
HETATM   16  C3  UNL     1       4.032  27.772   7.426  1.00  0.00     0.302 C 
HETATM   17  O2  UNL     1       5.018  28.470   7.743  1.00  0.00    -0.259 OA
BRANCH  16  18
HETATM   18  O1  UNL     1       4.069  26.979   6.327  1.00  0.00    -0.317 OA
BRANCH  18  19
HETATM   19  C2  UNL     1       4.641  27.371   5.077  1.00  0.00     0.174 C 
HETATM   20  C1  UNL     1       3.919  26.580   4.008  1.00  0.00     0.034 C 
ENDBRANCH  18  19
ENDBRANCH  16  18
ENDBRANCH  11  16
ENDBRANCH   8   9
ENDBRANCH   1   8
BRANCH   4  21
HETATM   21  N1  UNL     1      -2.910  25.133  13.776  1.00  0.00    -0.345 N 
HETATM   22  C9  UNL     1      -2.891  24.620  15.103  1.00  0.00     0.253 C 
HETATM   23  O5  UNL     1      -1.770  24.511  15.662  1.00  0.00    -0.271 OA
ATOM     24  H1  UNL     1      -3.808  25.230  13.302  1.00  0.00     0.163 HD
BRANCH  22  25
HETATM   25  C10 UNL     1      -4.094  24.220  15.833  1.00  0.00     0.196 C 
HETATM   26  C11 UNL     1      -5.294  24.428  14.919  1.00  0.00     0.056 C 
HETATM   27  C12 UNL     1      -4.072  22.764  16.239  1.00  0.00     0.056 C 
BRANCH  25  28
HETATM   28  N2  UNL     1      -4.251  25.005  17.018  1.00  0.00    -0.062 N 
ATOM     29  H23 UNL     1      -3.722  25.876  16.967  1.00  0.00     0.275 HD
ATOM     30  H22 UNL     1      -5.190  25.400  17.088  1.00  0.00     0.275 HD
ATOM     31  H21 UNL     1      -4.007  24.462  17.846  1.00  0.00     0.275 HD
ENDBRANCH  25  28
ENDBRANCH  22  25
ENDBRANCH   4  21
TORSDOF 8
ENDMDL
MODEL 5
REMARK VINA RESULT: -7.374991162      3.665      4.909
REMARK  8 active torsions:
REMARK  status: ('A' for Active; 'I' for Inactive)
REMARK    1  A    between atoms: C2_2  and  O1_3 
REMARK    2  A    between atoms: O1_3  and  C3_4 
REMARK    3  A    between atoms: C3_4  and  C4_6 
REMARK    4  A    between atoms: C5_8  and  O3_9 
REMARK    5  A    between atoms: O3_9  and  C6_10 
REMARK    6  A    between atoms: C8_13  and  N1_14 
REMARK       I    between atoms: N1_14  and  C9_16 
REMARK    7  A    between atoms: C9_16  and  C10_18 
REMARK    8  A    between atoms: C10_18  and  N2_21 
ROOT
HETATM    1  C6  UNL     1       0.070  26.904  11.515  1.00  0.00     0.232 C 
HETATM    2  C7  UNL     1      -0.486  25.893  12.444  1.00  0.00     0.183 C 
HETATM    3  O4  UNL     1       0.125  24.987  12.936  1.00  0.00    -0.293 OA
HETATM    4  C8  UNL     1      -1.927  26.226  12.635  1.00  0.00     0.188 C 
HETATM    5  C13 UNL     1      -1.952  27.721  12.418  1.00  0.00     0.184 A 
HETATM    6  O6  UNL     1      -2.105  28.072  11.047  1.00  0.00    -0.370 OA
HETATM    7  C14 UNL     1      -0.842  28.101  11.583  1.00  0.00     0.190 A 
ENDROOT
BRANCH   1   8
HETATM    8  O3  UNL     1       0.146  26.361  10.196  1.00  0.00    -0.327 OA
BRANCH   8   9
HETATM    9  C5  UNL     1       1.097  26.915   9.313  1.00  0.00     0.135 A 
HETATM   10  S1  UNL     1       2.752  26.534   9.194  1.00  0.00    -0.056 SA
HETATM   11  C4  UNL     1       3.190  27.601   7.931  1.00  0.00     0.106 A 
HETATM   12  C16 UNL     1       2.013  28.224   7.643  1.00  0.00     0.082 A 
HETATM   13  C15 UNL     1       0.930  27.878   8.349  1.00  0.00     0.097 A 
HETATM   14 CL2  UNL     1       1.972  29.459   6.353  1.00  0.00    -0.081 Cl
HETATM   15 CL1  UNL     1      -0.698  28.580   8.119  1.00  0.00    -0.079 Cl
BRANCH  11  16
HETATM   16  C3  UNL     1       4.517  27.792   7.314  1.00  0.00     0.302 C 
HETATM   17  O2  UNL     1       5.258  28.688   7.771  1.00  0.00    -0.259 OA
BRANCH  16  18
HETATM   18  O1  UNL     1       4.925  27.018   6.279  1.00  0.00    -0.317 OA
BRANCH  18  19
HETATM   19  C2  UNL     1       4.879  27.424   4.909  1.00  0.00     0.174 C 
HETATM   20  C1  UNL     1       3.823  26.567   4.243  1.00  0.00     0.034 C 
ENDBRANCH  18  19
ENDBRANCH  16  18
ENDBRANCH  11  16
ENDBRANCH   8   9
ENDBRANCH   1   8
BRANCH   4  21
HETATM   21  N1  UNL     1      -2.459  25.801  13.891  1.00  0.00    -0.345 N 
HETATM   22  C9  UNL     1      -3.226  24.612  14.039  1.00  0.00     0.253 C 
HETATM   23  O5  UNL     1      -3.428  23.925  13.005  1.00  0.00    -0.271 OA
ATOM     24  H1  UNL     1      -2.282  26.375  14.716  1.00  0.00     0.163 HD
BRANCH  22  25
HETATM   25  C10 UNL     1      -3.779  24.160  15.316  1.00  0.00     0.196 C 
HETATM   26  C11 UNL     1      -5.297  24.183  15.210  1.00  0.00     0.056 C 
HETATM   27  C12 UNL     1      -3.363  22.747  15.663  1.00  0.00     0.056 C 
BRANCH  25  28
HETATM   28  N2  UNL     1      -3.358  25.016  16.381  1.00  0.00    -0.062 N 
ATOM     29  H23 UNL     1      -3.805  24.768  17.264  1.00  0.00     0.275 HD
ATOM     30  H22 UNL     1      -2.388  24.843  16.646  1.00  0.00     0.275 HD
ATOM     31  H21 UNL     1      -3.515  25.996  16.141  1.00  0.00     0.275 HD
ENDBRANCH  25  28
ENDBRANCH  22  25
ENDBRANCH   4  21
TORSDOF 8
ENDMDL
