MODEL 1
REMARK VINA RESULT: -5.337079501      0.000      0.000
REMARK  6 active torsions:
REMARK  status: ('A' for Active; 'I' for Inactive)
REMARK    1  A    between atoms: C2_5  and  N3_6 
REMARK    2  A    between atoms: N5_12  and  C4_14 
REMARK    3  A    between atoms: C4_14  and  C5_15 
REMARK    4  A    between atoms: C5_15  and  C6_16 
REMARK    5  A    between atoms: C6_16  and  C7_17 
REMARK    6  A    between atoms: C7_17  and  N6_18 
ROOT
HETATM    1  C1  UNL     1      39.619  64.130-152.845  1.00  0.00     0.198 C 
HETATM    2  N1  UNL     1      39.203  62.833-153.362  1.00  0.00    -0.114 N 
HETATM    3  N2  UNL     1      40.024  61.786-153.582  1.00  0.00    -0.116 N 
ATOM      4  H2  UNL     1      41.030  61.776-153.413  1.00  0.00     0.206 HD
HETATM    5  C2  UNL     1      39.307  60.767-154.055  1.00  0.00     0.705 A 
HETATM    6  N4  UNL     1      38.053  61.185-154.124  1.00  0.00    -0.020 N 
ATOM      7  H4  UNL     1      37.268  60.621-154.452  1.00  0.00     0.203 HD
HETATM    8  C3  UNL     1      37.960  62.490-153.690  1.00  0.00     0.709 A 
HETATM    9  N5  UNL     1      36.833  63.069-153.682  1.00  0.00    -0.224 N 
ATOM     10  H5  UNL     1      36.037  62.520-154.005  1.00  0.00     0.177 HD
ENDROOT
BRANCH   9  11
HETATM   11  C4  UNL     1      36.561  64.397-153.270  1.00  0.00     0.138 C 
BRANCH  11  12
HETATM   12  C5  UNL     1      35.798  64.438-151.944  1.00  0.00     0.022 C 
BRANCH  12  13
HETATM   13  C6  UNL     1      36.166  65.727-151.261  1.00  0.00     0.029 C 
BRANCH  13  14
HETATM   14  C7  UNL     1      37.321  65.556-150.302  1.00  0.00     0.229 C 
BRANCH  14  15
HETATM   15  N6  UNL     1      37.048  64.624-149.257  1.00  0.00    -0.079 N 
ATOM     16  H63 UNL     1      36.623  63.776-149.629  1.00  0.00     0.274 HD
ATOM     17  H62 UNL     1      37.913  64.230-148.888  1.00  0.00     0.274 HD
ATOM     18  H61 UNL     1      36.479  65.018-148.508  1.00  0.00     0.274 HD
ENDBRANCH  14  15
ENDBRANCH  13  14
ENDBRANCH  12  13
ENDBRANCH  11  12
ENDBRANCH   9  11
BRANCH   5  19
HETATM   19  N3  UNL     1      39.781  59.616-154.370  1.00  0.00    -0.233 N 
ATOM     20  H32 UNL     1      40.318  58.971-153.788  1.00  0.00     0.174 HD
ATOM     21  H31 UNL     1      39.683  59.172-155.283  1.00  0.00     0.174 HD
ENDBRANCH   5  19
TORSDOF 6
ENDMDL
MODEL 2
REMARK VINA RESULT: -5.170839092      1.573      2.249
REMARK  6 active torsions:
REMARK  status: ('A' for Active; 'I' for Inactive)
REMARK    1  A    between atoms: C2_5  and  N3_6 
REMARK    2  A    between atoms: N5_12  and  C4_14 
REMARK    3  A    between atoms: C4_14  and  C5_15 
REMARK    4  A    between atoms: C5_15  and  C6_16 
REMARK    5  A    between atoms: C6_16  and  C7_17 
REMARK    6  A    between atoms: C7_17  and  N6_18 
ROOT
HETATM    1  C1  UNL     1      38.674  65.422-151.670  1.00  0.00     0.198 C 
HETATM    2  N1  UNL     1      38.080  64.344-152.450  1.00  0.00    -0.114 N 
HETATM    3  N2  UNL     1      38.764  63.340-153.032  1.00  0.00    -0.116 N 
ATOM      4  H2  UNL     1      39.776  63.212-152.998  1.00  0.00     0.206 HD
HETATM    5  C2  UNL     1      37.904  62.539-153.662  1.00  0.00     0.705 A 
HETATM    6  N4  UNL     1      36.698  63.049-153.465  1.00  0.00    -0.020 N 
ATOM      7  H4  UNL     1      35.831  62.651-153.828  1.00  0.00     0.203 HD
HETATM    8  C3  UNL     1      36.782  64.192-152.700  1.00  0.00     0.709 A 
HETATM    9  N5  UNL     1      35.726  64.826-152.403  1.00  0.00    -0.224 N 
ATOM     10  H5  UNL     1      34.849  64.443-152.758  1.00  0.00     0.177 HD
ENDROOT
BRANCH   9  11
HETATM   11  C4  UNL     1      35.633  66.011-151.632  1.00  0.00     0.138 C 
BRANCH  11  12
HETATM   12  C5  UNL     1      34.454  65.964-150.656  1.00  0.00     0.022 C 
BRANCH  12  13
HETATM   13  C6  UNL     1      35.000  66.274-149.288  1.00  0.00     0.029 C 
BRANCH  13  14
HETATM   14  C7  UNL     1      35.374  65.023-148.527  1.00  0.00     0.229 C 
BRANCH  14  15
HETATM   15  N6  UNL     1      36.632  64.481-148.922  1.00  0.00    -0.079 N 
ATOM     16  H63 UNL     1      37.355  65.200-148.915  1.00  0.00     0.274 HD
ATOM     17  H62 UNL     1      37.004  63.863-148.201  1.00  0.00     0.274 HD
ATOM     18  H61 UNL     1      36.600  64.007-149.824  1.00  0.00     0.274 HD
ENDBRANCH  14  15
ENDBRANCH  13  14
ENDBRANCH  12  13
ENDBRANCH  11  12
ENDBRANCH   9  11
BRANCH   5  19
HETATM   19  N3  UNL     1      38.225  61.484-154.320  1.00  0.00    -0.233 N 
ATOM     20  H32 UNL     1      38.298  61.367-155.331  1.00  0.00     0.174 HD
ATOM     21  H31 UNL     1      38.459  60.582-153.905  1.00  0.00     0.174 HD
ENDBRANCH   5  19
TORSDOF 6
ENDMDL
MODEL 3
REMARK VINA RESULT: -5.123373455      2.953      5.730
REMARK  6 active torsions:
REMARK  status: ('A' for Active; 'I' for Inactive)
REMARK    1  A    between atoms: C2_5  and  N3_6 
REMARK    2  A    between atoms: N5_12  and  C4_14 
REMARK    3  A    between atoms: C4_14  and  C5_15 
REMARK    4  A    between atoms: C5_15  and  C6_16 
REMARK    5  A    between atoms: C6_16  and  C7_17 
REMARK    6  A    between atoms: C7_17  and  N6_18 
ROOT
HETATM    1  C1  UNL     1      36.546  64.360-153.522  1.00  0.00     0.198 C 
HETATM    2  N1  UNL     1      36.628  65.086-152.261  1.00  0.00    -0.114 N 
HETATM    3  N2  UNL     1      35.585  65.653-151.624  1.00  0.00    -0.116 N 
ATOM      4  H2  UNL     1      34.616  65.643-151.945  1.00  0.00     0.206 HD
HETATM    5  C2  UNL     1      36.023  66.230-150.505  1.00  0.00     0.705 A 
HETATM    6  N4  UNL     1      37.329  66.017-150.455  1.00  0.00    -0.020 N 
ATOM      7  H4  UNL     1      37.945  66.341-149.709  1.00  0.00     0.203 HD
HETATM    8  C3  UNL     1      37.737  65.294-151.556  1.00  0.00     0.709 A 
HETATM    9  N5  UNL     1      38.959  64.988-151.687  1.00  0.00    -0.224 N 
ATOM     10  H5  UNL     1      39.590  65.304-150.950  1.00  0.00     0.177 HD
ENDROOT
BRANCH   9  11
HETATM   11  C4  UNL     1      39.545  64.255-152.749  1.00  0.00     0.138 C 
BRANCH  11  12
HETATM   12  C5  UNL     1      40.763  63.454-152.284  1.00  0.00     0.022 C 
BRANCH  12  13
HETATM   13  C6  UNL     1      41.634  64.392-151.494  1.00  0.00     0.029 C 
BRANCH  13  14
HETATM   14  C7  UNL     1      42.972  64.623-152.158  1.00  0.00     0.229 C 
BRANCH  14  15
HETATM   15  N6  UNL     1      44.003  64.972-151.237  1.00  0.00    -0.079 N 
ATOM     16  H63 UNL     1      44.859  64.458-151.439  1.00  0.00     0.274 HD
ATOM     17  H62 UNL     1      44.334  65.922-151.406  1.00  0.00     0.274 HD
ATOM     18  H61 UNL     1      43.727  64.852-150.263  1.00  0.00     0.274 HD
ENDBRANCH  14  15
ENDBRANCH  13  14
ENDBRANCH  12  13
ENDBRANCH  11  12
ENDBRANCH   9  11
BRANCH   5  19
HETATM   19  N3  UNL     1      35.287  66.861-149.663  1.00  0.00    -0.233 N 
ATOM     20  H32 UNL     1      34.887  67.796-149.749  1.00  0.00     0.174 HD
ATOM     21  H31 UNL     1      34.992  66.499-148.756  1.00  0.00     0.174 HD
ENDBRANCH   5  19
TORSDOF 6
ENDMDL
MODEL 4
REMARK VINA RESULT: -5.051651639      1.531      1.531
REMARK  6 active torsions:
REMARK  status: ('A' for Active; 'I' for Inactive)
REMARK    1  A    between atoms: C2_5  and  N3_6 
REMARK    2  A    between atoms: N5_12  and  C4_14 
REMARK    3  A    between atoms: C4_14  and  C5_15 
REMARK    4  A    between atoms: C5_15  and  C6_16 
REMARK    5  A    between atoms: C6_16  and  C7_17 
REMARK    6  A    between atoms: C7_17  and  N6_18 
ROOT
HETATM    1  C1  UNL     1      39.166  64.444-152.749  1.00  0.00     0.198 C 
HETATM    2  N1  UNL     1      38.749  63.638-153.889  1.00  0.00    -0.114 N 
HETATM    3  N2  UNL     1      39.573  62.908-154.667  1.00  0.00    -0.116 N 
ATOM      4  H2  UNL     1      40.584  62.832-154.551  1.00  0.00     0.206 HD
HETATM    5  C2  UNL     1      38.853  62.302-155.611  1.00  0.00     0.705 A 
HETATM    6  N4  UNL     1      37.593  62.657-155.413  1.00  0.00    -0.020 N 
ATOM      7  H4  UNL     1      36.805  62.349-155.983  1.00  0.00     0.203 HD
HETATM    8  C3  UNL     1      37.500  63.503-154.329  1.00  0.00     0.709 A 
HETATM    9  N5  UNL     1      36.368  63.952-153.980  1.00  0.00    -0.224 N 
ATOM     10  H5  UNL     1      35.567  63.654-154.538  1.00  0.00     0.177 HD
ENDROOT
BRANCH   9  11
HETATM   11  C4  UNL     1      36.094  64.825-152.898  1.00  0.00     0.138 C 
BRANCH  11  12
HETATM   12  C5  UNL     1      35.632  64.063-151.654  1.00  0.00     0.022 C 
BRANCH  12  13
HETATM   13  C6  UNL     1      35.317  65.088-150.598  1.00  0.00     0.029 C 
BRANCH  13  14
HETATM   14  C7  UNL     1      35.934  64.739-149.263  1.00  0.00     0.229 C 
BRANCH  14  15
HETATM   15  N6  UNL     1      37.357  64.676-149.302  1.00  0.00    -0.079 N 
ATOM     16  H63 UNL     1      37.675  64.130-150.102  1.00  0.00     0.274 HD
ATOM     17  H62 UNL     1      37.754  65.582-149.550  1.00  0.00     0.274 HD
ATOM     18  H61 UNL     1      37.767  64.325-148.437  1.00  0.00     0.274 HD
ENDBRANCH  14  15
ENDBRANCH  13  14
ENDBRANCH  12  13
ENDBRANCH  11  12
ENDBRANCH   9  11
BRANCH   5  19
HETATM   19  N3  UNL     1      39.330  61.529-156.519  1.00  0.00    -0.233 N 
ATOM     20  H32 UNL     1      39.745  60.603-156.408  1.00  0.00     0.174 HD
ATOM     21  H31 UNL     1      39.360  61.745-157.515  1.00  0.00     0.174 HD
ENDBRANCH   5  19
TORSDOF 6
ENDMDL
MODEL 5
REMARK VINA RESULT: -5.032049364      1.201      1.577
REMARK  6 active torsions:
REMARK  status: ('A' for Active; 'I' for Inactive)
REMARK    1  A    between atoms: C2_5  and  N3_6 
REMARK    2  A    between atoms: N5_12  and  C4_14 
REMARK    3  A    between atoms: C4_14  and  C5_15 
REMARK    4  A    between atoms: C5_15  and  C6_16 
REMARK    5  A    between atoms: C6_16  and  C7_17 
REMARK    6  A    between atoms: C7_17  and  N6_18 
ROOT
HETATM    1  C1  UNL     1      40.465  64.305-152.586  1.00  0.00     0.198 C 
HETATM    2  N1  UNL     1      39.405  63.452-153.107  1.00  0.00    -0.114 N 
HETATM    3  N2  UNL     1      39.577  62.200-153.577  1.00  0.00    -0.116 N 
ATOM      4  H2  UNL     1      40.465  61.701-153.624  1.00  0.00     0.206 HD
HETATM    5  C2  UNL     1      38.397  61.721-153.971  1.00  0.00     0.705 A 
HETATM    6  N4  UNL     1      37.506  62.673-153.743  1.00  0.00    -0.020 N 
ATOM      7  H4  UNL     1      36.508  62.597-153.944  1.00  0.00     0.203 HD
HETATM    8  C3  UNL     1      38.119  63.780-153.196  1.00  0.00     0.709 A 
HETATM    9  N5  UNL     1      37.426  64.800-152.906  1.00  0.00    -0.224 N 
ATOM     10  H5  UNL     1      36.426  64.742-153.099  1.00  0.00     0.177 HD
ENDROOT
BRANCH   9  11
HETATM   11  C4  UNL     1      37.892  66.013-152.341  1.00  0.00     0.138 C 
BRANCH  11  12
HETATM   12  C5  UNL     1      37.657  66.065-150.830  1.00  0.00     0.022 C 
BRANCH  12  13
HETATM   13  C6  UNL     1      36.179  66.250-150.618  1.00  0.00     0.029 C 
BRANCH  13  14
HETATM   14  C7  UNL     1      35.633  65.319-149.560  1.00  0.00     0.229 C 
BRANCH  14  15
HETATM   15  N6  UNL     1      36.626  64.460-149.004  1.00  0.00    -0.079 N 
ATOM     16  H63 UNL     1      37.207  64.054-149.736  1.00  0.00     0.274 HD
ATOM     17  H62 UNL     1      37.335  64.998-148.506  1.00  0.00     0.274 HD
ATOM     18  H61 UNL     1      36.236  63.732-148.405  1.00  0.00     0.274 HD
ENDBRANCH  14  15
ENDBRANCH  13  14
ENDBRANCH  12  13
ENDBRANCH  11  12
ENDBRANCH   9  11
BRANCH   5  19
HETATM   19  N3  UNL     1      38.205  60.553-154.470  1.00  0.00    -0.233 N 
ATOM     20  H32 UNL     1      38.874  59.789-154.568  1.00  0.00     0.174 HD
ATOM     21  H31 UNL     1      37.321  60.218-154.853  1.00  0.00     0.174 HD
ENDBRANCH   5  19
TORSDOF 6
ENDMDL
