MODEL 1
REMARK VINA RESULT: -5.507043310      0.000      0.000
REMARK  8 active torsions:
REMARK  status: ('A' for Active; 'I' for Inactive)
REMARK    1  A    between atoms: N1_1  and  C1_4 
REMARK    2  A    between atoms: N2_7  and  C4_8 
REMARK    3  A    between atoms: C4_8  and  C5_9 
REMARK    4  A    between atoms: C5_9  and  C6_10 
REMARK    5  A    between atoms: C6_10  and  C7_11 
REMARK    6  A    between atoms: C7_11  and  N3_12 
REMARK    7  A    between atoms: C7_11  and  C8_16 
REMARK    8  A    between atoms: C8_16  and  N4_17 
ROOT
HETATM    1  C4  UNL     1      38.373  64.021-153.018  1.00  0.00     0.150 C 
ENDROOT
BRANCH   1   2
HETATM    2  N2  UNL     1      37.502  64.790-152.097  1.00  0.00    -0.289 N 
HETATM    3  C3  UNL     1      37.800  66.069-151.829  1.00  0.00     0.115 A 
HETATM    4  C2  UNL     1      36.975  66.766-150.967  1.00  0.00     0.068 A 
HETATM    5  C1  UNL     1      35.878  66.104-150.425  1.00  0.00     0.115 A 
HETATM    6  N6  UNL     1      35.641  64.819-150.740  1.00  0.00    -0.271 N 
HETATM    7  N5  UNL     1      36.448  64.182-151.566  1.00  0.00    -0.239 N 
ATOM      8  H6  UNL     1      34.836  64.335-150.341  1.00  0.00     0.190 HD
ATOM      9  H5  UNL     1      36.260  63.207-151.799  1.00  0.00     0.208 HD
BRANCH   5  10
HETATM   10  N1  UNL     1      35.120  66.776-149.623  1.00  0.00    -0.384 N 
ATOM     11  H12 UNL     1      35.151  66.660-148.610  1.00  0.00     0.157 HD
ATOM     12  H11 UNL     1      34.472  67.444-150.043  1.00  0.00     0.157 HD
ENDBRANCH   5  10
ENDBRANCH   1   2
BRANCH   1  13
HETATM   13  C5  UNL     1      39.759  64.544-152.861  1.00  0.00     0.024 C 
BRANCH  13  14
HETATM   14  C6  UNL     1      40.851  63.561-152.620  1.00  0.00     0.036 C 
BRANCH  14  15
HETATM   15  C7  UNL     1      41.820  63.915-151.539  1.00  0.00     0.208 C 
BRANCH  15  16
HETATM   16  N3  UNL     1      41.186  64.619-150.480  1.00  0.00    -0.073 N 
ATOM     17  H33 UNL     1      41.715  65.450-150.216  1.00  0.00     0.274 HD
ATOM     18  H32 UNL     1      40.327  65.070-150.794  1.00  0.00     0.274 HD
ATOM     19  H31 UNL     1      41.018  64.014-149.676  1.00  0.00     0.274 HD
ENDBRANCH  15  16
BRANCH  15  20
HETATM   20  C8  UNL     1      42.909  64.763-152.179  1.00  0.00     0.262 C 
BRANCH  20  21
HETATM   21  N4  UNL     1      44.001  64.890-151.239  1.00  0.00    -0.077 N 
ATOM     22  H43 UNL     1      43.770  65.491-150.449  1.00  0.00     0.274 HD
ATOM     23  H42 UNL     1      44.171  64.030-150.716  1.00  0.00     0.274 HD
ATOM     24  H41 UNL     1      44.828  65.209-151.746  1.00  0.00     0.274 HD
ENDBRANCH  20  21
ENDBRANCH  15  20
ENDBRANCH  14  15
ENDBRANCH  13  14
ENDBRANCH   1  13
TORSDOF 8
ENDMDL
MODEL 2
REMARK VINA RESULT: -5.473361155      2.761      5.605
REMARK  8 active torsions:
REMARK  status: ('A' for Active; 'I' for Inactive)
REMARK    1  A    between atoms: N1_1  and  C1_4 
REMARK    2  A    between atoms: N2_7  and  C4_8 
REMARK    3  A    between atoms: C4_8  and  C5_9 
REMARK    4  A    between atoms: C5_9  and  C6_10 
REMARK    5  A    between atoms: C6_10  and  C7_11 
REMARK    6  A    between atoms: C7_11  and  N3_12 
REMARK    7  A    between atoms: C7_11  and  C8_16 
REMARK    8  A    between atoms: C8_16  and  N4_17 
ROOT
HETATM    1  C4  UNL     1      37.911  64.614-153.180  1.00  0.00     0.150 C 
ENDROOT
BRANCH   1   2
HETATM    2  N2  UNL     1      38.417  63.249-153.462  1.00  0.00    -0.289 N 
HETATM    3  C3  UNL     1      39.715  62.979-153.264  1.00  0.00     0.115 A 
HETATM    4  C2  UNL     1      40.165  61.700-153.534  1.00  0.00     0.068 A 
HETATM    5  C1  UNL     1      39.248  60.762-153.996  1.00  0.00     0.115 A 
HETATM    6  N6  UNL     1      37.959  61.106-154.171  1.00  0.00    -0.271 N 
HETATM    7  N5  UNL     1      37.563  62.335-153.904  1.00  0.00    -0.239 N 
ATOM      8  H6  UNL     1      37.289  60.416-154.511  1.00  0.00     0.190 HD
ATOM      9  H5  UNL     1      36.583  62.586-154.040  1.00  0.00     0.208 HD
BRANCH   5  10
HETATM   10  N1  UNL     1      39.691  59.573-154.241  1.00  0.00    -0.384 N 
ATOM     11  H12 UNL     1      39.540  58.788-153.607  1.00  0.00     0.157 HD
ATOM     12  H11 UNL     1      40.210  59.438-155.110  1.00  0.00     0.157 HD
ENDBRANCH   5  10
ENDBRANCH   1   2
BRANCH   1  13
HETATM   13  C5  UNL     1      38.766  65.193-152.107  1.00  0.00     0.024 C 
BRANCH  13  14
HETATM   14  C6  UNL     1      38.110  65.589-150.831  1.00  0.00     0.036 C 
BRANCH  14  15
HETATM   15  C7  UNL     1      36.696  66.060-150.942  1.00  0.00     0.208 C 
BRANCH  15  16
HETATM   16  N3  UNL     1      36.585  67.447-150.657  1.00  0.00    -0.073 N 
ATOM     17  H33 UNL     1      35.716  67.835-151.026  1.00  0.00     0.274 HD
ATOM     18  H32 UNL     1      36.422  67.612-149.664  1.00  0.00     0.274 HD
ATOM     19  H31 UNL     1      37.397  67.965-150.993  1.00  0.00     0.274 HD
ENDBRANCH  15  16
BRANCH  15  20
HETATM   20  C8  UNL     1      35.875  65.237-149.961  1.00  0.00     0.262 C 
BRANCH  20  21
HETATM   21  N4  UNL     1      36.782  64.515-149.097  1.00  0.00    -0.077 N 
ATOM     22  H43 UNL     1      36.833  63.522-149.325  1.00  0.00     0.274 HD
ATOM     23  H42 UNL     1      37.759  64.749-149.270  1.00  0.00     0.274 HD
ATOM     24  H41 UNL     1      36.505  64.680-148.128  1.00  0.00     0.274 HD
ENDBRANCH  20  21
ENDBRANCH  15  20
ENDBRANCH  14  15
ENDBRANCH  13  14
ENDBRANCH   1  13
TORSDOF 8
ENDMDL
MODEL 3
REMARK VINA RESULT: -5.471041594      2.795      5.848
REMARK  8 active torsions:
REMARK  status: ('A' for Active; 'I' for Inactive)
REMARK    1  A    between atoms: N1_1  and  C1_4 
REMARK    2  A    between atoms: N2_7  and  C4_8 
REMARK    3  A    between atoms: C4_8  and  C5_9 
REMARK    4  A    between atoms: C5_9  and  C6_10 
REMARK    5  A    between atoms: C6_10  and  C7_11 
REMARK    6  A    between atoms: C7_11  and  N3_12 
REMARK    7  A    between atoms: C7_11  and  C8_16 
REMARK    8  A    between atoms: C8_16  and  N4_17 
ROOT
HETATM    1  C4  UNL     1      37.714  64.439-153.118  1.00  0.00     0.150 C 
ENDROOT
BRANCH   1   2
HETATM    2  N2  UNL     1      38.310  63.122-153.450  1.00  0.00    -0.289 N 
HETATM    3  C3  UNL     1      39.628  62.941-153.290  1.00  0.00     0.115 A 
HETATM    4  C2  UNL     1      40.162  61.705-153.607  1.00  0.00     0.068 A 
HETATM    5  C1  UNL     1      39.302  60.717-154.074  1.00  0.00     0.115 A 
HETATM    6  N6  UNL     1      37.989  60.971-154.209  1.00  0.00    -0.271 N 
HETATM    7  N5  UNL     1      37.512  62.160-153.898  1.00  0.00    -0.239 N 
ATOM      8  H6  UNL     1      37.361  60.244-154.553  1.00  0.00     0.190 HD
ATOM      9  H5  UNL     1      36.514  62.344-154.004  1.00  0.00     0.208 HD
BRANCH   5  10
HETATM   10  N1  UNL     1      39.823  59.570-154.363  1.00  0.00    -0.384 N 
ATOM     11  H12 UNL     1      40.712  59.255-153.973  1.00  0.00     0.157 HD
ATOM     12  H11 UNL     1      39.307  58.972-155.009  1.00  0.00     0.157 HD
ENDBRANCH   5  10
ENDBRANCH   1   2
BRANCH   1  13
HETATM   13  C5  UNL     1      36.281  64.209-152.789  1.00  0.00     0.024 C 
BRANCH  13  14
HETATM   14  C6  UNL     1      35.841  64.443-151.386  1.00  0.00     0.036 C 
BRANCH  14  15
HETATM   15  C7  UNL     1      36.810  65.171-150.512  1.00  0.00     0.208 C 
BRANCH  15  16
HETATM   16  N3  UNL     1      36.842  64.624-149.201  1.00  0.00    -0.073 N 
ATOM     17  H33 UNL     1      37.659  64.946-148.683  1.00  0.00     0.274 HD
ATOM     18  H32 UNL     1      36.113  65.026-148.611  1.00  0.00     0.274 HD
ATOM     19  H31 UNL     1      36.788  63.606-149.218  1.00  0.00     0.274 HD
ENDBRANCH  15  16
BRANCH  15  20
HETATM   20  C8  UNL     1      36.373  66.628-150.481  1.00  0.00     0.262 C 
BRANCH  20  21
HETATM   21  N4  UNL     1      35.116  66.715-149.770  1.00  0.00    -0.077 N 
ATOM     22  H43 UNL     1      34.519  65.904-149.931  1.00  0.00     0.274 HD
ATOM     23  H42 UNL     1      35.228  66.609-148.762  1.00  0.00     0.274 HD
ATOM     24  H41 UNL     1      34.662  67.592-150.024  1.00  0.00     0.274 HD
ENDBRANCH  20  21
ENDBRANCH  15  20
ENDBRANCH  14  15
ENDBRANCH  13  14
ENDBRANCH   1  13
TORSDOF 8
ENDMDL
MODEL 4
REMARK VINA RESULT: -5.362159762      1.418      5.698
REMARK  8 active torsions:
REMARK  status: ('A' for Active; 'I' for Inactive)
REMARK    1  A    between atoms: N1_1  and  C1_4 
REMARK    2  A    between atoms: N2_7  and  C4_8 
REMARK    3  A    between atoms: C4_8  and  C5_9 
REMARK    4  A    between atoms: C5_9  and  C6_10 
REMARK    5  A    between atoms: C6_10  and  C7_11 
REMARK    6  A    between atoms: C7_11  and  N3_12 
REMARK    7  A    between atoms: C7_11  and  C8_16 
REMARK    8  A    between atoms: C8_16  and  N4_17 
ROOT
HETATM    1  C4  UNL     1      37.815  65.385-152.634  1.00  0.00     0.150 C 
ENDROOT
BRANCH   1   2
HETATM    2  N2  UNL     1      39.188  65.007-152.220  1.00  0.00    -0.289 N 
HETATM    3  C3  UNL     1      40.123  64.811-153.160  1.00  0.00     0.115 A 
HETATM    4  C2  UNL     1      41.396  64.459-152.753  1.00  0.00     0.068 A 
HETATM    5  C1  UNL     1      41.639  64.329-151.389  1.00  0.00     0.115 A 
HETATM    6  N6  UNL     1      40.651  64.542-150.503  1.00  0.00    -0.271 N 
HETATM    7  N5  UNL     1      39.447  64.876-150.925  1.00  0.00    -0.239 N 
ATOM      8  H6  UNL     1      40.831  64.446-149.504  1.00  0.00     0.190 HD
ATOM      9  H5  UNL     1      38.703  65.037-150.245  1.00  0.00     0.208 HD
BRANCH   5  10
HETATM   10  N1  UNL     1      42.837  64.000-151.031  1.00  0.00    -0.384 N 
ATOM     11  H12 UNL     1      43.627  64.014-151.677  1.00  0.00     0.157 HD
ATOM     12  H11 UNL     1      42.973  63.719-150.060  1.00  0.00     0.157 HD
ENDBRANCH   5  10
ENDBRANCH   1   2
BRANCH   1  13
HETATM   13  C5  UNL     1      36.959  64.175-152.492  1.00  0.00     0.024 C 
BRANCH  13  14
HETATM   14  C6  UNL     1      35.764  64.266-151.609  1.00  0.00     0.036 C 
BRANCH  14  15
HETATM   15  C7  UNL     1      35.919  65.113-150.387  1.00  0.00     0.208 C 
BRANCH  15  16
HETATM   16  N3  UNL     1      36.415  64.360-149.290  1.00  0.00    -0.073 N 
ATOM     17  H33 UNL     1      35.837  64.485-148.460  1.00  0.00     0.274 HD
ATOM     18  H32 UNL     1      36.276  63.359-149.431  1.00  0.00     0.274 HD
ATOM     19  H31 UNL     1      37.394  64.576-149.099  1.00  0.00     0.274 HD
ENDBRANCH  15  16
BRANCH  15  20
HETATM   20  C8  UNL     1      34.548  65.692-150.071  1.00  0.00     0.262 C 
BRANCH  20  21
HETATM   21  N4  UNL     1      34.487  65.977-148.654  1.00  0.00    -0.077 N 
ATOM     22  H43 UNL     1      34.080  65.211-148.118  1.00  0.00     0.274 HD
ATOM     23  H42 UNL     1      35.408  65.981-148.215  1.00  0.00     0.274 HD
ATOM     24  H41 UNL     1      33.986  66.856-148.523  1.00  0.00     0.274 HD
ENDBRANCH  20  21
ENDBRANCH  15  20
ENDBRANCH  14  15
ENDBRANCH  13  14
ENDBRANCH   1  13
TORSDOF 8
ENDMDL
MODEL 5
REMARK VINA RESULT: -5.348287916      2.843      6.238
REMARK  8 active torsions:
REMARK  status: ('A' for Active; 'I' for Inactive)
REMARK    1  A    between atoms: N1_1  and  C1_4 
REMARK    2  A    between atoms: N2_7  and  C4_8 
REMARK    3  A    between atoms: C4_8  and  C5_9 
REMARK    4  A    between atoms: C5_9  and  C6_10 
REMARK    5  A    between atoms: C6_10  and  C7_11 
REMARK    6  A    between atoms: C7_11  and  N3_12 
REMARK    7  A    between atoms: C7_11  and  C8_16 
REMARK    8  A    between atoms: C8_16  and  N4_17 
ROOT
HETATM    1  C4  UNL     1      37.761  64.510-152.931  1.00  0.00     0.150 C 
ENDROOT
BRANCH   1   2
HETATM    2  N2  UNL     1      38.329  63.202-153.340  1.00  0.00    -0.289 N 
HETATM    3  C3  UNL     1      39.649  63.000-153.230  1.00  0.00     0.115 A 
HETATM    4  C2  UNL     1      40.157  61.774-153.618  1.00  0.00     0.068 A 
HETATM    5  C1  UNL     1      39.272  60.816-154.100  1.00  0.00     0.115 A 
HETATM    6  N6  UNL     1      37.957  61.091-154.182  1.00  0.00    -0.271 N 
HETATM    7  N5  UNL     1      37.506  62.271-153.805  1.00  0.00    -0.239 N 
ATOM      8  H6  UNL     1      37.310  60.387-154.537  1.00  0.00     0.190 HD
ATOM      9  H5  UNL     1      36.507  62.470-153.870  1.00  0.00     0.208 HD
BRANCH   5  10
HETATM   10  N1  UNL     1      39.769  59.677-154.456  1.00  0.00    -0.384 N 
ATOM     11  H12 UNL     1      40.764  59.545-154.638  1.00  0.00     0.157 HD
ATOM     12  H11 UNL     1      39.121  58.895-154.551  1.00  0.00     0.157 HD
ENDBRANCH   5  10
ENDBRANCH   1   2
BRANCH   1  13
HETATM   13  C5  UNL     1      36.341  64.278-152.549  1.00  0.00     0.024 C 
BRANCH  13  14
HETATM   14  C6  UNL     1      35.928  64.624-151.161  1.00  0.00     0.036 C 
BRANCH  14  15
HETATM   15  C7  UNL     1      35.273  65.956-150.988  1.00  0.00     0.208 C 
BRANCH  15  16
HETATM   16  N3  UNL     1      36.203  66.944-150.570  1.00  0.00    -0.073 N 
ATOM     17  H33 UNL     1      36.941  66.542-149.993  1.00  0.00     0.274 HD
ATOM     18  H32 UNL     1      36.774  67.272-151.350  1.00  0.00     0.274 HD
ATOM     19  H31 UNL     1      35.739  67.719-150.096  1.00  0.00     0.274 HD
ENDBRANCH  15  16
BRANCH  15  20
HETATM   20  C8  UNL     1      34.170  65.778-149.955  1.00  0.00     0.262 C 
BRANCH  20  21
HETATM   21  N4  UNL     1      34.728  66.020-148.643  1.00  0.00    -0.077 N 
ATOM     22  H43 UNL     1      34.330  66.845-148.194  1.00  0.00     0.274 HD
ATOM     23  H42 UNL     1      34.428  65.328-147.955  1.00  0.00     0.274 HD
ATOM     24  H41 UNL     1      35.744  66.072-148.728  1.00  0.00     0.274 HD
ENDBRANCH  20  21
ENDBRANCH  15  20
ENDBRANCH  14  15
ENDBRANCH  13  14
ENDBRANCH   1  13
TORSDOF 8
ENDMDL
