MODEL 1
REMARK VINA RESULT: -4.904890040      0.000      0.000
REMARK  7 active torsions:
REMARK  status: ('A' for Active; 'I' for Inactive)
REMARK    1  A    between atoms: N1_1  and  C1_5 
REMARK    2  A    between atoms: C1_5  and  C2_6 
REMARK    3  A    between atoms: C2_6  and  C3_7 
REMARK    4  A    between atoms: C3_7  and  C4_8 
REMARK    5  A    between atoms: C4_8  and  N2_9 
REMARK    6  A    between atoms: C4_8  and  C5_13 
REMARK    7  A    between atoms: C5_13  and  N3_14 
ROOT
HETATM    1  C4  UNL     1      38.698  64.897-151.876  1.00  0.00     0.211 C 
ENDROOT
BRANCH   1   2
HETATM    2  C3  UNL     1      39.290  64.943-153.266  1.00  0.00     0.036 C 
BRANCH   2   3
HETATM    3  C2  UNL     1      39.051  63.689-154.029  1.00  0.00     0.029 C 
BRANCH   3   4
HETATM    4  C1  UNL     1      37.798  62.989-153.566  1.00  0.00     0.229 C 
BRANCH   4   5
HETATM    5  N1  UNL     1      36.710  63.541-154.382  1.00  0.00    -0.079 N 
ATOM      6  H13 UNL     1      37.022  64.226-155.071  1.00  0.00     0.274 HD
ATOM      7  H12 UNL     1      36.315  62.872-155.044  1.00  0.00     0.274 HD
ATOM      8  H11 UNL     1      36.028  63.911-153.719  1.00  0.00     0.274 HD
ENDBRANCH   4   5
ENDBRANCH   3   4
ENDBRANCH   2   3
ENDBRANCH   1   2
BRANCH   1   9
HETATM    9  N2  UNL     1      39.749  64.812-150.883  1.00  0.00    -0.073 N 
ATOM     10  H23 UNL     1      39.538  64.119-150.165  1.00  0.00     0.274 HD
ATOM     11  H22 UNL     1      40.595  64.385-151.261  1.00  0.00     0.274 HD
ATOM     12  H21 UNL     1      39.933  65.731-150.482  1.00  0.00     0.274 HD
ENDBRANCH   1   9
BRANCH   1  13
HETATM   13  C5  UNL     1      37.800  66.099-151.641  1.00  0.00     0.306 C 
BRANCH  13  14
HETATM   14  N3  UNL     1      36.480  65.671-151.394  1.00  0.00     0.107 N 
HETATM   15  C6  UNL     1      35.632  66.277-150.537  1.00  0.00     0.283 A 
HETATM   16  C7  UNL     1      34.274  65.953-150.028  1.00  0.00     0.270 C 
HETATM   17  C9  UNL     1      36.085  64.781-150.459  1.00  0.00     0.283 A 
HETATM   18  N4  UNL     1      34.653  65.296-148.764  1.00  0.00    -0.071 N 
HETATM   19  C8  UNL     1      35.994  64.737-148.991  1.00  0.00     0.270 C 
ATOM     20  H42 UNL     1      34.599  65.910-147.951  1.00  0.00     0.277 HD
ATOM     21  H41 UNL     1      33.973  64.608-148.440  1.00  0.00     0.277 HD
ENDBRANCH  13  14
ENDBRANCH   1  13
TORSDOF 7
ENDMDL
MODEL 2
REMARK VINA RESULT: -4.892455442      1.165      2.572
REMARK  7 active torsions:
REMARK  status: ('A' for Active; 'I' for Inactive)
REMARK    1  A    between atoms: N1_1  and  C1_5 
REMARK    2  A    between atoms: C1_5  and  C2_6 
REMARK    3  A    between atoms: C2_6  and  C3_7 
REMARK    4  A    between atoms: C3_7  and  C4_8 
REMARK    5  A    between atoms: C4_8  and  N2_9 
REMARK    6  A    between atoms: C4_8  and  C5_13 
REMARK    7  A    between atoms: C5_13  and  N3_14 
ROOT
HETATM    1  C4  UNL     1      37.567  64.247-153.366  1.00  0.00     0.211 C 
ENDROOT
BRANCH   1   2
HETATM    2  C3  UNL     1      38.714  64.979-152.709  1.00  0.00     0.036 C 
BRANCH   2   3
HETATM    3  C2  UNL     1      39.945  64.149-152.618  1.00  0.00     0.029 C 
BRANCH   3   4
HETATM    4  C1  UNL     1      40.745  64.480-151.384  1.00  0.00     0.229 C 
BRANCH   4   5
HETATM    5  N1  UNL     1      39.759  64.738-150.327  1.00  0.00    -0.079 N 
ATOM      6  H13 UNL     1      39.963  65.569-149.772  1.00  0.00     0.274 HD
ATOM      7  H12 UNL     1      38.853  65.046-150.681  1.00  0.00     0.274 HD
ATOM      8  H11 UNL     1      39.713  63.880-149.777  1.00  0.00     0.274 HD
ENDBRANCH   4   5
ENDBRANCH   3   4
ENDBRANCH   2   3
ENDBRANCH   1   2
BRANCH   1   9
HETATM    9  N2  UNL     1      37.746  62.815-153.240  1.00  0.00    -0.073 N 
ATOM     10  H23 UNL     1      37.265  62.443-152.422  1.00  0.00     0.274 HD
ATOM     11  H22 UNL     1      37.236  62.303-153.960  1.00  0.00     0.274 HD
ATOM     12  H21 UNL     1      38.738  62.580-153.238  1.00  0.00     0.274 HD
ENDBRANCH   1   9
BRANCH   1  13
HETATM   13  C5  UNL     1      36.242  64.701-152.782  1.00  0.00     0.306 C 
BRANCH  13  14
HETATM   14  N3  UNL     1      36.430  65.154-151.461  1.00  0.00     0.107 N 
HETATM   15  C6  UNL     1      35.955  64.523-150.366  1.00  0.00     0.283 A 
HETATM   16  C7  UNL     1      35.918  64.857-148.918  1.00  0.00     0.270 C 
HETATM   17  C9  UNL     1      35.628  65.997-150.778  1.00  0.00     0.283 A 
HETATM   18  N4  UNL     1      34.559  65.425-148.849  1.00  0.00    -0.071 N 
HETATM   19  C8  UNL     1      34.278  65.955-150.191  1.00  0.00     0.270 C 
ATOM     20  H42 UNL     1      33.856  64.764-148.515  1.00  0.00     0.277 HD
ATOM     21  H41 UNL     1      34.441  66.113-148.104  1.00  0.00     0.277 HD
ENDBRANCH  13  14
ENDBRANCH   1  13
TORSDOF 7
ENDMDL
MODEL 3
REMARK VINA RESULT: -4.891897653      1.013      2.269
REMARK  7 active torsions:
REMARK  status: ('A' for Active; 'I' for Inactive)
REMARK    1  A    between atoms: N1_1  and  C1_5 
REMARK    2  A    between atoms: C1_5  and  C2_6 
REMARK    3  A    between atoms: C2_6  and  C3_7 
REMARK    4  A    between atoms: C3_7  and  C4_8 
REMARK    5  A    between atoms: C4_8  and  N2_9 
REMARK    6  A    between atoms: C4_8  and  C5_13 
REMARK    7  A    between atoms: C5_13  and  N3_14 
ROOT
HETATM    1  C4  UNL     1      37.374  64.395-153.576  1.00  0.00     0.211 C 
ENDROOT
BRANCH   1   2
HETATM    2  C3  UNL     1      38.203  63.156-153.324  1.00  0.00     0.036 C 
BRANCH   2   3
HETATM    3  C2  UNL     1      39.582  63.271-153.868  1.00  0.00     0.029 C 
BRANCH   3   4
HETATM    4  C1  UNL     1      40.613  62.830-152.860  1.00  0.00     0.229 C 
BRANCH   4   5
HETATM    5  N1  UNL     1      40.543  63.806-151.766  1.00  0.00    -0.079 N 
ATOM      6  H13 UNL     1      39.878  64.561-151.934  1.00  0.00     0.274 HD
ATOM      7  H12 UNL     1      40.102  63.441-150.921  1.00  0.00     0.274 HD
ATOM      8  H11 UNL     1      41.499  64.129-151.622  1.00  0.00     0.274 HD
ENDBRANCH   4   5
ENDBRANCH   3   4
ENDBRANCH   2   3
ENDBRANCH   1   2
BRANCH   1   9
HETATM    9  N2  UNL     1      36.064  64.031-154.075  1.00  0.00    -0.073 N 
ATOM     10  H23 UNL     1      35.976  63.025-154.213  1.00  0.00     0.274 HD
ATOM     11  H22 UNL     1      35.341  64.150-153.365  1.00  0.00     0.274 HD
ATOM     12  H21 UNL     1      35.851  64.553-154.925  1.00  0.00     0.274 HD
ENDBRANCH   1   9
BRANCH   1  13
HETATM   13  C5  UNL     1      37.282  65.238-152.317  1.00  0.00     0.306 C 
BRANCH  13  14
HETATM   14  N3  UNL     1      36.028  65.049-151.704  1.00  0.00     0.107 N 
HETATM   15  C6  UNL     1      35.439  65.945-150.885  1.00  0.00     0.283 A 
HETATM   16  C7  UNL     1      34.213  65.925-150.045  1.00  0.00     0.270 C 
HETATM   17  C9  UNL     1      35.797  64.469-150.507  1.00  0.00     0.283 A 
HETATM   18  N4  UNL     1      34.825  65.554-148.755  1.00  0.00    -0.071 N 
HETATM   19  C8  UNL     1      36.039  64.796-149.092  1.00  0.00     0.270 C 
ATOM     20  H42 UNL     1      34.998  66.350-148.140  1.00  0.00     0.277 HD
ATOM     21  H41 UNL     1      34.192  65.054-148.130  1.00  0.00     0.277 HD
ENDBRANCH  13  14
ENDBRANCH   1  13
TORSDOF 7
ENDMDL
MODEL 4
REMARK VINA RESULT: -4.839666791      1.330      1.932
REMARK  7 active torsions:
REMARK  status: ('A' for Active; 'I' for Inactive)
REMARK    1  A    between atoms: N1_1  and  C1_5 
REMARK    2  A    between atoms: C1_5  and  C2_6 
REMARK    3  A    between atoms: C2_6  and  C3_7 
REMARK    4  A    between atoms: C3_7  and  C4_8 
REMARK    5  A    between atoms: C4_8  and  N2_9 
REMARK    6  A    between atoms: C4_8  and  C5_13 
REMARK    7  A    between atoms: C5_13  and  N3_14 
ROOT
HETATM    1  C4  UNL     1      37.300  64.744-153.695  1.00  0.00     0.211 C 
ENDROOT
BRANCH   1   2
HETATM    2  C3  UNL     1      38.496  63.845-153.907  1.00  0.00     0.036 C 
BRANCH   2   3
HETATM    3  C2  UNL     1      38.181  62.410-153.672  1.00  0.00     0.029 C 
BRANCH   3   4
HETATM    4  C1  UNL     1      38.865  61.522-154.680  1.00  0.00     0.229 C 
BRANCH   4   5
HETATM    5  N1  UNL     1      38.153  61.735-155.946  1.00  0.00    -0.079 N 
ATOM      6  H13 UNL     1      37.855  62.700-156.090  1.00  0.00     0.274 HD
ATOM      7  H12 UNL     1      38.754  61.669-156.769  1.00  0.00     0.274 HD
ATOM      8  H11 UNL     1      37.384  61.065-155.947  1.00  0.00     0.274 HD
ENDBRANCH   4   5
ENDBRANCH   3   4
ENDBRANCH   2   3
ENDBRANCH   1   2
BRANCH   1   9
HETATM    9  N2  UNL     1      36.074  64.028-153.986  1.00  0.00    -0.073 N 
ATOM     10  H23 UNL     1      35.994  63.174-153.435  1.00  0.00     0.274 HD
ATOM     11  H22 UNL     1      35.254  64.517-153.627  1.00  0.00     0.274 HD
ATOM     12  H21 UNL     1      35.999  63.844-154.986  1.00  0.00     0.274 HD
ENDBRANCH   1   9
BRANCH   1  13
HETATM   13  C5  UNL     1      37.300  65.307-152.285  1.00  0.00     0.306 C 
BRANCH  13  14
HETATM   14  N3  UNL     1      36.046  65.089-151.681  1.00  0.00     0.107 N 
HETATM   15  C6  UNL     1      35.436  65.967-150.858  1.00  0.00     0.283 A 
HETATM   16  C7  UNL     1      34.205  65.917-150.026  1.00  0.00     0.270 C 
HETATM   17  C9  UNL     1      35.819  64.495-150.491  1.00  0.00     0.283 A 
HETATM   18  N4  UNL     1      34.816  65.547-148.736  1.00  0.00    -0.071 N 
HETATM   19  C8  UNL     1      36.046  64.814-149.072  1.00  0.00     0.270 C 
ATOM     20  H42 UNL     1      34.971  66.340-148.114  1.00  0.00     0.277 HD
ATOM     21  H41 UNL     1      34.188  65.030-148.119  1.00  0.00     0.277 HD
ENDBRANCH  13  14
ENDBRANCH   1  13
TORSDOF 7
ENDMDL
MODEL 5
REMARK VINA RESULT: -4.769784548      1.225      4.825
REMARK  7 active torsions:
REMARK  status: ('A' for Active; 'I' for Inactive)
REMARK    1  A    between atoms: N1_1  and  C1_5 
REMARK    2  A    between atoms: C1_5  and  C2_6 
REMARK    3  A    between atoms: C2_6  and  C3_7 
REMARK    4  A    between atoms: C3_7  and  C4_8 
REMARK    5  A    between atoms: C4_8  and  N2_9 
REMARK    6  A    between atoms: C4_8  and  C5_13 
REMARK    7  A    between atoms: C5_13  and  N3_14 
ROOT
HETATM    1  C4  UNL     1      36.952  66.064-151.471  1.00  0.00     0.211 C 
ENDROOT
BRANCH   1   2
HETATM    2  C3  UNL     1      35.930  65.108-150.900  1.00  0.00     0.036 C 
BRANCH   2   3
HETATM    3  C2  UNL     1      36.062  64.944-149.427  1.00  0.00     0.029 C 
BRANCH   3   4
HETATM    4  C1  UNL     1      34.825  65.417-148.705  1.00  0.00     0.229 C 
BRANCH   4   5
HETATM    5  N1  UNL     1      33.848  65.732-149.754  1.00  0.00    -0.079 N 
ATOM      6  H13 UNL     1      33.683  64.963-150.404  1.00  0.00     0.274 HD
ATOM      7  H12 UNL     1      32.890  65.810-149.410  1.00  0.00     0.274 HD
ATOM      8  H11 UNL     1      34.191  66.581-150.205  1.00  0.00     0.274 HD
ENDBRANCH   4   5
ENDBRANCH   3   4
ENDBRANCH   2   3
ENDBRANCH   1   2
BRANCH   1   9
HETATM    9  N2  UNL     1      36.848  67.356-150.825  1.00  0.00    -0.073 N 
ATOM     10  H23 UNL     1      35.891  67.706-150.826  1.00  0.00     0.274 HD
ATOM     11  H22 UNL     1      36.984  67.290-149.817  1.00  0.00     0.274 HD
ATOM     12  H21 UNL     1      37.496  68.019-151.252  1.00  0.00     0.274 HD
ENDBRANCH   1   9
BRANCH   1  13
HETATM   13  C5  UNL     1      38.350  65.485-151.347  1.00  0.00     0.306 C 
BRANCH  13  14
HETATM   14  N3  UNL     1      38.796  65.035-152.606  1.00  0.00     0.107 N 
HETATM   15  C6  UNL     1      38.058  65.081-153.734  1.00  0.00     0.283 A 
HETATM   16  C7  UNL     1      38.256  64.572-155.117  1.00  0.00     0.270 C 
HETATM   17  C9  UNL     1      38.673  63.787-153.104  1.00  0.00     0.283 A 
HETATM   18  N4  UNL     1      37.510  63.304-155.003  1.00  0.00    -0.071 N 
HETATM   19  C8  UNL     1      37.580  62.926-153.583  1.00  0.00     0.270 C 
ATOM     20  H42 UNL     1      36.558  63.355-155.366  1.00  0.00     0.277 HD
ATOM     21  H41 UNL     1      37.842  62.576-155.636  1.00  0.00     0.277 HD
ENDBRANCH  13  14
ENDBRANCH   1  13
TORSDOF 7
ENDMDL
