MODEL 1
REMARK VINA RESULT: -5.615423859      0.000      0.000
REMARK  5 active torsions:
REMARK  status: ('A' for Active; 'I' for Inactive)
REMARK       I    between atoms: N1_1  and  C1_5 
REMARK       I    between atoms: C1_5  and  N2_6 
REMARK       I    between atoms: C1_5  and  N3_10 
REMARK    1  A    between atoms: N3_10  and  N4_11 
REMARK    2  A    between atoms: N4_11  and  N5_12 
REMARK    3  A    between atoms: N4_11  and  C2_15 
REMARK    4  A    between atoms: N6_16  and  C3_18 
REMARK    5  A    between atoms: C3_18  and  C4_19 
ROOT
HETATM    1  N4  UNL     1      37.816  63.776-153.128  1.00  0.00    -0.200 N 
ENDROOT
BRANCH   1   2
HETATM    2  N3  UNL     1      37.596  62.414-153.462  1.00  0.00    -0.057 NA
HETATM    3  C1  UNL     1      38.419  62.142-154.649  1.00  0.00     0.492 C 
HETATM    4  N1  UNL     1      38.185  60.743-154.983  1.00  0.00    -0.034 N 
HETATM    5  N2  UNL     1      37.944  62.953-155.729  1.00  0.00    -0.034 N 
ATOM      6  H13 UNL     1      37.211  60.553-155.215  1.00  0.00     0.278 HD
ATOM      7  H12 UNL     1      38.595  60.480-155.880  1.00  0.00     0.278 HD
ATOM      8  H11 UNL     1      38.524  60.165-154.214  1.00  0.00     0.278 HD
ATOM      9  H23 UNL     1      38.354  62.691-156.625  1.00  0.00     0.278 HD
ATOM     10  H22 UNL     1      36.969  62.763-155.960  1.00  0.00     0.278 HD
ATOM     11  H21 UNL     1      38.107  63.931-155.495  1.00  0.00     0.278 HD
ENDBRANCH   1   2
BRANCH   1  12
HETATM   12  N5  UNL     1      39.054  64.097-152.613  1.00  0.00    -0.326 N 
ATOM     13  H52 UNL     1      39.919  64.129-153.153  1.00  0.00     0.178 HD
ATOM     14  H51 UNL     1      39.095  64.316-151.617  1.00  0.00     0.178 HD
ENDBRANCH   1  12
BRANCH   1  15
HETATM   15  C2  UNL     1      36.761  64.704-153.343  1.00  0.00     0.218 C 
HETATM   16  N6  UNL     1      35.773  64.863-152.527  1.00  0.00    -0.379 N 
ATOM     17  H6  UNL     1      35.038  65.543-152.723  1.00  0.00     0.160 HD
BRANCH  16  18
HETATM   18  C3  UNL     1      35.734  64.063-151.338  1.00  0.00     0.159 C 
BRANCH  18  19
HETATM   19  C4  UNL     1      35.295  64.915-150.179  1.00  0.00    -0.041 A 
HETATM   20  C5  UNL     1      35.645  65.062-148.911  1.00  0.00     0.009 A 
HETATM   21  C6  UNL     1      34.633  66.091-148.714  1.00  0.00     0.001 A 
HETATM   22  C7  UNL     1      34.280  65.945-149.982  1.00  0.00     0.009 A 
ENDBRANCH  18  19
ENDBRANCH  16  18
ENDBRANCH   1  15
TORSDOF 5
ENDMDL
MODEL 2
REMARK VINA RESULT: -5.487485937      1.320      1.489
REMARK  5 active torsions:
REMARK  status: ('A' for Active; 'I' for Inactive)
REMARK       I    between atoms: N1_1  and  C1_5 
REMARK       I    between atoms: C1_5  and  N2_6 
REMARK       I    between atoms: C1_5  and  N3_10 
REMARK    1  A    between atoms: N3_10  and  N4_11 
REMARK    2  A    between atoms: N4_11  and  N5_12 
REMARK    3  A    between atoms: N4_11  and  C2_15 
REMARK    4  A    between atoms: N6_16  and  C3_18 
REMARK    5  A    between atoms: C3_18  and  C4_19 
ROOT
HETATM    1  N4  UNL     1      37.626  63.447-153.505  1.00  0.00    -0.200 N 
ENDROOT
BRANCH   1   2
HETATM    2  N3  UNL     1      38.119  62.116-153.470  1.00  0.00    -0.057 NA
HETATM    3  C1  UNL     1      39.578  62.212-153.627  1.00  0.00     0.492 C 
HETATM    4  N1  UNL     1      40.072  60.842-153.589  1.00  0.00    -0.034 N 
HETATM    5  N2  UNL     1      39.862  62.763-154.916  1.00  0.00    -0.034 N 
ATOM      6  H13 UNL     1      39.702  60.271-154.349  1.00  0.00     0.278 HD
ATOM      7  H12 UNL     1      41.060  60.775-153.834  1.00  0.00     0.278 HD
ATOM      8  H11 UNL     1      39.870  60.449-152.670  1.00  0.00     0.278 HD
ATOM      9  H23 UNL     1      40.850  62.697-155.162  1.00  0.00     0.278 HD
ATOM     10  H22 UNL     1      39.491  62.192-155.676  1.00  0.00     0.278 HD
ATOM     11  H21 UNL     1      39.516  63.722-154.942  1.00  0.00     0.278 HD
ENDBRANCH   1   2
BRANCH   1  12
HETATM   12  N5  UNL     1      36.678  63.732-154.466  1.00  0.00    -0.326 N 
ATOM     13  H52 UNL     1      35.875  63.142-154.685  1.00  0.00     0.178 HD
ATOM     14  H51 UNL     1      36.801  64.600-154.988  1.00  0.00     0.178 HD
ENDBRANCH   1  12
BRANCH   1  15
HETATM   15  C2  UNL     1      38.133  64.382-152.563  1.00  0.00     0.218 C 
HETATM   16  N6  UNL     1      37.450  64.829-151.563  1.00  0.00    -0.379 N 
ATOM     17  H6  UNL     1      37.857  65.501-150.911  1.00  0.00     0.160 HD
BRANCH  16  18
HETATM   18  C3  UNL     1      36.107  64.361-151.390  1.00  0.00     0.159 C 
BRANCH  18  19
HETATM   19  C4  UNL     1      35.505  65.011-150.174  1.00  0.00    -0.041 A 
HETATM   20  C5  UNL     1      35.697  64.960-148.866  1.00  0.00     0.009 A 
HETATM   21  C6  UNL     1      34.635  65.931-148.636  1.00  0.00     0.001 A 
HETATM   22  C7  UNL     1      34.441  65.983-149.945  1.00  0.00     0.009 A 
ENDBRANCH  18  19
ENDBRANCH  16  18
ENDBRANCH   1  15
TORSDOF 5
ENDMDL
MODEL 3
REMARK VINA RESULT: -5.452243625      1.937      2.719
REMARK  5 active torsions:
REMARK  status: ('A' for Active; 'I' for Inactive)
REMARK       I    between atoms: N1_1  and  C1_5 
REMARK       I    between atoms: C1_5  and  N2_6 
REMARK       I    between atoms: C1_5  and  N3_10 
REMARK    1  A    between atoms: N3_10  and  N4_11 
REMARK    2  A    between atoms: N4_11  and  N5_12 
REMARK    3  A    between atoms: N4_11  and  C2_15 
REMARK    4  A    between atoms: N6_16  and  C3_18 
REMARK    5  A    between atoms: C3_18  and  C4_19 
ROOT
HETATM    1  N4  UNL     1      37.424  64.429-153.915  1.00  0.00    -0.200 N 
ENDROOT
BRANCH   1   2
HETATM    2  N3  UNL     1      37.372  65.663-154.616  1.00  0.00    -0.057 NA
HETATM    3  C1  UNL     1      38.292  65.530-155.755  1.00  0.00     0.492 C 
HETATM    4  N1  UNL     1      38.231  66.802-156.465  1.00  0.00    -0.034 N 
HETATM    5  N2  UNL     1      39.620  65.355-155.249  1.00  0.00    -0.034 N 
ATOM      6  H13 UNL     1      38.538  67.586-155.891  1.00  0.00     0.278 HD
ATOM      7  H12 UNL     1      38.941  66.877-157.194  1.00  0.00     0.278 HD
ATOM      8  H11 UNL     1      37.285  66.927-156.825  1.00  0.00     0.278 HD
ATOM      9  H23 UNL     1      40.329  65.431-155.979  1.00  0.00     0.278 HD
ATOM     10  H22 UNL     1      39.926  66.140-154.675  1.00  0.00     0.278 HD
ATOM     11  H21 UNL     1      39.662  64.466-154.752  1.00  0.00     0.278 HD
ENDBRANCH   1   2
BRANCH   1  12
HETATM   12  N5  UNL     1      36.931  63.321-154.572  1.00  0.00    -0.326 N 
ATOM     13  H52 UNL     1      36.268  62.655-154.174  1.00  0.00     0.178 HD
ATOM     14  H51 UNL     1      37.262  63.167-155.525  1.00  0.00     0.178 HD
ENDBRANCH   1  12
BRANCH   1  15
HETATM   15  C2  UNL     1      37.972  64.418-152.604  1.00  0.00     0.218 C 
HETATM   16  N6  UNL     1      37.257  64.492-151.532  1.00  0.00    -0.379 N 
ATOM     17  H6  UNL     1      37.695  64.480-150.610  1.00  0.00     0.160 HD
BRANCH  16  18
HETATM   18  C3  UNL     1      35.834  64.590-151.665  1.00  0.00     0.159 C 
BRANCH  18  19
HETATM   19  C4  UNL     1      35.250  65.135-150.391  1.00  0.00    -0.041 A 
HETATM   20  C5  UNL     1      34.198  65.862-150.051  1.00  0.00     0.009 A 
HETATM   21  C6  UNL     1      34.568  65.808-148.644  1.00  0.00     0.001 A 
HETATM   22  C7  UNL     1      35.623  65.081-148.980  1.00  0.00     0.009 A 
ENDBRANCH  18  19
ENDBRANCH  16  18
ENDBRANCH   1  15
TORSDOF 5
ENDMDL
MODEL 4
REMARK VINA RESULT: -5.431792565      1.909      2.728
REMARK  5 active torsions:
REMARK  status: ('A' for Active; 'I' for Inactive)
REMARK       I    between atoms: N1_1  and  C1_5 
REMARK       I    between atoms: C1_5  and  N2_6 
REMARK       I    between atoms: C1_5  and  N3_10 
REMARK    1  A    between atoms: N3_10  and  N4_11 
REMARK    2  A    between atoms: N4_11  and  N5_12 
REMARK    3  A    between atoms: N4_11  and  C2_15 
REMARK    4  A    between atoms: N6_16  and  C3_18 
REMARK    5  A    between atoms: C3_18  and  C4_19 
ROOT
HETATM    1  N4  UNL     1      38.311  64.626-152.890  1.00  0.00    -0.200 N 
ENDROOT
BRANCH   1   2
HETATM    2  N3  UNL     1      39.060  64.780-151.694  1.00  0.00    -0.057 NA
HETATM    3  C1  UNL     1      40.446  64.418-152.024  1.00  0.00     0.492 C 
HETATM    4  N1  UNL     1      41.203  64.580-150.789  1.00  0.00    -0.034 N 
HETATM    5  N2  UNL     1      40.479  63.038-152.400  1.00  0.00    -0.034 N 
ATOM      6  H13 UNL     1      40.876  63.964-150.046  1.00  0.00     0.278 HD
ATOM      7  H12 UNL     1      42.154  64.217-150.863  1.00  0.00     0.278 HD
ATOM      8  H11 UNL     1      41.180  65.563-150.521  1.00  0.00     0.278 HD
ATOM      9  H23 UNL     1      41.429  62.675-152.474  1.00  0.00     0.278 HD
ATOM     10  H22 UNL     1      40.152  62.422-151.657  1.00  0.00     0.278 HD
ATOM     11  H21 UNL     1      39.949  62.925-153.264  1.00  0.00     0.278 HD
ENDBRANCH   1   2
BRANCH   1  12
HETATM   12  N5  UNL     1      38.683  65.412-153.961  1.00  0.00    -0.326 N 
ATOM     13  H52 UNL     1      38.830  65.070-154.911  1.00  0.00     0.178 HD
ATOM     14  H51 UNL     1      38.819  66.406-153.776  1.00  0.00     0.178 HD
ENDBRANCH   1  12
BRANCH   1  15
HETATM   15  C2  UNL     1      37.245  63.686-152.905  1.00  0.00     0.218 C 
HETATM   16  N6  UNL     1      36.039  63.970-152.546  1.00  0.00    -0.379 N 
ATOM     17  H6  UNL     1      35.305  63.262-152.574  1.00  0.00     0.160 HD
BRANCH  16  18
HETATM   18  C3  UNL     1      35.753  65.305-152.108  1.00  0.00     0.159 C 
BRANCH  18  19
HETATM   19  C4  UNL     1      35.413  65.285-150.643  1.00  0.00    -0.041 A 
HETATM   20  C5  UNL     1      35.978  64.840-149.533  1.00  0.00     0.009 A 
HETATM   21  C6  UNL     1      34.861  65.316-148.729  1.00  0.00     0.001 A 
HETATM   22  C7  UNL     1      34.292  65.762-149.838  1.00  0.00     0.009 A 
ENDBRANCH  18  19
ENDBRANCH  16  18
ENDBRANCH   1  15
TORSDOF 5
ENDMDL
MODEL 5
REMARK VINA RESULT: -5.366028729      1.673      2.050
REMARK  5 active torsions:
REMARK  status: ('A' for Active; 'I' for Inactive)
REMARK       I    between atoms: N1_1  and  C1_5 
REMARK       I    between atoms: C1_5  and  N2_6 
REMARK       I    between atoms: C1_5  and  N3_10 
REMARK    1  A    between atoms: N3_10  and  N4_11 
REMARK    2  A    between atoms: N4_11  and  N5_12 
REMARK    3  A    between atoms: N4_11  and  C2_15 
REMARK    4  A    between atoms: N6_16  and  C3_18 
REMARK    5  A    between atoms: C3_18  and  C4_19 
ROOT
HETATM    1  N4  UNL     1      38.304  62.871-153.612  1.00  0.00    -0.200 N 
ENDROOT
BRANCH   1   2
HETATM    2  N3  UNL     1      38.173  61.458-153.649  1.00  0.00    -0.057 NA
HETATM    3  C1  UNL     1      39.505  60.927-153.972  1.00  0.00     0.492 C 
HETATM    4  N1  UNL     1      39.358  59.478-154.007  1.00  0.00    -0.034 N 
HETATM    5  N2  UNL     1      39.871  61.380-155.279  1.00  0.00    -0.034 N 
ATOM      6  H13 UNL     1      38.704  59.168-154.725  1.00  0.00     0.278 HD
ATOM      7  H12 UNL     1      40.191  59.009-154.365  1.00  0.00     0.278 HD
ATOM      8  H11 UNL     1      39.098  59.155-153.076  1.00  0.00     0.278 HD
ATOM      9  H23 UNL     1      40.703  60.911-155.637  1.00  0.00     0.278 HD
ATOM     10  H22 UNL     1      39.217  61.070-155.997  1.00  0.00     0.278 HD
ATOM     11  H21 UNL     1      39.974  62.394-155.254  1.00  0.00     0.278 HD
ENDBRANCH   1   2
BRANCH   1  12
HETATM   12  N5  UNL     1      39.336  63.379-152.851  1.00  0.00    -0.326 N 
ATOM     13  H52 UNL     1      40.327  63.231-153.042  1.00  0.00     0.178 HD
ATOM     14  H51 UNL     1      39.076  63.942-152.041  1.00  0.00     0.178 HD
ENDBRANCH   1  12
BRANCH   1  15
HETATM   15  C2  UNL     1      37.377  63.656-154.350  1.00  0.00     0.218 C 
HETATM   16  N6  UNL     1      36.331  64.202-153.828  1.00  0.00    -0.379 N 
ATOM     17  H6  UNL     1      35.693  64.758-154.398  1.00  0.00     0.160 HD
BRANCH  16  18
HETATM   18  C3  UNL     1      36.085  64.009-152.429  1.00  0.00     0.159 C 
BRANCH  18  19
HETATM   19  C4  UNL     1      36.373  65.288-151.692  1.00  0.00    -0.041 A 
HETATM   20  C5  UNL     1      35.706  66.107-150.895  1.00  0.00     0.009 A 
HETATM   21  C6  UNL     1      36.864  66.979-150.760  1.00  0.00     0.001 A 
HETATM   22  C7  UNL     1      37.534  66.162-151.559  1.00  0.00     0.009 A 
ENDBRANCH  18  19
ENDBRANCH  16  18
ENDBRANCH   1  15
TORSDOF 5
ENDMDL
