MODEL 1
REMARK VINA RESULT: -5.051899491      0.000      0.000
REMARK  0 active torsions:
REMARK  status: ('A' for Active; 'I' for Inactive)
REMARK       I    between atoms: N1_7  and  C7_8 
ROOT
HETATM    1  C1  UNL     1      44.602  -1.020  28.521  1.00  0.00     0.032 C 
HETATM    2  C2  UNL     1      43.227  -1.487  28.015  1.00  0.00     0.086 C 
HETATM    3  C3  UNL     1      42.312  -1.723  29.144  1.00  0.00     0.025 C 
HETATM    4  C4  UNL     1      42.117  -3.111  29.611  1.00  0.00     0.004 C 
HETATM    5  C5  UNL     1      42.335  -4.217  28.654  1.00  0.00     0.020 C 
HETATM    6  C6  UNL     1      43.209  -3.978  27.497  1.00  0.00     0.129 C 
HETATM    7  N1  UNL     1      43.486  -2.612  27.159  1.00  0.00    -0.322 N 
HETATM    8  C7  UNL     1      44.058  -2.354  25.886  1.00  0.00     0.286 C 
HETATM    9  O1  UNL     1      44.331  -1.185  25.515  1.00  0.00    -0.630 OA
HETATM   10  O2  UNL     1      44.337  -3.385  25.004  1.00  0.00    -0.630 OA
ENDROOT
TORSDOF 0
ENDMDL
MODEL 2
REMARK VINA RESULT: -4.685857564      1.395      1.769
REMARK  0 active torsions:
REMARK  status: ('A' for Active; 'I' for Inactive)
REMARK       I    between atoms: N1_7  and  C7_8 
ROOT
HETATM    1  C1  UNL     1      43.547  -1.432  30.476  1.00  0.00     0.032 C 
HETATM    2  C2  UNL     1      42.662  -1.671  29.241  1.00  0.00     0.086 C 
HETATM    3  C3  UNL     1      41.549  -2.577  29.568  1.00  0.00     0.025 C 
HETATM    4  C4  UNL     1      41.674  -4.003  29.202  1.00  0.00     0.004 C 
HETATM    5  C5  UNL     1      42.556  -4.368  28.073  1.00  0.00     0.020 C 
HETATM    6  C6  UNL     1      43.641  -3.448  27.706  1.00  0.00     0.129 C 
HETATM    7  N1  UNL     1      43.551  -2.104  28.199  1.00  0.00    -0.322 N 
HETATM    8  C7  UNL     1      44.403  -1.132  27.613  1.00  0.00     0.286 C 
HETATM    9  O1  UNL     1      44.386   0.067  27.989  1.00  0.00    -0.630 OA
HETATM   10  O2  UNL     1      45.288  -1.472  26.602  1.00  0.00    -0.630 OA
ENDROOT
TORSDOF 0
ENDMDL
MODEL 3
REMARK VINA RESULT: -4.654023253      2.191      3.216
REMARK  0 active torsions:
REMARK  status: ('A' for Active; 'I' for Inactive)
REMARK       I    between atoms: N1_7  and  C7_8 
ROOT
HETATM    1  C1  UNL     1      43.984  -0.758  26.024  1.00  0.00     0.032 C 
HETATM    2  C2  UNL     1      44.605  -1.957  26.761  1.00  0.00     0.086 C 
HETATM    3  C3  UNL     1      44.462  -3.186  25.963  1.00  0.00     0.025 C 
HETATM    4  C4  UNL     1      43.365  -4.117  26.300  1.00  0.00     0.004 C 
HETATM    5  C5  UNL     1      42.841  -4.123  27.682  1.00  0.00     0.020 C 
HETATM    6  C6  UNL     1      43.021  -2.918  28.504  1.00  0.00     0.129 C 
HETATM    7  N1  UNL     1      44.003  -1.970  28.065  1.00  0.00    -0.322 N 
HETATM    8  C7  UNL     1      44.410  -0.972  28.990  1.00  0.00     0.286 C 
HETATM    9  O1  UNL     1      45.266  -0.104  28.682  1.00  0.00    -0.630 OA
HETATM   10  O2  UNL     1      43.876  -0.918  30.267  1.00  0.00    -0.630 OA
ENDROOT
TORSDOF 0
ENDMDL
MODEL 4
REMARK VINA RESULT: -4.467632847      1.285      2.650
REMARK  0 active torsions:
REMARK  status: ('A' for Active; 'I' for Inactive)
REMARK       I    between atoms: N1_7  and  C7_8 
ROOT
HETATM    1  C1  UNL     1      42.340  -3.795  28.090  1.00  0.00     0.032 C 
HETATM    2  C2  UNL     1      43.749  -3.180  28.099  1.00  0.00     0.086 C 
HETATM    3  C3  UNL     1      43.924  -2.300  29.267  1.00  0.00     0.025 C 
HETATM    4  C4  UNL     1      43.773  -0.843  29.076  1.00  0.00     0.004 C 
HETATM    5  C5  UNL     1      44.031  -0.274  27.736  1.00  0.00     0.020 C 
HETATM    6  C6  UNL     1      43.906  -1.155  26.566  1.00  0.00     0.129 C 
HETATM    7  N1  UNL     1      43.918  -2.568  26.810  1.00  0.00    -0.322 N 
HETATM    8  C7  UNL     1      44.112  -3.424  25.694  1.00  0.00     0.286 C 
HETATM    9  O1  UNL     1      44.135  -4.674  25.824  1.00  0.00    -0.630 OA
HETATM   10  O2  UNL     1      44.282  -2.911  24.419  1.00  0.00    -0.630 OA
ENDROOT
TORSDOF 0
ENDMDL
MODEL 5
REMARK VINA RESULT: -4.281201308      2.375      2.908
REMARK  0 active torsions:
REMARK  status: ('A' for Active; 'I' for Inactive)
REMARK       I    between atoms: N1_7  and  C7_8 
ROOT
HETATM    1  C1  UNL     1      43.081  -1.160  31.687  1.00  0.00     0.032 C 
HETATM    2  C2  UNL     1      42.250  -0.775  30.451  1.00  0.00     0.086 C 
HETATM    3  C3  UNL     1      40.826  -0.644  30.804  1.00  0.00     0.025 C 
HETATM    4  C4  UNL     1      39.923  -1.775  30.507  1.00  0.00     0.004 C 
HETATM    5  C5  UNL     1      40.282  -2.698  29.410  1.00  0.00     0.020 C 
HETATM    6  C6  UNL     1      41.695  -2.803  29.018  1.00  0.00     0.129 C 
HETATM    7  N1  UNL     1      42.570  -1.749  29.445  1.00  0.00    -0.322 N 
HETATM    8  C7  UNL     1      43.845  -1.665  28.827  1.00  0.00     0.286 C 
HETATM    9  O1  UNL     1      44.670  -0.772  29.145  1.00  0.00    -0.630 OA
HETATM   10  O2  UNL     1      44.228  -2.568  27.847  1.00  0.00    -0.630 OA
ENDROOT
TORSDOF 0
ENDMDL
