MODEL 1
REMARK VINA RESULT: -4.812536829      0.000      0.000
REMARK  1 active torsions:
REMARK  status: ('A' for Active; 'I' for Inactive)
REMARK    1  A    between atoms: C2_3  and  O1_4 
ROOT
HETATM    1  N1  UNL     1      40.715  -2.338  29.433  1.00  0.00    -0.194 NA
HETATM    2  C1  UNL     1      41.787  -2.448  28.979  1.00  0.00     0.097 C 
HETATM    3  C2  UNL     1      43.129  -2.570  28.388  1.00  0.00     0.146 C 
HETATM    4  C3  UNL     1      43.131  -3.841  27.616  1.00  0.00     0.053 C 
HETATM    5  C4  UNL     1      44.119  -3.920  26.514  1.00  0.00     0.004 C 
HETATM    6  C5  UNL     1      44.072  -2.699  25.638  1.00  0.00     0.000 C 
HETATM    7  C6  UNL     1      44.216  -1.425  26.404  1.00  0.00     0.004 C 
HETATM    8  C7  UNL     1      43.508  -1.341  27.689  1.00  0.00     0.053 C 
ENDROOT
BRANCH   3   9
HETATM    9  O1  UNL     1      43.981  -2.777  29.505  1.00  0.00    -0.376 OA
ATOM     10  H1  UNL     1      44.767  -3.157  29.129  1.00  0.00     0.211 HD
ENDBRANCH   3   9
TORSDOF 1
ENDMDL
MODEL 2
REMARK VINA RESULT: -4.733550220      2.491      3.626
REMARK  1 active torsions:
REMARK  status: ('A' for Active; 'I' for Inactive)
REMARK    1  A    between atoms: C2_3  and  O1_4 
ROOT
HETATM    1  N1  UNL     1      43.756  -0.007  24.500  1.00  0.00    -0.194 NA
HETATM    2  C1  UNL     1      44.021  -0.703  25.401  1.00  0.00     0.097 C 
HETATM    3  C2  UNL     1      44.335  -1.596  26.528  1.00  0.00     0.146 C 
HETATM    4  C3  UNL     1      43.684  -1.001  27.725  1.00  0.00     0.053 C 
HETATM    5  C4  UNL     1      43.378  -1.946  28.825  1.00  0.00     0.004 C 
HETATM    6  C5  UNL     1      42.672  -3.175  28.321  1.00  0.00     0.000 C 
HETATM    7  C6  UNL     1      43.405  -3.854  27.210  1.00  0.00     0.004 C 
HETATM    8  C7  UNL     1      44.024  -2.987  26.198  1.00  0.00     0.053 C 
ENDROOT
BRANCH   3   9
HETATM    9  O1  UNL     1      45.735  -1.440  26.712  1.00  0.00    -0.376 OA
ATOM     10  H1  UNL     1      45.847  -1.460  27.656  1.00  0.00     0.211 HD
ENDBRANCH   3   9
TORSDOF 1
ENDMDL
MODEL 3
REMARK VINA RESULT: -4.295580269      1.886      2.558
REMARK  1 active torsions:
REMARK  status: ('A' for Active; 'I' for Inactive)
REMARK    1  A    between atoms: C2_3  and  O1_4 
ROOT
HETATM    1  N1  UNL     1      43.856  -1.160  31.384  1.00  0.00    -0.194 NA
HETATM    2  C1  UNL     1      43.469  -1.369  30.301  1.00  0.00     0.097 C 
HETATM    3  C2  UNL     1      42.996  -1.654  28.937  1.00  0.00     0.146 C 
HETATM    4  C3  UNL     1      43.832  -0.827  28.026  1.00  0.00     0.053 C 
HETATM    5  C4  UNL     1      43.945  -1.323  26.633  1.00  0.00     0.004 C 
HETATM    6  C5  UNL     1      44.297  -2.784  26.592  1.00  0.00     0.000 C 
HETATM    7  C6  UNL     1      43.366  -3.633  27.395  1.00  0.00     0.004 C 
HETATM    8  C7  UNL     1      42.935  -3.095  28.693  1.00  0.00     0.053 C 
ENDROOT
BRANCH   3   9
HETATM    9  O1  UNL     1      41.690  -1.097  28.901  1.00  0.00    -0.376 OA
ATOM     10  H1  UNL     1      41.146  -1.806  28.578  1.00  0.00     0.211 HD
ENDBRANCH   3   9
TORSDOF 1
ENDMDL
MODEL 4
REMARK VINA RESULT: -4.238507130      2.004      3.713
REMARK  1 active torsions:
REMARK  status: ('A' for Active; 'I' for Inactive)
REMARK    1  A    between atoms: C2_3  and  O1_4 
ROOT
HETATM    1  N1  UNL     1      44.124  -1.833  25.881  1.00  0.00    -0.194 NA
HETATM    2  C1  UNL     1      43.776  -2.045  26.976  1.00  0.00     0.097 C 
HETATM    3  C2  UNL     1      43.313  -2.313  28.347  1.00  0.00     0.146 C 
HETATM    4  C3  UNL     1      43.194  -0.988  29.013  1.00  0.00     0.053 C 
HETATM    5  C4  UNL     1      42.252  -0.928  30.156  1.00  0.00     0.004 C 
HETATM    6  C5  UNL     1      40.920  -1.536  29.811  1.00  0.00     0.000 C 
HETATM    7  C6  UNL     1      41.034  -2.925  29.275  1.00  0.00     0.004 C 
HETATM    8  C7  UNL     1      42.139  -3.187  28.343  1.00  0.00     0.053 C 
ENDROOT
BRANCH   3   9
HETATM    9  O1  UNL     1      44.410  -2.973  28.960  1.00  0.00    -0.376 OA
ATOM     10  H1  UNL     1      44.234  -3.896  28.817  1.00  0.00     0.211 HD
ENDBRANCH   3   9
TORSDOF 1
ENDMDL
MODEL 5
REMARK VINA RESULT: -4.156416965      2.253      3.197
REMARK  1 active torsions:
REMARK  status: ('A' for Active; 'I' for Inactive)
REMARK    1  A    between atoms: C2_3  and  O1_4 
ROOT
HETATM    1  N1  UNL     1      41.846  -6.184  29.398  1.00  0.00    -0.194 NA
HETATM    2  C1  UNL     1      41.867  -5.024  29.249  1.00  0.00     0.097 C 
HETATM    3  C2  UNL     1      41.917  -3.567  29.052  1.00  0.00     0.146 C 
HETATM    4  C3  UNL     1      42.213  -2.977  30.385  1.00  0.00     0.053 C 
HETATM    5  C4  UNL     1      42.849  -1.638  30.365  1.00  0.00     0.004 C 
HETATM    6  C5  UNL     1      44.024  -1.595  29.428  1.00  0.00     0.000 C 
HETATM    7  C6  UNL     1      43.687  -2.054  28.047  1.00  0.00     0.004 C 
HETATM    8  C7  UNL     1      42.797  -3.219  27.936  1.00  0.00     0.053 C 
ENDROOT
BRANCH   3   9
HETATM    9  O1  UNL     1      40.577  -3.213  28.745  1.00  0.00    -0.376 OA
ATOM     10  H1  UNL     1      40.577  -3.104  27.800  1.00  0.00     0.211 HD
ENDBRANCH   3   9
TORSDOF 1
ENDMDL
