MODEL 1
REMARK VINA RESULT: -8.389563783      0.000      0.000
REMARK  9 active torsions:
REMARK  status: ('A' for Active; 'I' for Inactive)
REMARK    1  A    between atoms: N1_1  and  N2_4 
REMARK    2  A    between atoms: N2_4  and  C1_5 
REMARK    3  A    between atoms: C1_5  and  C2_6 
REMARK    4  A    between atoms: C2_6  and  C3_7 
REMARK    5  A    between atoms: C3_7  and  O1_8 
REMARK    6  A    between atoms: C3_7  and  N3_10 
REMARK    7  A    between atoms: N6_22  and  C10_23 
REMARK    8  A    between atoms: C15_28  and  N7_29 
REMARK    9  A    between atoms: N8_31  and  C16_33 
ROOT
HETATM    1  N3  UNL     1      25.838  30.243   4.168  1.00  0.00    -0.348 N 
ATOM      2  H3  UNL     1      25.585  29.557   4.880  1.00  0.00     0.163 HD
HETATM    3  C4  UNL     1      25.227  31.368   4.177  1.00  0.00     0.132 A 
HETATM    4  N4  UNL     1      25.502  32.321   3.278  1.00  0.00    -0.351 N 
ATOM      5  H4  UNL     1      26.214  32.149   2.568  1.00  0.00     0.166 HD
HETATM    6  C5  UNL     1      24.858  33.499   3.291  1.00  0.00     0.092 A 
HETATM    7  C6  UNL     1      23.880  33.789   4.235  1.00  0.00     0.049 A 
HETATM    8  C7  UNL     1      23.563  32.838   5.181  1.00  0.00     0.072 A 
HETATM    9  C8  UNL     1      24.244  31.650   5.131  1.00  0.00     0.105 A 
HETATM   10  N5  UNL     1      23.756  30.910   6.143  1.00  0.00    -0.347 N 
ATOM     11  H5  UNL     1      24.052  29.965   6.385  1.00  0.00     0.167 HD
HETATM   12  C9  UNL     1      22.800  31.638   6.792  1.00  0.00     0.189 A 
HETATM   13  N6  UNL     1      22.679  32.837   6.196  1.00  0.00    -0.303 N 
ENDROOT
BRANCH  13  14
HETATM   14  C10 UNL     1      21.822  33.928   6.507  1.00  0.00     0.068 A 
HETATM   15  C11 UNL     1      22.339  35.130   6.944  1.00  0.00     0.032 A 
HETATM   16  C12 UNL     1      21.512  36.202   7.251  1.00  0.00     0.002 A 
HETATM   17  C13 UNL     1      20.142  36.105   7.131  1.00  0.00     0.002 A 
HETATM   18  C14 UNL     1      19.608  34.908   6.696  1.00  0.00     0.033 A 
HETATM   19  C15 UNL     1      20.430  33.839   6.389  1.00  0.00     0.075 A 
BRANCH  19  20
HETATM   20  N7  UNL     1      19.908  32.623   5.948  1.00  0.00    -0.298 N 
HETATM   21  N8  UNL     1      19.478  32.291   4.837  1.00  0.00    -0.297 N 
ATOM     22  H8  UNL     1      19.147  31.328   4.775  1.00  0.00     0.187 HD
ATOM     23  H7  UNL     1      19.875  31.890   6.657  1.00  0.00     0.187 HD
BRANCH  21  24
HETATM   24  C16 UNL     1      19.374  33.028   3.655  1.00  0.00     0.086 A 
HETATM   25  C17 UNL     1      20.476  33.235   2.869  1.00  0.00     0.034 A 
HETATM   26  C18 UNL     1      20.375  33.960   1.707  1.00  0.00     0.002 A 
HETATM   27  C19 UNL     1      19.166  34.492   1.315  1.00  0.00     0.003 A 
HETATM   28  C20 UNL     1      18.044  34.299   2.088  1.00  0.00     0.045 A 
HETATM   29  C21 UNL     1      18.170  33.561   3.259  1.00  0.00     0.144 A 
HETATM   30  F1  UNL     1      17.024  33.410   3.975  1.00  0.00    -0.204 F 
ENDBRANCH  21  24
ENDBRANCH  19  20
ENDBRANCH  13  14
BRANCH   1  31
HETATM   31  C3  UNL     1      26.849  29.886   3.228  1.00  0.00     0.220 C 
BRANCH  31  32
HETATM   32  C2  UNL     1      26.436  28.684   2.375  1.00  0.00     0.071 C 
BRANCH  32  33
HETATM   33  C1  UNL     1      26.646  27.454   3.234  1.00  0.00     0.138 C 
BRANCH  33  34
HETATM   34  N2  UNL     1      25.383  27.103   3.875  1.00  0.00    -0.148 NA
BRANCH  34  35
HETATM   35  N1  UNL     1      24.487  26.790   2.837  1.00  0.00    -0.348 N 
ATOM     36  H12 UNL     1      24.319  27.348   2.001  1.00  0.00     0.172 HD
ATOM     37  H11 UNL     1      24.051  25.904   3.093  1.00  0.00     0.172 HD
ENDBRANCH  34  35
ENDBRANCH  33  34
ENDBRANCH  32  33
ENDBRANCH  31  32
BRANCH  31  38
HETATM   38  O1  UNL     1      28.035  29.501   3.857  1.00  0.00    -0.377 OA
ATOM     39  H1  UNL     1      27.807  28.736   4.372  1.00  0.00     0.212 HD
ENDBRANCH  31  38
ENDBRANCH   1  31
TORSDOF 9
ENDMDL
MODEL 2
REMARK VINA RESULT: -8.213630410      0.851      1.204
REMARK  9 active torsions:
REMARK  status: ('A' for Active; 'I' for Inactive)
REMARK    1  A    between atoms: N1_1  and  N2_4 
REMARK    2  A    between atoms: N2_4  and  C1_5 
REMARK    3  A    between atoms: C1_5  and  C2_6 
REMARK    4  A    between atoms: C2_6  and  C3_7 
REMARK    5  A    between atoms: C3_7  and  O1_8 
REMARK    6  A    between atoms: C3_7  and  N3_10 
REMARK    7  A    between atoms: N6_22  and  C10_23 
REMARK    8  A    between atoms: C15_28  and  N7_29 
REMARK    9  A    between atoms: N8_31  and  C16_33 
ROOT
HETATM    1  N3  UNL     1      25.836  30.150   4.246  1.00  0.00    -0.348 N 
ATOM      2  H3  UNL     1      25.436  29.419   4.834  1.00  0.00     0.163 HD
HETATM    3  C4  UNL     1      25.309  31.316   4.298  1.00  0.00     0.132 A 
HETATM    4  N4  UNL     1      25.776  32.330   3.558  1.00  0.00    -0.351 N 
ATOM      5  H4  UNL     1      26.570  32.171   2.937  1.00  0.00     0.166 HD
HETATM    6  C5  UNL     1      25.220  33.551   3.617  1.00  0.00     0.092 A 
HETATM    7  C6  UNL     1      24.139  33.824   4.446  1.00  0.00     0.049 A 
HETATM    8  C7  UNL     1      23.624  32.811   5.226  1.00  0.00     0.072 A 
HETATM    9  C8  UNL     1      24.220  31.581   5.136  1.00  0.00     0.105 A 
HETATM   10  N5  UNL     1      23.542  30.786   5.982  1.00  0.00    -0.347 N 
ATOM     11  H5  UNL     1      23.733  29.800   6.154  1.00  0.00     0.167 HD
HETATM   12  C9  UNL     1      22.555  31.522   6.573  1.00  0.00     0.189 A 
HETATM   13  N6  UNL     1      22.605  32.782   6.105  1.00  0.00    -0.303 N 
ENDROOT
BRANCH  13  14
HETATM   14  C10 UNL     1      21.790  33.904   6.418  1.00  0.00     0.068 A 
HETATM   15  C11 UNL     1      22.354  35.095   6.825  1.00  0.00     0.032 A 
HETATM   16  C12 UNL     1      21.567  36.197   7.133  1.00  0.00     0.002 A 
HETATM   17  C13 UNL     1      20.193  36.142   7.045  1.00  0.00     0.002 A 
HETATM   18  C14 UNL     1      19.612  34.956   6.641  1.00  0.00     0.033 A 
HETATM   19  C15 UNL     1      20.393  33.858   6.332  1.00  0.00     0.075 A 
BRANCH  19  20
HETATM   20  N7  UNL     1      19.823  32.653   5.922  1.00  0.00    -0.298 N 
HETATM   21  N8  UNL     1      19.314  32.334   4.841  1.00  0.00    -0.297 N 
ATOM     22  H8  UNL     1      18.964  31.377   4.796  1.00  0.00     0.187 HD
ATOM     23  H7  UNL     1      19.827  31.915   6.627  1.00  0.00     0.187 HD
BRANCH  21  24
HETATM   24  C16 UNL     1      19.141  33.080   3.672  1.00  0.00     0.086 A 
HETATM   25  C17 UNL     1      17.911  33.586   3.348  1.00  0.00     0.034 A 
HETATM   26  C18 UNL     1      17.740  34.318   2.199  1.00  0.00     0.002 A 
HETATM   27  C19 UNL     1      18.803  34.553   1.353  1.00  0.00     0.003 A 
HETATM   28  C20 UNL     1      20.049  34.055   1.656  1.00  0.00     0.045 A 
HETATM   29  C21 UNL     1      20.198  33.317   2.825  1.00  0.00     0.144 A 
HETATM   30  F1  UNL     1      21.454  32.854   3.062  1.00  0.00    -0.204 F 
ENDBRANCH  21  24
ENDBRANCH  19  20
ENDBRANCH  13  14
BRANCH   1  31
HETATM   31  C3  UNL     1      26.944  29.807   3.417  1.00  0.00     0.220 C 
BRANCH  31  32
HETATM   32  C2  UNL     1      26.598  28.683   2.437  1.00  0.00     0.071 C 
BRANCH  32  33
HETATM   33  C1  UNL     1      26.717  27.387   3.211  1.00  0.00     0.138 C 
BRANCH  33  34
HETATM   34  N2  UNL     1      25.450  27.117   3.883  1.00  0.00    -0.148 NA
BRANCH  34  35
HETATM   35  N1  UNL     1      24.525  26.807   2.871  1.00  0.00    -0.348 N 
ATOM     36  H12 UNL     1      24.021  25.927   2.768  1.00  0.00     0.172 HD
ATOM     37  H11 UNL     1      24.465  27.632   2.274  1.00  0.00     0.172 HD
ENDBRANCH  34  35
ENDBRANCH  33  34
ENDBRANCH  32  33
ENDBRANCH  31  32
BRANCH  31  38
HETATM   38  O1  UNL     1      28.024  29.327   4.162  1.00  0.00    -0.377 OA
ATOM     39  H1  UNL     1      28.709  29.976   4.055  1.00  0.00     0.212 HD
ENDBRANCH  31  38
ENDBRANCH   1  31
TORSDOF 9
ENDMDL
MODEL 3
REMARK VINA RESULT: -8.057155149      1.263      1.865
REMARK  9 active torsions:
REMARK  status: ('A' for Active; 'I' for Inactive)
REMARK    1  A    between atoms: N1_1  and  N2_4 
REMARK    2  A    between atoms: N2_4  and  C1_5 
REMARK    3  A    between atoms: C1_5  and  C2_6 
REMARK    4  A    between atoms: C2_6  and  C3_7 
REMARK    5  A    between atoms: C3_7  and  O1_8 
REMARK    6  A    between atoms: C3_7  and  N3_10 
REMARK    7  A    between atoms: N6_22  and  C10_23 
REMARK    8  A    between atoms: C15_28  and  N7_29 
REMARK    9  A    between atoms: N8_31  and  C16_33 
ROOT
HETATM    1  N3  UNL     1      26.053  30.269   5.311  1.00  0.00    -0.348 N 
ATOM      2  H3  UNL     1      25.872  30.331   4.309  1.00  0.00     0.163 HD
HETATM    3  C4  UNL     1      25.341  30.988   6.095  1.00  0.00     0.132 A 
HETATM    4  N4  UNL     1      25.517  30.962   7.423  1.00  0.00    -0.351 N 
ATOM      5  H4  UNL     1      26.234  30.355   7.821  1.00  0.00     0.166 HD
HETATM    6  C5  UNL     1      24.767  31.719   8.240  1.00  0.00     0.092 A 
HETATM    7  C6  UNL     1      23.775  32.562   7.754  1.00  0.00     0.049 A 
HETATM    8  C7  UNL     1      23.559  32.622   6.394  1.00  0.00     0.072 A 
HETATM    9  C8  UNL     1      24.345  31.834   5.596  1.00  0.00     0.105 A 
HETATM   10  N5  UNL     1      23.939  32.074   4.337  1.00  0.00    -0.347 N 
ATOM     11  H5  UNL     1      24.324  31.645   3.495  1.00  0.00     0.167 HD
HETATM   12  C9  UNL     1      22.927  32.990   4.373  1.00  0.00     0.189 A 
HETATM   13  N6  UNL     1      22.688  33.331   5.652  1.00  0.00    -0.303 N 
ENDROOT
BRANCH  13  14
HETATM   14  C10 UNL     1      21.738  34.241   6.191  1.00  0.00     0.068 A 
HETATM   15  C11 UNL     1      22.121  35.498   6.611  1.00  0.00     0.032 A 
HETATM   16  C12 UNL     1      21.201  36.393   7.139  1.00  0.00     0.002 A 
HETATM   17  C13 UNL     1      19.870  36.060   7.265  1.00  0.00     0.002 A 
HETATM   18  C14 UNL     1      19.470  34.805   6.850  1.00  0.00     0.033 A 
HETATM   19  C15 UNL     1      20.384  33.912   6.323  1.00  0.00     0.075 A 
BRANCH  19  20
HETATM   20  N7  UNL     1      19.996  32.640   5.900  1.00  0.00    -0.298 N 
HETATM   21  N8  UNL     1      19.524  32.264   4.820  1.00  0.00    -0.297 N 
ATOM     22  H8  UNL     1      19.323  31.266   4.764  1.00  0.00     0.187 HD
ATOM     23  H7  UNL     1      20.122  31.901   6.592  1.00  0.00     0.187 HD
BRANCH  21  24
HETATM   24  C16 UNL     1      19.223  32.992   3.667  1.00  0.00     0.086 A 
HETATM   25  C17 UNL     1      20.180  33.201   2.710  1.00  0.00     0.034 A 
HETATM   26  C18 UNL     1      19.885  33.918   1.576  1.00  0.00     0.002 A 
HETATM   27  C19 UNL     1      18.623  34.440   1.384  1.00  0.00     0.003 A 
HETATM   28  C20 UNL     1      17.645  34.244   2.331  1.00  0.00     0.045 A 
HETATM   29  C21 UNL     1      17.967  33.514   3.471  1.00  0.00     0.144 A 
HETATM   30  F1  UNL     1      16.954  33.361   4.365  1.00  0.00    -0.204 F 
ENDBRANCH  21  24
ENDBRANCH  19  20
ENDBRANCH  13  14
BRANCH   1  31
HETATM   31  C3  UNL     1      27.084  29.385   5.748  1.00  0.00     0.220 C 
BRANCH  31  32
HETATM   32  C2  UNL     1      27.721  28.629   4.579  1.00  0.00     0.071 C 
BRANCH  32  33
HETATM   33  C1  UNL     1      26.606  28.343   3.594  1.00  0.00     0.138 C 
BRANCH  33  34
HETATM   34  N2  UNL     1      25.801  27.236   4.097  1.00  0.00    -0.148 NA
BRANCH  34  35
HETATM   35  N1  UNL     1      24.916  26.888   3.062  1.00  0.00    -0.348 N 
ATOM     36  H12 UNL     1      25.039  27.098   2.072  1.00  0.00     0.172 HD
ATOM     37  H11 UNL     1      24.142  26.390   3.502  1.00  0.00     0.172 HD
ENDBRANCH  34  35
ENDBRANCH  33  34
ENDBRANCH  32  33
ENDBRANCH  31  32
BRANCH  31  38
HETATM   38  O1  UNL     1      26.596  28.396   6.605  1.00  0.00    -0.377 OA
ATOM     39  H1  UNL     1      26.505  28.820   7.450  1.00  0.00     0.212 HD
ENDBRANCH  31  38
ENDBRANCH   1  31
TORSDOF 9
ENDMDL
MODEL 4
REMARK VINA RESULT: -7.862578482      1.168      1.359
REMARK  9 active torsions:
REMARK  status: ('A' for Active; 'I' for Inactive)
REMARK    1  A    between atoms: N1_1  and  N2_4 
REMARK    2  A    between atoms: N2_4  and  C1_5 
REMARK    3  A    between atoms: C1_5  and  C2_6 
REMARK    4  A    between atoms: C2_6  and  C3_7 
REMARK    5  A    between atoms: C3_7  and  O1_8 
REMARK    6  A    between atoms: C3_7  and  N3_10 
REMARK    7  A    between atoms: N6_22  and  C10_23 
REMARK    8  A    between atoms: C15_28  and  N7_29 
REMARK    9  A    between atoms: N8_31  and  C16_33 
ROOT
HETATM    1  N3  UNL     1      25.773  31.463   4.850  1.00  0.00    -0.348 N 
ATOM      2  H3  UNL     1      25.640  30.750   5.567  1.00  0.00     0.163 HD
HETATM    3  C4  UNL     1      24.918  32.414   4.783  1.00  0.00     0.132 A 
HETATM    4  N4  UNL     1      25.024  33.388   3.871  1.00  0.00    -0.351 N 
ATOM      5  H4  UNL     1      25.804  33.375   3.213  1.00  0.00     0.166 HD
HETATM    6  C5  UNL     1      24.124  34.383   3.805  1.00  0.00     0.092 A 
HETATM    7  C6  UNL     1      23.044  34.453   4.677  1.00  0.00     0.049 A 
HETATM    8  C7  UNL     1      22.894  33.470   5.632  1.00  0.00     0.072 A 
HETATM    9  C8  UNL     1      23.833  32.474   5.665  1.00  0.00     0.105 A 
HETATM   10  N5  UNL     1      23.464  31.659   6.669  1.00  0.00    -0.347 N 
ATOM     11  H5  UNL     1      23.954  30.814   6.960  1.00  0.00     0.167 HD
HETATM   12  C9  UNL     1      22.323  32.154   7.232  1.00  0.00     0.189 A 
HETATM   13  N6  UNL     1      21.967  33.280   6.590  1.00  0.00    -0.303 N 
ENDROOT
BRANCH  13  14
HETATM   14  C10 UNL     1      20.860  34.146   6.810  1.00  0.00     0.068 A 
HETATM   15  C11 UNL     1      21.037  35.384   7.392  1.00  0.00     0.032 A 
HETATM   16  C12 UNL     1      19.963  36.237   7.612  1.00  0.00     0.002 A 
HETATM   17  C13 UNL     1      18.681  35.877   7.259  1.00  0.00     0.002 A 
HETATM   18  C14 UNL     1      18.487  34.640   6.677  1.00  0.00     0.033 A 
HETATM   19  C15 UNL     1      19.554  33.790   6.456  1.00  0.00     0.075 A 
BRANCH  19  20
HETATM   20  N7  UNL     1      19.376  32.537   5.869  1.00  0.00    -0.298 N 
HETATM   21  N8  UNL     1      19.233  32.221   4.682  1.00  0.00    -0.297 N 
ATOM     22  H8  UNL     1      19.119  31.221   4.514  1.00  0.00     0.187 HD
ATOM     23  H7  UNL     1      19.360  31.756   6.524  1.00  0.00     0.187 HD
BRANCH  21  24
HETATM   24  C16 UNL     1      19.204  33.018   3.535  1.00  0.00     0.086 A 
HETATM   25  C17 UNL     1      20.348  33.239   2.816  1.00  0.00     0.034 A 
HETATM   26  C18 UNL     1      20.321  34.023   1.689  1.00  0.00     0.002 A 
HETATM   27  C19 UNL     1      19.144  34.602   1.265  1.00  0.00     0.003 A 
HETATM   28  C20 UNL     1      17.981  34.396   1.971  1.00  0.00     0.045 A 
HETATM   29  C21 UNL     1      18.033  33.597   3.108  1.00  0.00     0.144 A 
HETATM   30  F1  UNL     1      16.849  33.437   3.757  1.00  0.00    -0.204 F 
ENDBRANCH  21  24
ENDBRANCH  19  20
ENDBRANCH  13  14
BRANCH   1  31
HETATM   31  C3  UNL     1      26.901  31.336   3.986  1.00  0.00     0.220 C 
BRANCH  31  32
HETATM   32  C2  UNL     1      27.671  30.038   4.240  1.00  0.00     0.071 C 
BRANCH  32  33
HETATM   33  C1  UNL     1      26.887  28.934   3.561  1.00  0.00     0.138 C 
BRANCH  33  34
HETATM   34  N2  UNL     1      26.400  29.420   2.275  1.00  0.00    -0.148 NA
BRANCH  34  35
HETATM   35  N1  UNL     1      25.445  28.487   1.836  1.00  0.00    -0.348 N 
ATOM     36  H12 UNL     1      24.941  27.822   2.423  1.00  0.00     0.172 HD
ATOM     37  H11 UNL     1      25.363  28.614   0.827  1.00  0.00     0.172 HD
ENDBRANCH  34  35
ENDBRANCH  33  34
ENDBRANCH  32  33
ENDBRANCH  31  32
BRANCH  31  38
HETATM   38  O1  UNL     1      27.829  32.360   4.187  1.00  0.00    -0.377 OA
ATOM     39  H1  UNL     1      27.885  32.814   3.354  1.00  0.00     0.212 HD
ENDBRANCH  31  38
ENDBRANCH   1  31
TORSDOF 9
ENDMDL
MODEL 5
REMARK VINA RESULT: -7.767017128      1.319      1.649
REMARK  9 active torsions:
REMARK  status: ('A' for Active; 'I' for Inactive)
REMARK    1  A    between atoms: N1_1  and  N2_4 
REMARK    2  A    between atoms: N2_4  and  C1_5 
REMARK    3  A    between atoms: C1_5  and  C2_6 
REMARK    4  A    between atoms: C2_6  and  C3_7 
REMARK    5  A    between atoms: C3_7  and  O1_8 
REMARK    6  A    between atoms: C3_7  and  N3_10 
REMARK    7  A    between atoms: N6_22  and  C10_23 
REMARK    8  A    between atoms: C15_28  and  N7_29 
REMARK    9  A    between atoms: N8_31  and  C16_33 
ROOT
HETATM    1  N3  UNL     1      25.684  31.001   4.619  1.00  0.00    -0.348 N 
ATOM      2  H3  UNL     1      25.393  30.191   5.165  1.00  0.00     0.163 HD
HETATM    3  C4  UNL     1      24.955  32.052   4.670  1.00  0.00     0.132 A 
HETATM    4  N4  UNL     1      25.270  33.158   3.983  1.00  0.00    -0.351 N 
ATOM      5  H4  UNL     1      26.111  33.165   3.405  1.00  0.00     0.166 HD
HETATM    6  C5  UNL     1      24.502  34.257   4.041  1.00  0.00     0.092 A 
HETATM    7  C6  UNL     1      23.348  34.305   4.813  1.00  0.00     0.049 A 
HETATM    8  C7  UNL     1      22.983  33.191   5.537  1.00  0.00     0.072 A 
HETATM    9  C8  UNL     1      23.794  32.090   5.451  1.00  0.00     0.105 A 
HETATM   10  N5  UNL     1      23.227  31.158   6.237  1.00  0.00    -0.347 N 
ATOM     11  H5  UNL     1      23.583  30.216   6.394  1.00  0.00     0.167 HD
HETATM   12  C9  UNL     1      22.095  31.686   6.788  1.00  0.00     0.189 A 
HETATM   13  N6  UNL     1      21.942  32.949   6.355  1.00  0.00    -0.303 N 
ENDROOT
BRANCH  13  14
HETATM   14  C10 UNL     1      20.923  33.898   6.649  1.00  0.00     0.068 A 
HETATM   15  C11 UNL     1      21.228  35.096   7.261  1.00  0.00     0.032 A 
HETATM   16  C12 UNL     1      20.241  36.028   7.552  1.00  0.00     0.002 A 
HETATM   17  C13 UNL     1      18.920  35.791   7.242  1.00  0.00     0.002 A 
HETATM   18  C14 UNL     1      18.597  34.595   6.630  1.00  0.00     0.033 A 
HETATM   19  C15 UNL     1      19.578  33.666   6.338  1.00  0.00     0.075 A 
BRANCH  19  20
HETATM   20  N7  UNL     1      19.270  32.454   5.720  1.00  0.00    -0.298 N 
HETATM   21  N8  UNL     1      19.022  32.198   4.536  1.00  0.00    -0.297 N 
ATOM     22  H8  UNL     1      18.825  31.216   4.340  1.00  0.00     0.187 HD
ATOM     23  H7  UNL     1      19.245  31.649   6.346  1.00  0.00     0.187 HD
BRANCH  21  24
HETATM   24  C16 UNL     1      18.969  33.043   3.424  1.00  0.00     0.086 A 
HETATM   25  C17 UNL     1      17.788  33.628   3.054  1.00  0.00     0.034 A 
HETATM   26  C18 UNL     1      17.735  34.457   1.961  1.00  0.00     0.002 A 
HETATM   27  C19 UNL     1      18.868  34.712   1.218  1.00  0.00     0.003 A 
HETATM   28  C20 UNL     1      20.067  34.136   1.570  1.00  0.00     0.045 A 
HETATM   29  C21 UNL     1      20.096  33.301   2.681  1.00  0.00     0.144 A 
HETATM   30  F1  UNL     1      21.312  32.764   2.970  1.00  0.00    -0.204 F 
ENDBRANCH  21  24
ENDBRANCH  19  20
ENDBRANCH  13  14
BRANCH   1  31
HETATM   31  C3  UNL     1      26.878  30.890   3.847  1.00  0.00     0.220 C 
BRANCH  31  32
HETATM   32  C2  UNL     1      27.566  29.537   4.051  1.00  0.00     0.071 C 
BRANCH  32  33
HETATM   33  C1  UNL     1      26.706  28.508   3.348  1.00  0.00     0.138 C 
BRANCH  33  34
HETATM   34  N2  UNL     1      26.343  29.014   2.028  1.00  0.00    -0.148 NA
BRANCH  34  35
HETATM   35  N1  UNL     1      25.162  28.347   1.659  1.00  0.00    -0.348 N 
ATOM     36  H12 UNL     1      24.826  27.464   2.044  1.00  0.00     0.172 HD
ATOM     37  H11 UNL     1      24.721  28.920   0.940  1.00  0.00     0.172 HD
ENDBRANCH  34  35
ENDBRANCH  33  34
ENDBRANCH  32  33
ENDBRANCH  31  32
BRANCH  31  38
HETATM   38  O1  UNL     1      27.828  31.845   4.215  1.00  0.00    -0.377 OA
ATOM     39  H1  UNL     1      27.934  31.743   5.153  1.00  0.00     0.212 HD
ENDBRANCH  31  38
ENDBRANCH   1  31
TORSDOF 9
ENDMDL
