MODEL 1
REMARK VINA RESULT: -7.809080537      0.000      0.000
REMARK  9 active torsions:
REMARK  status: ('A' for Active; 'I' for Inactive)
REMARK    1  A    between atoms: C2_2  and  C3_3 
REMARK    2  A    between atoms: C3_3  and  C4_4 
REMARK    3  A    between atoms: C4_4  and  C5_5 
REMARK    4  A    between atoms: C5_5  and  N1_6 
REMARK    5  A    between atoms: C6_7  and  C7_8 
REMARK    6  A    between atoms: N2_11  and  C10_12 
REMARK    7  A    between atoms: C11_15  and  O1_16 
REMARK    8  A    between atoms: C16_25  and  N5_26 
REMARK    9  A    between atoms: C17_31  and  N7_32 
ROOT
HETATM    1  N1  UNL     1      20.717  34.037   4.599  1.00  0.00    -0.320 N 
HETATM    2  C6  UNL     1      20.890  35.184   5.319  1.00  0.00     0.090 A 
HETATM    3  N4  UNL     1      19.726  35.402   5.934  1.00  0.00    -0.339 N 
ATOM      4  H4  UNL     1      19.541  36.193   6.551  1.00  0.00     0.167 HD
HETATM    5  C15 UNL     1      18.832  34.452   5.639  1.00  0.00     0.123 A 
HETATM    6  C16 UNL     1      17.518  34.210   6.003  1.00  0.00     0.145 A 
HETATM    7  N6  UNL     1      16.872  33.132   5.526  1.00  0.00    -0.175 N 
ATOM      8  H6  UNL     1      15.905  32.953   5.794  1.00  0.00     0.186 HD
HETATM    9  C17 UNL     1      17.514  32.285   4.688  1.00  0.00     0.679 A 
HETATM   10  N8  UNL     1      18.775  32.519   4.338  1.00  0.00    -0.174 N 
ATOM     11  H8  UNL     1      19.235  31.865   3.704  1.00  0.00     0.186 HD
HETATM   12  C18 UNL     1      19.468  33.580   4.784  1.00  0.00     0.155 A 
ENDROOT
BRANCH   2  13
HETATM   13  C7  UNL     1      22.121  36.015   5.398  1.00  0.00     0.057 C 
HETATM   14  C8  UNL     1      23.192  35.335   6.229  1.00  0.00     0.032 C 
HETATM   15  C9  UNL     1      24.252  36.409   6.502  1.00  0.00     0.125 C 
HETATM   16  N2  UNL     1      24.783  36.790   5.221  1.00  0.00    -0.361 N 
HETATM   17  C13 UNL     1      24.180  36.389   4.004  1.00  0.00     0.125 C 
HETATM   18  C14 UNL     1      22.698  36.249   4.030  1.00  0.00     0.032 C 
BRANCH  16  19
HETATM   19  C10 UNL     1      25.960  37.602   5.194  1.00  0.00     0.148 A 
HETATM   20  N3  UNL     1      26.079  38.913   5.039  1.00  0.00    -0.317 N 
HETATM   21  C11 UNL     1      27.247  39.467   5.044  1.00  0.00     0.148 A 
ATOM     22  H3  UNL     1      25.246  39.486   4.914  1.00  0.00     0.170 HD
HETATM   23  C12 UNL     1      28.340  38.654   5.214  1.00  0.00     0.109 A 
HETATM   24  S1  UNL     1      27.606  37.119   5.359  1.00  0.00    -0.062 SA
BRANCH  21  25
HETATM   25  O1  UNL     1      27.424  40.871   4.880  1.00  0.00    -0.346 OA
ATOM     26  H1  UNL     1      28.283  41.275   4.865  1.00  0.00     0.219 HD
ENDBRANCH  21  25
ENDBRANCH  16  19
ENDBRANCH   2  13
BRANCH   1  27
HETATM   27  C5  UNL     1      21.727  33.408   3.778  1.00  0.00     0.132 C 
BRANCH  27  28
HETATM   28  C4  UNL     1      21.337  33.215   2.352  1.00  0.00     0.020 C 
BRANCH  28  29
HETATM   29  C3  UNL     1      20.565  34.350   1.743  1.00  0.00     0.001 C 
BRANCH  29  30
HETATM   30  C2  UNL     1      19.195  33.819   1.294  1.00  0.00    -0.004 C 
HETATM   31  C1  UNL     1      18.268  34.969   0.977  1.00  0.00     0.005 C 
ENDBRANCH  29  30
ENDBRANCH  28  29
ENDBRANCH  27  28
ENDBRANCH   1  27
BRANCH   6  32
HETATM   32  N5  UNL     1      16.925  35.032   6.806  1.00  0.00    -0.383 N 
ATOM     33  H52 UNL     1      16.118  35.574   6.493  1.00  0.00     0.157 HD
ATOM     34  H51 UNL     1      17.272  35.134   7.759  1.00  0.00     0.157 HD
ENDBRANCH   6  32
BRANCH   9  35
HETATM   35  N7  UNL     1      16.916  31.248   4.219  1.00  0.00    -0.234 N 
ATOM     36  H72 UNL     1      16.747  30.453   4.835  1.00  0.00     0.174 HD
ATOM     37  H71 UNL     1      16.615  31.216   3.245  1.00  0.00     0.174 HD
ENDBRANCH   9  35
TORSDOF 9
ENDMDL
MODEL 2
REMARK VINA RESULT: -7.800409448      1.174      2.034
REMARK  9 active torsions:
REMARK  status: ('A' for Active; 'I' for Inactive)
REMARK    1  A    between atoms: C2_2  and  C3_3 
REMARK    2  A    between atoms: C3_3  and  C4_4 
REMARK    3  A    between atoms: C4_4  and  C5_5 
REMARK    4  A    between atoms: C5_5  and  N1_6 
REMARK    5  A    between atoms: C6_7  and  C7_8 
REMARK    6  A    between atoms: N2_11  and  C10_12 
REMARK    7  A    between atoms: C11_15  and  O1_16 
REMARK    8  A    between atoms: C16_25  and  N5_26 
REMARK    9  A    between atoms: C17_31  and  N7_32 
ROOT
HETATM    1  N1  UNL     1      20.849  34.017   4.492  1.00  0.00    -0.320 N 
HETATM    2  C6  UNL     1      20.986  35.190   5.178  1.00  0.00     0.090 A 
HETATM    3  N4  UNL     1      19.808  35.403   5.767  1.00  0.00    -0.339 N 
ATOM      4  H4  UNL     1      19.597  36.209   6.355  1.00  0.00     0.167 HD
HETATM    5  C15 UNL     1      18.939  34.425   5.488  1.00  0.00     0.123 A 
HETATM    6  C16 UNL     1      17.624  34.167   5.838  1.00  0.00     0.145 A 
HETATM    7  N6  UNL     1      17.008  33.061   5.386  1.00  0.00    -0.175 N 
ATOM      8  H6  UNL     1      16.040  32.871   5.644  1.00  0.00     0.186 HD
HETATM    9  C17 UNL     1      17.681  32.202   4.586  1.00  0.00     0.679 A 
HETATM   10  N8  UNL     1      18.943  32.451   4.248  1.00  0.00    -0.174 N 
ATOM     11  H8  UNL     1      19.427  31.787   3.644  1.00  0.00     0.186 HD
HETATM   12  C18 UNL     1      19.607  33.540   4.671  1.00  0.00     0.155 A 
ENDROOT
BRANCH   2  13
HETATM   13  C7  UNL     1      22.198  36.049   5.249  1.00  0.00     0.057 C 
HETATM   14  C8  UNL     1      23.227  35.470   6.202  1.00  0.00     0.032 C 
HETATM   15  C9  UNL     1      24.254  36.586   6.434  1.00  0.00     0.125 C 
HETATM   16  N2  UNL     1      24.855  36.856   5.156  1.00  0.00    -0.361 N 
HETATM   17  C13 UNL     1      24.331  36.331   3.949  1.00  0.00     0.125 C 
HETATM   18  C14 UNL     1      22.854  36.166   3.902  1.00  0.00     0.032 C 
BRANCH  16  19
HETATM   19  C10 UNL     1      26.020  37.685   5.122  1.00  0.00     0.148 A 
HETATM   20  N3  UNL     1      26.117  39.001   5.004  1.00  0.00    -0.317 N 
HETATM   21  C11 UNL     1      27.277  39.571   4.994  1.00  0.00     0.148 A 
ATOM     22  H3  UNL     1      25.273  39.567   4.922  1.00  0.00     0.170 HD
HETATM   23  C12 UNL     1      28.385  38.769   5.107  1.00  0.00     0.109 A 
HETATM   24  S1  UNL     1      27.677  37.220   5.224  1.00  0.00    -0.062 SA
BRANCH  21  25
HETATM   25  O1  UNL     1      27.431  40.982   4.870  1.00  0.00    -0.346 OA
ATOM     26  H1  UNL     1      27.776  41.388   4.083  1.00  0.00     0.219 HD
ENDBRANCH  21  25
ENDBRANCH  16  19
ENDBRANCH   2  13
BRANCH   1  27
HETATM   27  C5  UNL     1      21.885  33.384   3.708  1.00  0.00     0.132 C 
BRANCH  27  28
HETATM   28  C4  UNL     1      22.762  32.453   4.476  1.00  0.00     0.020 C 
BRANCH  28  29
HETATM   29  C3  UNL     1      24.212  32.474   4.084  1.00  0.00     0.001 C 
BRANCH  29  30
HETATM   30  C2  UNL     1      24.308  32.859   2.600  1.00  0.00    -0.004 C 
HETATM   31  C1  UNL     1      25.054  31.792   1.832  1.00  0.00     0.005 C 
ENDBRANCH  29  30
ENDBRANCH  28  29
ENDBRANCH  27  28
ENDBRANCH   1  27
BRANCH   6  32
HETATM   32  N5  UNL     1      17.001  35.002   6.605  1.00  0.00    -0.383 N 
ATOM     33  H52 UNL     1      16.730  35.923   6.259  1.00  0.00     0.157 HD
ATOM     34  H51 UNL     1      16.780  34.728   7.562  1.00  0.00     0.157 HD
ENDBRANCH   6  32
BRANCH   9  35
HETATM   35  N7  UNL     1      17.113  31.138   4.141  1.00  0.00    -0.234 N 
ATOM     36  H72 UNL     1      16.153  30.935   4.420  1.00  0.00     0.174 HD
ATOM     37  H71 UNL     1      17.612  30.502   3.518  1.00  0.00     0.174 HD
ENDBRANCH   9  35
TORSDOF 9
ENDMDL
MODEL 3
REMARK VINA RESULT: -7.572088990      1.403      2.093
REMARK  9 active torsions:
REMARK  status: ('A' for Active; 'I' for Inactive)
REMARK    1  A    between atoms: C2_2  and  C3_3 
REMARK    2  A    between atoms: C3_3  and  C4_4 
REMARK    3  A    between atoms: C4_4  and  C5_5 
REMARK    4  A    between atoms: C5_5  and  N1_6 
REMARK    5  A    between atoms: C6_7  and  C7_8 
REMARK    6  A    between atoms: N2_11  and  C10_12 
REMARK    7  A    between atoms: C11_15  and  O1_16 
REMARK    8  A    between atoms: C16_25  and  N5_26 
REMARK    9  A    between atoms: C17_31  and  N7_32 
ROOT
HETATM    1  N1  UNL     1      20.766  33.625   4.558  1.00  0.00    -0.320 N 
HETATM    2  C6  UNL     1      21.086  34.628   5.428  1.00  0.00     0.090 A 
HETATM    3  N4  UNL     1      19.940  34.971   6.020  1.00  0.00    -0.339 N 
ATOM      4  H4  UNL     1      19.854  35.702   6.726  1.00  0.00     0.167 HD
HETATM    5  C15 UNL     1      18.918  34.236   5.568  1.00  0.00     0.123 A 
HETATM    6  C16 UNL     1      17.562  34.187   5.844  1.00  0.00     0.145 A 
HETATM    7  N6  UNL     1      16.773  33.306   5.206  1.00  0.00    -0.175 N 
ATOM      8  H6  UNL     1      15.775  33.269   5.409  1.00  0.00     0.186 HD
HETATM    9  C17 UNL     1      17.312  32.467   4.291  1.00  0.00     0.679 A 
HETATM   10  N8  UNL     1      18.615  32.516   4.025  1.00  0.00    -0.174 N 
ATOM     11  H8  UNL     1      18.995  31.873   3.330  1.00  0.00     0.186 HD
HETATM   12  C18 UNL     1      19.449  33.376   4.632  1.00  0.00     0.155 A 
ENDROOT
BRANCH   2  13
HETATM   13  C7  UNL     1      22.433  35.213   5.664  1.00  0.00     0.057 C 
HETATM   14  C8  UNL     1      22.715  36.349   4.700  1.00  0.00     0.032 C 
HETATM   15  C9  UNL     1      24.217  36.636   4.822  1.00  0.00     0.125 C 
HETATM   16  N2  UNL     1      24.440  37.065   6.177  1.00  0.00    -0.361 N 
HETATM   17  C13 UNL     1      23.446  36.943   7.180  1.00  0.00     0.125 C 
HETATM   18  C14 UNL     1      22.540  35.770   7.056  1.00  0.00     0.032 C 
BRANCH  16  19
HETATM   19  C10 UNL     1      25.712  37.630   6.504  1.00  0.00     0.148 A 
HETATM   20  N3  UNL     1      26.113  38.892   6.455  1.00  0.00    -0.317 N 
HETATM   21  C11 UNL     1      27.318  39.207   6.797  1.00  0.00     0.148 A 
ATOM     22  H3  UNL     1      25.467  39.618   6.145  1.00  0.00     0.170 HD
HETATM   23  C12 UNL     1      28.153  38.196   7.205  1.00  0.00     0.109 A 
HETATM   24  S1  UNL     1      27.132  36.835   7.071  1.00  0.00    -0.062 SA
BRANCH  21  25
HETATM   25  O1  UNL     1      27.794  40.550   6.760  1.00  0.00    -0.346 OA
ATOM     26  H1  UNL     1      28.717  40.763   6.833  1.00  0.00     0.219 HD
ENDBRANCH  21  25
ENDBRANCH  16  19
ENDBRANCH   2  13
BRANCH   1  27
HETATM   27  C5  UNL     1      21.703  32.932   3.704  1.00  0.00     0.132 C 
BRANCH  27  28
HETATM   28  C4  UNL     1      21.957  33.596   2.393  1.00  0.00     0.020 C 
BRANCH  28  29
HETATM   29  C3  UNL     1      23.404  33.788   2.044  1.00  0.00     0.001 C 
BRANCH  29  30
HETATM   30  C2  UNL     1      23.546  35.108   1.270  1.00  0.00    -0.004 C 
HETATM   31  C1  UNL     1      24.881  35.158   0.563  1.00  0.00     0.005 C 
ENDBRANCH  29  30
ENDBRANCH  28  29
ENDBRANCH  27  28
ENDBRANCH   1  27
BRANCH   6  32
HETATM   32  N5  UNL     1      17.068  34.998   6.723  1.00  0.00    -0.383 N 
ATOM     33  H52 UNL     1      16.109  34.887   7.051  1.00  0.00     0.157 HD
ATOM     34  H51 UNL     1      17.651  35.751   7.087  1.00  0.00     0.157 HD
ENDBRANCH   6  32
BRANCH   9  35
HETATM   35  N7  UNL     1      16.578  31.616   3.667  1.00  0.00    -0.234 N 
ATOM     36  H72 UNL     1      15.766  31.949   3.147  1.00  0.00     0.174 HD
ATOM     37  H71 UNL     1      16.799  30.621   3.691  1.00  0.00     0.174 HD
ENDBRANCH   9  35
TORSDOF 9
ENDMDL
MODEL 4
REMARK VINA RESULT: -7.561616979      1.233      2.321
REMARK  9 active torsions:
REMARK  status: ('A' for Active; 'I' for Inactive)
REMARK    1  A    between atoms: C2_2  and  C3_3 
REMARK    2  A    between atoms: C3_3  and  C4_4 
REMARK    3  A    between atoms: C4_4  and  C5_5 
REMARK    4  A    between atoms: C5_5  and  N1_6 
REMARK    5  A    between atoms: C6_7  and  C7_8 
REMARK    6  A    between atoms: N2_11  and  C10_12 
REMARK    7  A    between atoms: C11_15  and  O1_16 
REMARK    8  A    between atoms: C16_25  and  N5_26 
REMARK    9  A    between atoms: C17_31  and  N7_32 
ROOT
HETATM    1  N1  UNL     1      20.891  34.073   4.625  1.00  0.00    -0.320 N 
HETATM    2  C6  UNL     1      21.021  35.281   5.249  1.00  0.00     0.090 A 
HETATM    3  N4  UNL     1      19.836  35.525   5.812  1.00  0.00    -0.339 N 
ATOM      4  H4  UNL     1      19.618  36.361   6.354  1.00  0.00     0.167 HD
HETATM    5  C15 UNL     1      18.970  34.534   5.576  1.00  0.00     0.123 A 
HETATM    6  C16 UNL     1      17.651  34.294   5.924  1.00  0.00     0.145 A 
HETATM    7  N6  UNL     1      17.040  33.165   5.525  1.00  0.00    -0.175 N 
ATOM      8  H6  UNL     1      16.069  32.988   5.781  1.00  0.00     0.186 HD
HETATM    9  C17 UNL     1      17.722  32.265   4.780  1.00  0.00     0.679 A 
HETATM   10  N8  UNL     1      18.988  32.495   4.444  1.00  0.00    -0.174 N 
ATOM     11  H8  UNL     1      19.478  31.801   3.881  1.00  0.00     0.186 HD
HETATM   12  C18 UNL     1      19.647  33.606   4.816  1.00  0.00     0.155 A 
ENDROOT
BRANCH   2  13
HETATM   13  C7  UNL     1      22.232  36.143   5.288  1.00  0.00     0.057 C 
HETATM   14  C8  UNL     1      23.220  35.656   6.330  1.00  0.00     0.032 C 
HETATM   15  C9  UNL     1      24.241  36.788   6.498  1.00  0.00     0.125 C 
HETATM   16  N2  UNL     1      24.893  36.939   5.225  1.00  0.00    -0.361 N 
HETATM   17  C13 UNL     1      24.415  36.304   4.052  1.00  0.00     0.125 C 
HETATM   18  C14 UNL     1      22.940  36.135   3.962  1.00  0.00     0.032 C 
BRANCH  16  19
HETATM   19  C10 UNL     1      26.062  37.761   5.160  1.00  0.00     0.148 A 
HETATM   20  N3  UNL     1      26.163  39.073   5.001  1.00  0.00    -0.317 N 
HETATM   21  C11 UNL     1      27.326  39.637   4.969  1.00  0.00     0.148 A 
ATOM     22  H3  UNL     1      25.321  39.639   4.904  1.00  0.00     0.170 HD
HETATM   23  C12 UNL     1      28.431  38.834   5.102  1.00  0.00     0.109 A 
HETATM   24  S1  UNL     1      27.716  37.293   5.271  1.00  0.00    -0.062 SA
BRANCH  21  25
HETATM   25  O1  UNL     1      27.485  41.043   4.799  1.00  0.00    -0.346 OA
ATOM     26  H1  UNL     1      27.280  41.482   3.982  1.00  0.00     0.219 HD
ENDBRANCH  21  25
ENDBRANCH  16  19
ENDBRANCH   2  13
BRANCH   1  27
HETATM   27  C5  UNL     1      21.936  33.399   3.889  1.00  0.00     0.132 C 
BRANCH  27  28
HETATM   28  C4  UNL     1      22.893  32.629   4.734  1.00  0.00     0.020 C 
BRANCH  28  29
HETATM   29  C3  UNL     1      22.266  31.819   5.832  1.00  0.00     0.001 C 
BRANCH  29  30
HETATM   30  C2  UNL     1      22.767  32.358   7.180  1.00  0.00    -0.004 C 
HETATM   31  C1  UNL     1      21.600  32.808   8.029  1.00  0.00     0.005 C 
ENDBRANCH  29  30
ENDBRANCH  28  29
ENDBRANCH  27  28
ENDBRANCH   1  27
BRANCH   6  32
HETATM   32  N5  UNL     1      17.019  35.169   6.637  1.00  0.00    -0.383 N 
ATOM     33  H52 UNL     1      17.507  35.708   7.353  1.00  0.00     0.157 HD
ATOM     34  H51 UNL     1      16.022  35.315   6.476  1.00  0.00     0.157 HD
ENDBRANCH   6  32
BRANCH   9  35
HETATM   35  N7  UNL     1      17.158  31.178   4.386  1.00  0.00    -0.234 N 
ATOM     36  H72 UNL     1      17.229  30.344   4.969  1.00  0.00     0.174 HD
ATOM     37  H71 UNL     1      16.648  31.146   3.503  1.00  0.00     0.174 HD
ENDBRANCH   9  35
TORSDOF 9
ENDMDL
MODEL 5
REMARK VINA RESULT: -7.556839846      3.863      4.632
REMARK  9 active torsions:
REMARK  status: ('A' for Active; 'I' for Inactive)
REMARK    1  A    between atoms: C2_2  and  C3_3 
REMARK    2  A    between atoms: C3_3  and  C4_4 
REMARK    3  A    between atoms: C4_4  and  C5_5 
REMARK    4  A    between atoms: C5_5  and  N1_6 
REMARK    5  A    between atoms: C6_7  and  C7_8 
REMARK    6  A    between atoms: N2_11  and  C10_12 
REMARK    7  A    between atoms: C11_15  and  O1_16 
REMARK    8  A    between atoms: C16_25  and  N5_26 
REMARK    9  A    between atoms: C17_31  and  N7_32 
ROOT
HETATM    1  N1  UNL     1      23.032  33.239   3.756  1.00  0.00    -0.320 N 
HETATM    2  C6  UNL     1      24.086  33.292   4.623  1.00  0.00     0.090 A 
HETATM    3  N4  UNL     1      23.561  33.132   5.839  1.00  0.00    -0.339 N 
ATOM      4  H4  UNL     1      24.104  33.127   6.703  1.00  0.00     0.167 HD
HETATM    5  C15 UNL     1      22.234  32.982   5.782  1.00  0.00     0.123 A 
HETATM    6  C16 UNL     1      21.238  32.786   6.725  1.00  0.00     0.145 A 
HETATM    7  N6  UNL     1      19.957  32.663   6.339  1.00  0.00    -0.175 N 
ATOM      8  H6  UNL     1      19.223  32.518   7.033  1.00  0.00     0.186 HD
HETATM    9  C17 UNL     1      19.645  32.732   5.025  1.00  0.00     0.679 A 
HETATM   10  N8  UNL     1      20.601  32.922   4.119  1.00  0.00    -0.174 N 
ATOM     11  H8  UNL     1      20.339  32.971   3.135  1.00  0.00     0.186 HD
HETATM   12  C18 UNL     1      21.897  33.051   4.448  1.00  0.00     0.155 A 
ENDROOT
BRANCH   2  13
HETATM   13  C7  UNL     1      25.520  33.487   4.278  1.00  0.00     0.057 C 
HETATM   14  C8  UNL     1      25.997  34.871   4.672  1.00  0.00     0.032 C 
HETATM   15  C9  UNL     1      27.353  35.057   3.981  1.00  0.00     0.125 C 
HETATM   16  N2  UNL     1      28.228  34.054   4.526  1.00  0.00    -0.361 N 
HETATM   17  C13 UNL     1      27.748  32.991   5.330  1.00  0.00     0.125 C 
HETATM   18  C14 UNL     1      26.386  32.493   5.000  1.00  0.00     0.032 C 
BRANCH  16  19
HETATM   19  C10 UNL     1      29.626  34.150   4.238  1.00  0.00     0.148 A 
HETATM   20  N3  UNL     1      30.234  34.578   3.142  1.00  0.00    -0.317 N 
HETATM   21  C11 UNL     1      31.525  34.589   3.075  1.00  0.00     0.148 A 
ATOM     22  H3  UNL     1      29.682  34.901   2.348  1.00  0.00     0.170 HD
HETATM   23  C12 UNL     1      32.227  34.144   4.168  1.00  0.00     0.109 A 
HETATM   24  S1  UNL     1      30.964  33.735   5.242  1.00  0.00    -0.062 SA
BRANCH  21  25
HETATM   25  O1  UNL     1      32.223  35.039   1.918  1.00  0.00    -0.346 OA
ATOM     26  H1  UNL     1      32.663  34.441   1.325  1.00  0.00     0.219 HD
ENDBRANCH  21  25
ENDBRANCH  16  19
ENDBRANCH   2  13
BRANCH   1  27
HETATM   27  C5  UNL     1      23.128  33.354   2.319  1.00  0.00     0.132 C 
BRANCH  27  28
HETATM   28  C4  UNL     1      22.860  34.721   1.786  1.00  0.00     0.020 C 
BRANCH  28  29
HETATM   29  C3  UNL     1      24.074  35.586   1.609  1.00  0.00     0.001 C 
BRANCH  29  30
HETATM   30  C2  UNL     1      24.565  35.443   0.160  1.00  0.00    -0.004 C 
HETATM   31  C1  UNL     1      25.788  34.557   0.108  1.00  0.00     0.005 C 
ENDBRANCH  29  30
ENDBRANCH  28  29
ENDBRANCH  27  28
ENDBRANCH   1  27
BRANCH   6  32
HETATM   32  N5  UNL     1      21.559  32.722   7.976  1.00  0.00    -0.383 N 
ATOM     33  H52 UNL     1      22.528  32.571   8.257  1.00  0.00     0.157 HD
ATOM     34  H51 UNL     1      20.831  32.826   8.682  1.00  0.00     0.157 HD
ENDBRANCH   6  32
BRANCH   9  35
HETATM   35  N7  UNL     1      18.426  32.617   4.632  1.00  0.00    -0.234 N 
ATOM     36  H72 UNL     1      17.884  31.806   4.929  1.00  0.00     0.174 HD
ATOM     37  H71 UNL     1      18.003  33.325   4.031  1.00  0.00     0.174 HD
ENDBRANCH   9  35
TORSDOF 9
ENDMDL
