MODEL 1
REMARK VINA RESULT: -8.707161441      0.000      0.000
REMARK  8 active torsions:
REMARK  status: ('A' for Active; 'I' for Inactive)
REMARK    1  A    between atoms: C2_2  and  O1_3 
REMARK    2  A    between atoms: O1_3  and  C3_4 
REMARK    3  A    between atoms: C6_7  and  O2_8 
REMARK    4  A    between atoms: O2_8  and  C7_9 
REMARK    5  A    between atoms: C10_12  and  C11_13 
REMARK    6  A    between atoms: C12_16  and  C13_17 
REMARK    7  A    between atoms: C16_21  and  N2_22 
REMARK    8  A    between atoms: N2_22  and  N3_23 
ROOT
HETATM    1  C11 UNL     1      25.342  32.508   3.031  1.00  0.00     0.198 A 
HETATM    2  N1  UNL     1      25.379  31.153   2.875  1.00  0.00    -0.320 N 
ATOM      3  H1  UNL     1      24.694  30.564   2.402  1.00  0.00     0.169 HD
HETATM    4  C12 UNL     1      26.518  30.761   3.482  1.00  0.00     0.127 A 
HETATM    5  N6  UNL     1      27.138  31.841   3.983  1.00  0.00    -0.245 N 
ATOM      6  H6  UNL     1      28.021  31.852   4.494  1.00  0.00     0.196 HD
HETATM    7  O3  UNL     1      26.411  32.859   3.696  1.00  0.00    -0.216 OA
ENDROOT
BRANCH   1   8
HETATM    8  C10 UNL     1      24.326  33.425   2.564  1.00  0.00     0.088 A 
HETATM    9  C9  UNL     1      24.500  34.381   1.597  1.00  0.00     0.038 A 
HETATM   10  C8  UNL     1      23.301  35.037   1.448  1.00  0.00     0.059 A 
HETATM   11  C7  UNL     1      22.394  34.480   2.327  1.00  0.00     0.148 A 
HETATM   12  N7  UNL     1      23.040  33.515   2.982  1.00  0.00    -0.333 N 
ATOM     13  H7  UNL     1      22.622  32.924   3.701  1.00  0.00     0.168 HD
BRANCH  11  14
HETATM   14  O2  UNL     1      21.052  34.834   2.518  1.00  0.00    -0.294 OA
BRANCH  14  15
HETATM   15  C6  UNL     1      20.081  33.880   2.779  1.00  0.00     0.078 A 
HETATM   16  C5  UNL     1      19.512  33.769   4.024  1.00  0.00     0.040 A 
HETATM   17  C4  UNL     1      18.533  32.813   4.297  1.00  0.00     0.039 A 
HETATM   18  C3  UNL     1      18.093  31.938   3.332  1.00  0.00     0.068 A 
HETATM   19  C19 UNL     1      18.677  32.055   2.060  1.00  0.00     0.039 A 
HETATM   20  C18 UNL     1      19.632  32.999   1.820  1.00  0.00     0.040 A 
BRANCH  18  21
HETATM   21  O1  UNL     1      17.127  30.967   3.529  1.00  0.00    -0.352 OA
BRANCH  21  22
HETATM   22  C2  UNL     1      16.821  29.972   2.597  1.00  0.00     0.171 C 
HETATM   23  C1  UNL     1      15.364  29.607   2.527  1.00  0.00     0.034 C 
ENDBRANCH  21  22
ENDBRANCH  18  21
ENDBRANCH  14  15
ENDBRANCH  11  14
ENDBRANCH   1   8
BRANCH   4  24
HETATM   24  C13 UNL     1      27.053  29.375   3.607  1.00  0.00     0.155 C 
HETATM   25  C14 UNL     1      27.045  28.987   5.041  1.00  0.00     0.072 C 
HETATM   26  C15 UNL     1      27.272  27.521   5.284  1.00  0.00     0.200 C 
HETATM   27  F1  UNL     1      26.951  27.255   6.601  1.00  0.00    -0.247 F 
HETATM   28  C16 UNL     1      26.496  26.629   4.380  1.00  0.00     0.199 C 
HETATM   29  C17 UNL     1      25.727  27.323   3.339  1.00  0.00     0.095 C 
HETATM   30  N4  UNL     1      24.629  26.803   2.913  1.00  0.00    -0.388 N 
HETATM   31  N5  UNL     1      26.163  28.539   2.802  1.00  0.00    -0.367 N 
ATOM     32  H42 UNL     1      24.311  25.917   3.304  1.00  0.00     0.157 HD
ATOM     33  H41 UNL     1      24.094  27.285   2.190  1.00  0.00     0.157 HD
ATOM     34  H5  UNL     1      25.867  28.835   1.872  1.00  0.00     0.161 HD
BRANCH  28  35
HETATM   35  N2  UNL     1      27.386  25.660   3.721  1.00  0.00    -0.133 NA
BRANCH  35  36
HETATM   36  N3  UNL     1      28.639  25.681   4.367  1.00  0.00    -0.348 N 
ATOM     37  H32 UNL     1      28.776  25.596   5.374  1.00  0.00     0.172 HD
ATOM     38  H31 UNL     1      29.369  25.795   3.664  1.00  0.00     0.172 HD
ENDBRANCH  35  36
ENDBRANCH  28  35
ENDBRANCH   4  24
TORSDOF 8
ENDMDL
MODEL 2
REMARK VINA RESULT: -8.653941391      1.286      1.759
REMARK  8 active torsions:
REMARK  status: ('A' for Active; 'I' for Inactive)
REMARK    1  A    between atoms: C2_2  and  O1_3 
REMARK    2  A    between atoms: O1_3  and  C3_4 
REMARK    3  A    between atoms: C6_7  and  O2_8 
REMARK    4  A    between atoms: O2_8  and  C7_9 
REMARK    5  A    between atoms: C10_12  and  C11_13 
REMARK    6  A    between atoms: C12_16  and  C13_17 
REMARK    7  A    between atoms: C16_21  and  N2_22 
REMARK    8  A    between atoms: N2_22  and  N3_23 
ROOT
HETATM    1  C11 UNL     1      25.187  31.732   2.165  1.00  0.00     0.198 A 
HETATM    2  N1  UNL     1      26.087  31.311   3.100  1.00  0.00    -0.320 N 
ATOM      3  H1  UNL     1      26.477  31.851   3.872  1.00  0.00     0.169 HD
HETATM    4  C12 UNL     1      26.348  30.026   2.782  1.00  0.00     0.127 A 
HETATM    5  N6  UNL     1      25.631  29.692   1.697  1.00  0.00    -0.245 N 
ATOM      6  H6  UNL     1      25.625  28.785   1.230  1.00  0.00     0.196 HD
HETATM    7  O3  UNL     1      24.954  30.729   1.359  1.00  0.00    -0.216 OA
ENDROOT
BRANCH   1   8
HETATM    8  C10 UNL     1      24.576  33.038   2.047  1.00  0.00     0.088 A 
HETATM    9  C9  UNL     1      25.136  34.126   1.430  1.00  0.00     0.038 A 
HETATM   10  C8  UNL     1      24.241  35.163   1.536  1.00  0.00     0.059 A 
HETATM   11  C7  UNL     1      23.133  34.708   2.221  1.00  0.00     0.148 A 
HETATM   12  N7  UNL     1      23.365  33.428   2.514  1.00  0.00    -0.333 N 
ATOM     13  H7  UNL     1      22.718  32.824   3.020  1.00  0.00     0.168 HD
BRANCH  11  14
HETATM   14  O2  UNL     1      21.976  35.421   2.558  1.00  0.00    -0.294 OA
BRANCH  14  15
HETATM   15  C6  UNL     1      20.768  34.779   2.783  1.00  0.00     0.078 A 
HETATM   16  C5  UNL     1      19.962  34.397   1.738  1.00  0.00     0.040 A 
HETATM   17  C4  UNL     1      18.746  33.750   1.954  1.00  0.00     0.039 A 
HETATM   18  C3  UNL     1      18.297  33.465   3.222  1.00  0.00     0.068 A 
HETATM   19  C19 UNL     1      19.125  33.857   4.288  1.00  0.00     0.039 A 
HETATM   20  C18 UNL     1      20.310  34.488   4.048  1.00  0.00     0.040 A 
BRANCH  18  21
HETATM   21  O1  UNL     1      17.104  32.826   3.512  1.00  0.00    -0.352 OA
BRANCH  21  22
HETATM   22  C2  UNL     1      17.015  31.494   3.925  1.00  0.00     0.171 C 
HETATM   23  C1  UNL     1      17.189  30.484   2.824  1.00  0.00     0.034 C 
ENDBRANCH  21  22
ENDBRANCH  18  21
ENDBRANCH  14  15
ENDBRANCH  11  14
ENDBRANCH   1   8
BRANCH   4  24
HETATM   24  C13 UNL     1      27.266  29.084   3.482  1.00  0.00     0.155 C 
HETATM   25  C14 UNL     1      27.028  29.183   4.945  1.00  0.00     0.072 C 
HETATM   26  C15 UNL     1      27.664  28.084   5.749  1.00  0.00     0.200 C 
HETATM   27  F1  UNL     1      27.131  28.127   7.023  1.00  0.00    -0.247 F 
HETATM   28  C16 UNL     1      27.486  26.726   5.167  1.00  0.00     0.199 C 
HETATM   29  C17 UNL     1      26.816  26.697   3.860  1.00  0.00     0.095 C 
HETATM   30  N4  UNL     1      26.101  25.676   3.539  1.00  0.00    -0.388 N 
HETATM   31  N5  UNL     1      26.941  27.759   2.957  1.00  0.00    -0.367 N 
ATOM     32  H42 UNL     1      26.010  24.903   4.197  1.00  0.00     0.157 HD
ATOM     33  H41 UNL     1      25.636  25.657   2.632  1.00  0.00     0.157 HD
ATOM     34  H5  UNL     1      26.807  27.611   1.957  1.00  0.00     0.161 HD
BRANCH  28  35
HETATM   35  N2  UNL     1      28.784  26.047   5.031  1.00  0.00    -0.133 NA
BRANCH  35  36
HETATM   36  N3  UNL     1      29.809  27.013   5.082  1.00  0.00    -0.348 N 
ATOM     37  H32 UNL     1      30.296  27.390   4.269  1.00  0.00     0.172 HD
ATOM     38  H31 UNL     1      29.976  27.263   6.057  1.00  0.00     0.172 HD
ENDBRANCH  35  36
ENDBRANCH  28  35
ENDBRANCH   4  24
TORSDOF 8
ENDMDL
MODEL 3
REMARK VINA RESULT: -8.634530513      1.029      1.274
REMARK  8 active torsions:
REMARK  status: ('A' for Active; 'I' for Inactive)
REMARK    1  A    between atoms: C2_2  and  O1_3 
REMARK    2  A    between atoms: O1_3  and  C3_4 
REMARK    3  A    between atoms: C6_7  and  O2_8 
REMARK    4  A    between atoms: O2_8  and  C7_9 
REMARK    5  A    between atoms: C10_12  and  C11_13 
REMARK    6  A    between atoms: C12_16  and  C13_17 
REMARK    7  A    between atoms: C16_21  and  N2_22 
REMARK    8  A    between atoms: N2_22  and  N3_23 
ROOT
HETATM    1  C11 UNL     1      24.971  31.865   2.326  1.00  0.00     0.198 A 
HETATM    2  N1  UNL     1      25.794  31.438   3.328  1.00  0.00    -0.320 N 
ATOM      3  H1  UNL     1      25.993  31.909   4.210  1.00  0.00     0.169 HD
HETATM    4  C12 UNL     1      26.286  30.258   2.899  1.00  0.00     0.127 A 
HETATM    5  N6  UNL     1      25.777  29.989   1.686  1.00  0.00    -0.245 N 
ATOM      6  H6  UNL     1      25.969  29.165   1.116  1.00  0.00     0.196 HD
HETATM    7  O3  UNL     1      25.002  30.965   1.379  1.00  0.00    -0.216 OA
ENDROOT
BRANCH   1   8
HETATM    8  C10 UNL     1      24.191  33.082   2.279  1.00  0.00     0.088 A 
HETATM    9  C9  UNL     1      24.640  34.298   1.834  1.00  0.00     0.038 A 
HETATM   10  C8  UNL     1      23.598  35.187   1.951  1.00  0.00     0.059 A 
HETATM   11  C7  UNL     1      22.512  34.512   2.470  1.00  0.00     0.148 A 
HETATM   12  N7  UNL     1      22.901  33.250   2.656  1.00  0.00    -0.333 N 
ATOM     13  H7  UNL     1      22.306  32.511   3.031  1.00  0.00     0.168 HD
BRANCH  11  14
HETATM   14  O2  UNL     1      21.239  35.021   2.758  1.00  0.00    -0.294 OA
BRANCH  14  15
HETATM   15  C6  UNL     1      20.146  34.185   2.928  1.00  0.00     0.078 A 
HETATM   16  C5  UNL     1      19.483  34.120   4.129  1.00  0.00     0.040 A 
HETATM   17  C4  UNL     1      18.382  33.284   4.311  1.00  0.00     0.039 A 
HETATM   18  C3  UNL     1      17.909  32.486   3.295  1.00  0.00     0.068 A 
HETATM   19  C19 UNL     1      18.590  32.556   2.068  1.00  0.00     0.039 A 
HETATM   20  C18 UNL     1      19.664  33.383   1.918  1.00  0.00     0.040 A 
BRANCH  18  21
HETATM   21  O1  UNL     1      16.823  31.634   3.402  1.00  0.00    -0.352 OA
BRANCH  21  22
HETATM   22  C2  UNL     1      16.866  30.275   3.082  1.00  0.00     0.171 C 
HETATM   23  C1  UNL     1      15.604  29.737   2.466  1.00  0.00     0.034 C 
ENDBRANCH  21  22
ENDBRANCH  18  21
ENDBRANCH  14  15
ENDBRANCH  11  14
ENDBRANCH   1   8
BRANCH   4  24
HETATM   24  C13 UNL     1      27.236  29.356   3.608  1.00  0.00     0.155 C 
HETATM   25  C14 UNL     1      26.973  29.438   5.068  1.00  0.00     0.072 C 
HETATM   26  C15 UNL     1      27.647  28.366   5.878  1.00  0.00     0.200 C 
HETATM   27  F1  UNL     1      27.094  28.379   7.144  1.00  0.00    -0.247 F 
HETATM   28  C16 UNL     1      27.539  27.003   5.289  1.00  0.00     0.199 C 
HETATM   29  C17 UNL     1      26.890  26.950   3.973  1.00  0.00     0.095 C 
HETATM   30  N4  UNL     1      26.226  25.898   3.638  1.00  0.00    -0.388 N 
HETATM   31  N5  UNL     1      26.979  28.019   3.075  1.00  0.00    -0.367 N 
ATOM     32  H42 UNL     1      26.162  25.119   4.292  1.00  0.00     0.157 HD
ATOM     33  H41 UNL     1      25.775  25.861   2.724  1.00  0.00     0.157 HD
ATOM     34  H5  UNL     1      26.866  27.869   2.072  1.00  0.00     0.161 HD
BRANCH  28  35
HETATM   35  N2  UNL     1      28.868  26.384   5.169  1.00  0.00    -0.133 NA
BRANCH  35  36
HETATM   36  N3  UNL     1      29.846  27.400   5.189  1.00  0.00    -0.348 N 
ATOM     37  H32 UNL     1      29.743  28.297   5.664  1.00  0.00     0.172 HD
ATOM     38  H31 UNL     1      30.657  27.086   4.657  1.00  0.00     0.172 HD
ENDBRANCH  35  36
ENDBRANCH  28  35
ENDBRANCH   4  24
TORSDOF 8
ENDMDL
MODEL 4
REMARK VINA RESULT: -8.541065090      3.358      3.819
REMARK  8 active torsions:
REMARK  status: ('A' for Active; 'I' for Inactive)
REMARK    1  A    between atoms: C2_2  and  O1_3 
REMARK    2  A    between atoms: O1_3  and  C3_4 
REMARK    3  A    between atoms: C6_7  and  O2_8 
REMARK    4  A    between atoms: O2_8  and  C7_9 
REMARK    5  A    between atoms: C10_12  and  C11_13 
REMARK    6  A    between atoms: C12_16  and  C13_17 
REMARK    7  A    between atoms: C16_21  and  N2_22 
REMARK    8  A    between atoms: N2_22  and  N3_23 
ROOT
HETATM    1  C11 UNL     1      25.393  31.918   2.028  1.00  0.00     0.198 A 
HETATM    2  N1  UNL     1      26.323  31.444   2.906  1.00  0.00    -0.320 N 
ATOM      3  H1  UNL     1      26.872  31.981   3.578  1.00  0.00     0.169 HD
HETATM    4  C12 UNL     1      26.360  30.113   2.694  1.00  0.00     0.127 A 
HETATM    5  N6  UNL     1      25.484  29.802   1.725  1.00  0.00    -0.245 N 
ATOM      6  H6  UNL     1      25.294  28.871   1.354  1.00  0.00     0.196 HD
HETATM    7  O3  UNL     1      24.929  30.899   1.354  1.00  0.00    -0.216 OA
ENDROOT
BRANCH   1   8
HETATM    8  C10 UNL     1      24.967  33.288   1.842  1.00  0.00     0.088 A 
HETATM    9  C9  UNL     1      25.280  34.081   0.769  1.00  0.00     0.038 A 
HETATM   10  C8  UNL     1      24.685  35.302   0.974  1.00  0.00     0.059 A 
HETATM   11  C7  UNL     1      24.008  35.256   2.175  1.00  0.00     0.148 A 
HETATM   12  N7  UNL     1      24.196  34.032   2.672  1.00  0.00    -0.333 N 
ATOM     13  H7  UNL     1      23.812  33.702   3.557  1.00  0.00     0.168 HD
BRANCH  11  14
HETATM   14  O2  UNL     1      23.260  36.272   2.783  1.00  0.00    -0.294 OA
BRANCH  14  15
HETATM   15  C6  UNL     1      22.754  36.133   4.065  1.00  0.00     0.078 A 
HETATM   16  C5  UNL     1      21.434  35.817   4.277  1.00  0.00     0.040 A 
HETATM   17  C4  UNL     1      20.915  35.673   5.564  1.00  0.00     0.039 A 
HETATM   18  C3  UNL     1      21.701  35.841   6.679  1.00  0.00     0.068 A 
HETATM   19  C19 UNL     1      23.050  36.164   6.458  1.00  0.00     0.039 A 
HETATM   20  C18 UNL     1      23.532  36.298   5.189  1.00  0.00     0.040 A 
BRANCH  18  21
HETATM   21  O1  UNL     1      21.256  35.714   7.984  1.00  0.00    -0.352 OA
BRANCH  21  22
HETATM   22  C2  UNL     1      20.537  34.613   8.457  1.00  0.00     0.171 C 
HETATM   23  C1  UNL     1      21.271  33.304   8.377  1.00  0.00     0.034 C 
ENDBRANCH  21  22
ENDBRANCH  18  21
ENDBRANCH  14  15
ENDBRANCH  11  14
ENDBRANCH   1   8
BRANCH   4  24
HETATM   24  C13 UNL     1      27.207  29.103   3.390  1.00  0.00     0.155 C 
HETATM   25  C14 UNL     1      26.940  29.179   4.849  1.00  0.00     0.072 C 
HETATM   26  C15 UNL     1      27.494  28.026   5.638  1.00  0.00     0.200 C 
HETATM   27  F1  UNL     1      26.934  28.068   6.900  1.00  0.00    -0.247 F 
HETATM   28  C16 UNL     1      27.254  26.695   5.018  1.00  0.00     0.199 C 
HETATM   29  C17 UNL     1      26.615  26.737   3.696  1.00  0.00     0.095 C 
HETATM   30  N4  UNL     1      25.851  25.767   3.332  1.00  0.00    -0.388 N 
HETATM   31  N5  UNL     1      26.820  27.812   2.823  1.00  0.00    -0.367 N 
ATOM     32  H42 UNL     1      25.701  24.983   3.968  1.00  0.00     0.157 HD
ATOM     33  H41 UNL     1      25.407  25.796   2.415  1.00  0.00     0.157 HD
ATOM     34  H5  UNL     1      26.702  27.696   1.817  1.00  0.00     0.161 HD
BRANCH  28  35
HETATM   35  N2  UNL     1      28.514  25.947   4.892  1.00  0.00    -0.133 NA
BRANCH  35  36
HETATM   36  N3  UNL     1      29.591  26.850   5.007  1.00  0.00    -0.348 N 
ATOM     37  H32 UNL     1      30.531  26.599   5.314  1.00  0.00     0.172 HD
ATOM     38  H31 UNL     1      29.272  27.779   4.734  1.00  0.00     0.172 HD
ENDBRANCH  35  36
ENDBRANCH  28  35
ENDBRANCH   4  24
TORSDOF 8
ENDMDL
MODEL 5
REMARK VINA RESULT: -8.487492309      2.688      3.229
REMARK  8 active torsions:
REMARK  status: ('A' for Active; 'I' for Inactive)
REMARK    1  A    between atoms: C2_2  and  O1_3 
REMARK    2  A    between atoms: O1_3  and  C3_4 
REMARK    3  A    between atoms: C6_7  and  O2_8 
REMARK    4  A    between atoms: O2_8  and  C7_9 
REMARK    5  A    between atoms: C10_12  and  C11_13 
REMARK    6  A    between atoms: C12_16  and  C13_17 
REMARK    7  A    between atoms: C16_21  and  N2_22 
REMARK    8  A    between atoms: N2_22  and  N3_23 
ROOT
HETATM    1  C11 UNL     1      25.302  31.977   2.045  1.00  0.00     0.198 A 
HETATM    2  N1  UNL     1      26.225  31.525   2.942  1.00  0.00    -0.320 N 
ATOM      3  H1  UNL     1      26.723  32.068   3.646  1.00  0.00     0.169 HD
HETATM    4  C12 UNL     1      26.337  30.203   2.695  1.00  0.00     0.127 A 
HETATM    5  N6  UNL     1      25.511  29.877   1.688  1.00  0.00    -0.245 N 
ATOM      6  H6  UNL     1      25.382  28.949   1.285  1.00  0.00     0.196 HD
HETATM    7  O3  UNL     1      24.914  30.955   1.328  1.00  0.00    -0.216 OA
ENDROOT
BRANCH   1   8
HETATM    8  C10 UNL     1      24.813  33.328   1.881  1.00  0.00     0.088 A 
HETATM    9  C9  UNL     1      25.176  34.191   0.880  1.00  0.00     0.038 A 
HETATM   10  C8  UNL     1      24.492  35.365   1.082  1.00  0.00     0.059 A 
HETATM   11  C7  UNL     1      23.710  35.219   2.210  1.00  0.00     0.148 A 
HETATM   12  N7  UNL     1      23.925  33.985   2.666  1.00  0.00    -0.333 N 
ATOM     13  H7  UNL     1      23.480  33.588   3.494  1.00  0.00     0.168 HD
BRANCH  11  14
HETATM   14  O2  UNL     1      22.848  36.160   2.788  1.00  0.00    -0.294 OA
BRANCH  14  15
HETATM   15  C6  UNL     1      22.040  35.837   3.867  1.00  0.00     0.078 A 
HETATM   16  C5  UNL     1      20.871  35.137   3.692  1.00  0.00     0.040 A 
HETATM   17  C4  UNL     1      20.050  34.806   4.770  1.00  0.00     0.039 A 
HETATM   18  C3  UNL     1      20.375  35.164   6.058  1.00  0.00     0.068 A 
HETATM   19  C19 UNL     1      21.571  35.879   6.232  1.00  0.00     0.039 A 
HETATM   20  C18 UNL     1      22.355  36.189   5.160  1.00  0.00     0.040 A 
BRANCH  18  21
HETATM   21  O1  UNL     1      19.611  34.869   7.175  1.00  0.00    -0.352 OA
BRANCH  21  22
HETATM   22  C2  UNL     1      18.509  35.623   7.585  1.00  0.00     0.171 C 
HETATM   23  C1  UNL     1      17.216  35.259   6.909  1.00  0.00     0.034 C 
ENDBRANCH  21  22
ENDBRANCH  18  21
ENDBRANCH  14  15
ENDBRANCH  11  14
ENDBRANCH   1   8
BRANCH   4  24
HETATM   24  C13 UNL     1      27.211  29.218   3.392  1.00  0.00     0.155 C 
HETATM   25  C14 UNL     1      26.962  29.309   4.854  1.00  0.00     0.072 C 
HETATM   26  C15 UNL     1      27.546  28.175   5.650  1.00  0.00     0.200 C 
HETATM   27  F1  UNL     1      27.002  28.223   6.919  1.00  0.00    -0.247 F 
HETATM   28  C16 UNL     1      27.322  26.833   5.050  1.00  0.00     0.199 C 
HETATM   29  C17 UNL     1      26.665  26.846   3.736  1.00  0.00     0.095 C 
HETATM   30  N4  UNL     1      25.914  25.858   3.395  1.00  0.00    -0.388 N 
HETATM   31  N5  UNL     1      26.840  27.913   2.847  1.00  0.00    -0.367 N 
ATOM     32  H42 UNL     1      25.787  25.080   4.043  1.00  0.00     0.157 HD
ATOM     33  H41 UNL     1      25.458  25.867   2.483  1.00  0.00     0.157 HD
ATOM     34  H5  UNL     1      26.711  27.782   1.844  1.00  0.00     0.161 HD
BRANCH  28  35
HETATM   35  N2  UNL     1      28.594  26.105   4.917  1.00  0.00    -0.133 NA
BRANCH  35  36
HETATM   36  N3  UNL     1      29.657  27.017   5.077  1.00  0.00    -0.348 N 
ATOM     37  H32 UNL     1      29.745  27.903   4.578  1.00  0.00     0.172 HD
ATOM     38  H31 UNL     1      30.310  26.643   5.765  1.00  0.00     0.172 HD
ENDBRANCH  35  36
ENDBRANCH  28  35
ENDBRANCH   4  24
TORSDOF 8
ENDMDL
