MODEL 1
REMARK VINA RESULT: -8.763732859      0.000      0.000
REMARK  9 active torsions:
REMARK  status: ('A' for Active; 'I' for Inactive)
REMARK    1  A    between atoms: N1_1  and  C1_4 
REMARK    2  A    between atoms: C4_7  and  C5_8 
REMARK    3  A    between atoms: C5_8  and  O1_9 
REMARK    4  A    between atoms: C5_8  and  C6_11 
REMARK    5  A    between atoms: C6_11  and  O2_12 
REMARK    6  A    between atoms: C6_11  and  N2_14 
REMARK    7  A    between atoms: N2_14  and  C7_16 
REMARK    8  A    between atoms: C11_20  and  C12_21 
REMARK    9  A    between atoms: C13_26  and  C14_27 
ROOT
HETATM    1  C7  UNL     1      24.928  33.823   1.970  1.00  0.00     0.103 A 
HETATM    2  C8  UNL     1      25.393  34.964   2.587  1.00  0.00     0.048 A 
HETATM    3  C9  UNL     1      24.505  35.837   3.201  1.00  0.00     0.006 A 
HETATM    4  C10 UNL     1      23.155  35.533   3.176  1.00  0.00     0.034 A 
HETATM    5  C11 UNL     1      22.697  34.389   2.556  1.00  0.00     0.087 A 
HETATM    6  N5  UNL     1      23.586  33.570   1.974  1.00  0.00    -0.339 N 
ATOM      7  H5  UNL     1      23.246  32.724   1.516  1.00  0.00     0.167 HD
ENDROOT
BRANCH   1   8
HETATM    8  N2  UNL     1      25.837  32.940   1.346  1.00  0.00    -0.348 N 
ATOM      9  H2  UNL     1      26.511  33.301   0.671  1.00  0.00     0.163 HD
BRANCH   8  10
HETATM   10  C6  UNL     1      25.819  31.528   1.655  1.00  0.00     0.252 C 
BRANCH  10  11
HETATM   11  C5  UNL     1      25.959  31.300   3.146  1.00  0.00     0.201 C 
BRANCH  11  12
HETATM   12  C4  UNL     1      26.158  29.868   3.476  1.00  0.00    -0.010 A 
HETATM   13  C3  UNL     1      26.008  29.374   4.754  1.00  0.00     0.015 A 
HETATM   14  C2  UNL     1      26.201  28.036   5.024  1.00  0.00     0.048 A 
HETATM   15  C1  UNL     1      26.549  27.159   4.020  1.00  0.00     0.098 A 
HETATM   16  N6  UNL     1      26.693  27.649   2.776  1.00  0.00    -0.352 N 
HETATM   17  C20 UNL     1      26.509  28.948   2.490  1.00  0.00     0.099 A 
ATOM     18  H6  UNL     1      26.950  27.011   2.023  1.00  0.00     0.166 HD
BRANCH  15  19
HETATM   19  N1  UNL     1      26.732  25.890   4.279  1.00  0.00    -0.385 N 
ATOM     20  H12 UNL     1      26.846  25.554   5.235  1.00  0.00     0.157 HD
ATOM     21  H11 UNL     1      26.763  25.206   3.523  1.00  0.00     0.157 HD
ENDBRANCH  15  19
ENDBRANCH  11  12
BRANCH  11  22
HETATM   22  O1  UNL     1      27.068  31.999   3.615  1.00  0.00    -0.386 OA
ATOM     23  H1  UNL     1      27.184  32.761   3.059  1.00  0.00     0.210 HD
ENDBRANCH  11  22
ENDBRANCH  10  11
BRANCH  10  24
HETATM   24  O2  UNL     1      24.560  30.995   1.300  1.00  0.00    -0.374 OA
ATOM     25  H2  UNL     1      24.608  30.066   1.488  1.00  0.00     0.212 HD
ENDBRANCH  10  24
ENDBRANCH   8  10
ENDBRANCH   1   8
BRANCH   5  26
HETATM   26  C12 UNL     1      21.270  34.091   2.544  1.00  0.00     0.191 A 
HETATM   27  N3  UNL     1      20.258  34.974   2.512  1.00  0.00    -0.276 N 
HETATM   28  N4  UNL     1      19.106  34.311   2.511  1.00  0.00    -0.277 N 
ATOM     29  H3  UNL     1      20.358  35.988   2.490  1.00  0.00     0.189 HD
HETATM   30  C13 UNL     1      19.421  33.005   2.545  1.00  0.00     0.174 A 
ATOM     31  H4  UNL     1      18.169  34.714   2.490  1.00  0.00     0.189 HD
HETATM   32  O3  UNL     1      20.713  32.917   2.563  1.00  0.00    -0.271 OA
BRANCH  30  33
HETATM   33  C14 UNL     1      18.430  31.911   2.555  1.00  0.00     0.017 A 
HETATM   34  C15 UNL     1      18.441  30.930   1.601  1.00  0.00     0.019 A 
HETATM   35  C16 UNL     1      17.530  29.886   1.573  1.00  0.00     0.043 A 
HETATM   36  C17 UNL     1      16.573  29.854   2.568  1.00  0.00     0.116 A 
HETATM   37  F1  UNL     1      15.653  28.854   2.591  1.00  0.00    -0.206 F 
HETATM   38  C18 UNL     1      16.526  30.816   3.544  1.00  0.00     0.043 A 
HETATM   39  C19 UNL     1      17.462  31.851   3.536  1.00  0.00     0.019 A 
ENDBRANCH  30  33
ENDBRANCH   5  26
TORSDOF 9
ENDMDL
MODEL 2
REMARK VINA RESULT: -8.653241578      0.974      1.345
REMARK  9 active torsions:
REMARK  status: ('A' for Active; 'I' for Inactive)
REMARK    1  A    between atoms: N1_1  and  C1_4 
REMARK    2  A    between atoms: C4_7  and  C5_8 
REMARK    3  A    between atoms: C5_8  and  O1_9 
REMARK    4  A    between atoms: C5_8  and  C6_11 
REMARK    5  A    between atoms: C6_11  and  O2_12 
REMARK    6  A    between atoms: C6_11  and  N2_14 
REMARK    7  A    between atoms: N2_14  and  C7_16 
REMARK    8  A    between atoms: C11_20  and  C12_21 
REMARK    9  A    between atoms: C13_26  and  C14_27 
ROOT
HETATM    1  C7  UNL     1      25.197  33.422   2.162  1.00  0.00     0.103 A 
HETATM    2  C8  UNL     1      25.594  34.452   1.338  1.00  0.00     0.048 A 
HETATM    3  C9  UNL     1      24.650  35.307   0.785  1.00  0.00     0.006 A 
HETATM    4  C10 UNL     1      23.315  35.099   1.082  1.00  0.00     0.034 A 
HETATM    5  C11 UNL     1      22.925  34.067   1.908  1.00  0.00     0.087 A 
HETATM    6  N5  UNL     1      23.866  33.261   2.424  1.00  0.00    -0.339 N 
ATOM      7  H5  UNL     1      23.576  32.497   3.035  1.00  0.00     0.167 HD
ENDROOT
BRANCH   1   8
HETATM    8  N2  UNL     1      26.162  32.554   2.720  1.00  0.00    -0.348 N 
ATOM      9  H2  UNL     1      26.949  32.940   3.241  1.00  0.00     0.163 HD
BRANCH   8  10
HETATM   10  C6  UNL     1      26.043  31.122   2.558  1.00  0.00     0.252 C 
BRANCH  10  11
HETATM   11  C5  UNL     1      25.587  30.469   3.846  1.00  0.00     0.201 C 
BRANCH  11  12
HETATM   12  C4  UNL     1      26.232  29.152   4.064  1.00  0.00    -0.010 A 
HETATM   13  C3  UNL     1      26.794  28.792   5.270  1.00  0.00     0.015 A 
HETATM   14  C2  UNL     1      27.386  27.558   5.436  1.00  0.00     0.048 A 
HETATM   15  C1  UNL     1      27.430  26.654   4.397  1.00  0.00     0.098 A 
HETATM   16  N6  UNL     1      26.881  27.013   3.224  1.00  0.00    -0.352 N 
HETATM   17  C20 UNL     1      26.298  28.209   3.039  1.00  0.00     0.099 A 
ATOM     18  H6  UNL     1      26.907  26.354   2.446  1.00  0.00     0.166 HD
BRANCH  15  19
HETATM   19  N1  UNL     1      27.993  25.484   4.557  1.00  0.00    -0.385 N 
ATOM     20  H12 UNL     1      28.915  25.392   4.986  1.00  0.00     0.157 HD
ATOM     21  H11 UNL     1      27.518  24.634   4.255  1.00  0.00     0.157 HD
ENDBRANCH  15  19
ENDBRANCH  11  12
BRANCH  11  22
HETATM   22  O1  UNL     1      25.924  31.288   4.920  1.00  0.00    -0.386 OA
ATOM     23  H1  UNL     1      26.815  31.590   4.785  1.00  0.00     0.210 HD
ENDBRANCH  11  22
ENDBRANCH  10  11
BRANCH  10  24
HETATM   24  O2  UNL     1      25.034  30.849   1.608  1.00  0.00    -0.374 OA
ATOM     25  H2  UNL     1      25.462  30.383   0.901  1.00  0.00     0.212 HD
ENDBRANCH  10  24
ENDBRANCH   8  10
ENDBRANCH   1   8
BRANCH   5  26
HETATM   26  C12 UNL     1      21.511  33.869   2.207  1.00  0.00     0.191 A 
HETATM   27  N3  UNL     1      20.629  34.802   2.599  1.00  0.00    -0.276 N 
HETATM   28  N4  UNL     1      19.441  34.229   2.771  1.00  0.00    -0.277 N 
ATOM     29  H3  UNL     1      20.835  35.790   2.742  1.00  0.00     0.189 HD
HETATM   30  C13 UNL     1      19.605  32.927   2.480  1.00  0.00     0.174 A 
ATOM     31  H4  UNL     1      18.578  34.686   3.066  1.00  0.00     0.189 HD
HETATM   32  O3  UNL     1      20.846  32.755   2.150  1.00  0.00    -0.271 OA
BRANCH  30  33
HETATM   33  C14 UNL     1      18.527  31.920   2.541  1.00  0.00     0.017 A 
HETATM   34  C15 UNL     1      17.541  31.989   3.488  1.00  0.00     0.019 A 
HETATM   35  C16 UNL     1      16.512  31.066   3.582  1.00  0.00     0.043 A 
HETATM   36  C17 UNL     1      16.500  30.034   2.664  1.00  0.00     0.116 A 
HETATM   37  F1  UNL     1      15.515  29.099   2.708  1.00  0.00    -0.206 F 
HETATM   38  C18 UNL     1      17.468  29.927   1.698  1.00  0.00     0.043 A 
HETATM   39  C19 UNL     1      18.488  30.878   1.638  1.00  0.00     0.019 A 
ENDBRANCH  30  33
ENDBRANCH   5  26
TORSDOF 9
ENDMDL
MODEL 3
REMARK VINA RESULT: -8.616646764      1.210      1.267
REMARK  9 active torsions:
REMARK  status: ('A' for Active; 'I' for Inactive)
REMARK    1  A    between atoms: N1_1  and  C1_4 
REMARK    2  A    between atoms: C4_7  and  C5_8 
REMARK    3  A    between atoms: C5_8  and  O1_9 
REMARK    4  A    between atoms: C5_8  and  C6_11 
REMARK    5  A    between atoms: C6_11  and  O2_12 
REMARK    6  A    between atoms: C6_11  and  N2_14 
REMARK    7  A    between atoms: N2_14  and  C7_16 
REMARK    8  A    between atoms: C11_20  and  C12_21 
REMARK    9  A    between atoms: C13_26  and  C14_27 
ROOT
HETATM    1  C7  UNL     1      25.059  33.590   2.465  1.00  0.00     0.103 A 
HETATM    2  C8  UNL     1      25.502  34.610   1.653  1.00  0.00     0.048 A 
HETATM    3  C9  UNL     1      24.591  35.431   1.003  1.00  0.00     0.006 A 
HETATM    4  C10 UNL     1      23.240  35.199   1.191  1.00  0.00     0.034 A 
HETATM    5  C11 UNL     1      22.803  34.175   2.005  1.00  0.00     0.087 A 
HETATM    6  N5  UNL     1      23.715  33.402   2.617  1.00  0.00    -0.339 N 
ATOM      7  H5  UNL     1      23.391  32.646   3.219  1.00  0.00     0.167 HD
ENDROOT
BRANCH   1   8
HETATM    8  N2  UNL     1      25.992  32.757   3.122  1.00  0.00    -0.348 N 
ATOM      9  H2  UNL     1      26.984  32.830   2.895  1.00  0.00     0.163 HD
BRANCH   8  10
HETATM   10  C6  UNL     1      25.552  31.800   4.113  1.00  0.00     0.252 C 
BRANCH  10  11
HETATM   11  C5  UNL     1      26.730  31.049   4.698  1.00  0.00     0.201 C 
BRANCH  11  12
HETATM   12  C4  UNL     1      26.706  29.609   4.345  1.00  0.00    -0.010 A 
HETATM   13  C3  UNL     1      26.707  28.612   5.296  1.00  0.00     0.015 A 
HETATM   14  C2  UNL     1      26.685  27.283   4.931  1.00  0.00     0.048 A 
HETATM   15  C1  UNL     1      26.660  26.920   3.603  1.00  0.00     0.098 A 
HETATM   16  N6  UNL     1      26.658  27.898   2.681  1.00  0.00    -0.352 N 
HETATM   17  C20 UNL     1      26.680  29.199   3.013  1.00  0.00     0.099 A 
ATOM     18  H6  UNL     1      26.640  27.643   1.693  1.00  0.00     0.166 HD
BRANCH  15  19
HETATM   19  N1  UNL     1      26.639  25.657   3.259  1.00  0.00    -0.385 N 
ATOM     20  H12 UNL     1      27.496  25.107   3.204  1.00  0.00     0.157 HD
ATOM     21  H11 UNL     1      25.757  25.195   3.038  1.00  0.00     0.157 HD
ENDBRANCH  15  19
ENDBRANCH  11  12
BRANCH  11  22
HETATM   22  O1  UNL     1      27.913  31.587   4.196  1.00  0.00    -0.386 OA
ATOM     23  H1  UNL     1      28.402  31.941   4.930  1.00  0.00     0.210 HD
ENDBRANCH  11  22
ENDBRANCH  10  11
BRANCH  10  24
HETATM   24  O2  UNL     1      24.963  32.495   5.193  1.00  0.00    -0.374 OA
ATOM     25  H2  UNL     1      24.611  33.296   4.824  1.00  0.00     0.212 HD
ENDBRANCH  10  24
ENDBRANCH   8  10
ENDBRANCH   1   8
BRANCH   5  26
HETATM   26  C12 UNL     1      21.374  33.950   2.187  1.00  0.00     0.191 A 
HETATM   27  N3  UNL     1      20.423  34.883   2.353  1.00  0.00    -0.276 N 
HETATM   28  N4  UNL     1      19.245  34.281   2.487  1.00  0.00    -0.277 N 
ATOM     29  H3  UNL     1      20.578  35.891   2.371  1.00  0.00     0.189 HD
HETATM   30  C13 UNL     1      19.485  32.961   2.403  1.00  0.00     0.174 A 
ATOM     31  H4  UNL     1      18.340  34.732   2.626  1.00  0.00     0.189 HD
HETATM   32  O3  UNL     1      20.758  32.807   2.226  1.00  0.00    -0.271 OA
BRANCH  30  33
HETATM   33  C14 UNL     1      18.442  31.920   2.502  1.00  0.00     0.017 A 
HETATM   34  C15 UNL     1      18.397  30.872   1.623  1.00  0.00     0.019 A 
HETATM   35  C16 UNL     1      17.438  29.874   1.678  1.00  0.00     0.043 A 
HETATM   36  C17 UNL     1      16.490  29.962   2.679  1.00  0.00     0.116 A 
HETATM   37  F1  UNL     1      15.524  29.012   2.782  1.00  0.00    -0.206 F 
HETATM   38  C18 UNL     1      16.498  30.994   3.581  1.00  0.00     0.043 A 
HETATM   39  C19 UNL     1      17.482  31.980   3.490  1.00  0.00     0.019 A 
ENDBRANCH  30  33
ENDBRANCH   5  26
TORSDOF 9
ENDMDL
MODEL 4
REMARK VINA RESULT: -8.560695261      2.853      4.505
REMARK  9 active torsions:
REMARK  status: ('A' for Active; 'I' for Inactive)
REMARK    1  A    between atoms: N1_1  and  C1_4 
REMARK    2  A    between atoms: C4_7  and  C5_8 
REMARK    3  A    between atoms: C5_8  and  O1_9 
REMARK    4  A    between atoms: C5_8  and  C6_11 
REMARK    5  A    between atoms: C6_11  and  O2_12 
REMARK    6  A    between atoms: C6_11  and  N2_14 
REMARK    7  A    between atoms: N2_14  and  C7_16 
REMARK    8  A    between atoms: C11_20  and  C12_21 
REMARK    9  A    between atoms: C13_26  and  C14_27 
ROOT
HETATM    1  C7  UNL     1      21.587  35.912   5.911  1.00  0.00     0.103 A 
HETATM    2  C8  UNL     1      21.561  36.275   7.239  1.00  0.00     0.048 A 
HETATM    3  C9  UNL     1      20.507  35.880   8.051  1.00  0.00     0.006 A 
HETATM    4  C10 UNL     1      19.494  35.119   7.495  1.00  0.00     0.034 A 
HETATM    5  C11 UNL     1      19.526  34.759   6.165  1.00  0.00     0.087 A 
HETATM    6  N5  UNL     1      20.562  35.160   5.412  1.00  0.00    -0.339 N 
ATOM      7  H5  UNL     1      20.585  34.892   4.427  1.00  0.00     0.167 HD
ENDROOT
BRANCH   1   8
HETATM    8  N2  UNL     1      22.662  36.319   5.090  1.00  0.00    -0.348 N 
ATOM      9  H2  UNL     1      22.698  37.278   4.742  1.00  0.00     0.163 HD
BRANCH   8  10
HETATM   10  C6  UNL     1      23.711  35.389   4.737  1.00  0.00     0.252 C 
BRANCH  10  11
HETATM   11  C5  UNL     1      23.711  35.115   3.248  1.00  0.00     0.201 C 
BRANCH  11  12
HETATM   12  C4  UNL     1      24.285  33.787   2.924  1.00  0.00    -0.010 A 
HETATM   13  C3  UNL     1      24.781  33.477   1.676  1.00  0.00     0.015 A 
HETATM   14  C2  UNL     1      25.307  32.231   1.410  1.00  0.00     0.048 A 
HETATM   15  C1  UNL     1      25.351  31.264   2.390  1.00  0.00     0.098 A 
HETATM   16  N6  UNL     1      24.866  31.573   3.605  1.00  0.00    -0.352 N 
HETATM   17  C20 UNL     1      24.348  32.781   3.886  1.00  0.00     0.099 A 
ATOM     18  H6  UNL     1      24.891  30.866   4.340  1.00  0.00     0.166 HD
BRANCH  15  19
HETATM   19  N1  UNL     1      25.851  30.082   2.136  1.00  0.00    -0.385 N 
ATOM     20  H12 UNL     1      26.537  29.943   1.394  1.00  0.00     0.157 HD
ATOM     21  H11 UNL     1      25.561  29.269   2.679  1.00  0.00     0.157 HD
ENDBRANCH  15  19
ENDBRANCH  11  12
BRANCH  11  22
HETATM   22  O1  UNL     1      22.401  35.135   2.777  1.00  0.00    -0.386 OA
ATOM     23  H1  UNL     1      22.099  36.035   2.804  1.00  0.00     0.210 HD
ENDBRANCH  11  22
ENDBRANCH  10  11
BRANCH  10  24
HETATM   24  O2  UNL     1      24.963  35.980   5.021  1.00  0.00    -0.374 OA
ATOM     25  H2  UNL     1      24.791  36.904   5.150  1.00  0.00     0.212 HD
ENDBRANCH  10  24
ENDBRANCH   8  10
ENDBRANCH   1   8
BRANCH   5  26
HETATM   26  C12 UNL     1      18.447  33.956   5.603  1.00  0.00     0.191 A 
HETATM   27  N3  UNL     1      17.146  34.004   5.932  1.00  0.00    -0.276 N 
HETATM   28  N4  UNL     1      16.480  33.117   5.198  1.00  0.00    -0.277 N 
ATOM     29  H3  UNL     1      16.734  34.621   6.631  1.00  0.00     0.189 HD
HETATM   30  C13 UNL     1      17.391  32.520   4.411  1.00  0.00     0.174 A 
ATOM     31  H4  UNL     1      15.478  32.928   5.227  1.00  0.00     0.189 HD
HETATM   32  O3  UNL     1      18.544  33.045   4.681  1.00  0.00    -0.271 OA
BRANCH  30  33
HETATM   33  C14 UNL     1      17.076  31.461   3.431  1.00  0.00     0.017 A 
HETATM   34  C15 UNL     1      15.841  30.872   3.392  1.00  0.00     0.019 A 
HETATM   35  C16 UNL     1      15.503  29.876   2.490  1.00  0.00     0.043 A 
HETATM   36  C17 UNL     1      16.475  29.474   1.595  1.00  0.00     0.116 A 
HETATM   37  F1  UNL     1      16.200  28.500   0.688  1.00  0.00    -0.206 F 
HETATM   38  C18 UNL     1      17.725  30.038   1.599  1.00  0.00     0.043 A 
HETATM   39  C19 UNL     1      18.026  31.039   2.524  1.00  0.00     0.019 A 
ENDBRANCH  30  33
ENDBRANCH   5  26
TORSDOF 9
ENDMDL
MODEL 5
REMARK VINA RESULT: -8.535195676      2.867      4.496
REMARK  9 active torsions:
REMARK  status: ('A' for Active; 'I' for Inactive)
REMARK    1  A    between atoms: N1_1  and  C1_4 
REMARK    2  A    between atoms: C4_7  and  C5_8 
REMARK    3  A    between atoms: C5_8  and  O1_9 
REMARK    4  A    between atoms: C5_8  and  C6_11 
REMARK    5  A    between atoms: C6_11  and  O2_12 
REMARK    6  A    between atoms: C6_11  and  N2_14 
REMARK    7  A    between atoms: N2_14  and  C7_16 
REMARK    8  A    between atoms: C11_20  and  C12_21 
REMARK    9  A    between atoms: C13_26  and  C14_27 
ROOT
HETATM    1  C7  UNL     1      21.857  35.884   5.576  1.00  0.00     0.103 A 
HETATM    2  C8  UNL     1      21.945  36.194   6.915  1.00  0.00     0.048 A 
HETATM    3  C9  UNL     1      20.971  35.755   7.800  1.00  0.00     0.006 A 
HETATM    4  C10 UNL     1      19.919  35.004   7.306  1.00  0.00     0.034 A 
HETATM    5  C11 UNL     1      19.836  34.696   5.964  1.00  0.00     0.087 A 
HETATM    6  N5  UNL     1      20.798  35.139   5.139  1.00  0.00    -0.339 N 
ATOM      7  H5  UNL     1      20.736  34.910   4.147  1.00  0.00     0.167 HD
ENDROOT
BRANCH   1   8
HETATM    8  N2  UNL     1      22.851  36.335   4.680  1.00  0.00    -0.348 N 
ATOM      9  H2  UNL     1      22.581  36.858   3.846  1.00  0.00     0.163 HD
BRANCH   8  10
HETATM   10  C6  UNL     1      24.248  36.063   4.934  1.00  0.00     0.252 C 
BRANCH  10  11
HETATM   11  C5  UNL     1      25.014  35.914   3.636  1.00  0.00     0.201 C 
BRANCH  11  12
HETATM   12  C4  UNL     1      25.108  34.499   3.202  1.00  0.00    -0.010 A 
HETATM   13  C3  UNL     1      24.934  33.444   4.071  1.00  0.00     0.015 A 
HETATM   14  C2  UNL     1      25.030  32.140   3.633  1.00  0.00     0.048 A 
HETATM   15  C1  UNL     1      25.303  31.862   2.311  1.00  0.00     0.098 A 
HETATM   16  N6  UNL     1      25.472  32.896   1.470  1.00  0.00    -0.352 N 
HETATM   17  C20 UNL     1      25.383  34.174   1.875  1.00  0.00     0.099 A 
ATOM     18  H6  UNL     1      25.675  32.705   0.489  1.00  0.00     0.166 HD
BRANCH  15  19
HETATM   19  N1  UNL     1      25.393  30.624   1.898  1.00  0.00    -0.385 N 
ATOM     20  H12 UNL     1      26.235  30.278   1.436  1.00  0.00     0.157 HD
ATOM     21  H11 UNL     1      24.618  29.975   2.031  1.00  0.00     0.157 HD
ENDBRANCH  15  19
ENDBRANCH  11  12
BRANCH  11  22
HETATM   22  O1  UNL     1      24.357  36.621   2.632  1.00  0.00    -0.386 OA
ATOM     23  H1  UNL     1      23.509  36.882   2.970  1.00  0.00     0.210 HD
ENDBRANCH  11  22
ENDBRANCH  10  11
BRANCH  10  24
HETATM   24  O2  UNL     1      24.820  37.174   5.594  1.00  0.00    -0.374 OA
ATOM     25  H2  UNL     1      24.892  36.925   6.507  1.00  0.00     0.212 HD
ENDBRANCH  10  24
ENDBRANCH   8  10
ENDBRANCH   1   8
BRANCH   5  26
HETATM   26  C12 UNL     1      18.719  33.903   5.468  1.00  0.00     0.191 A 
HETATM   27  N3  UNL     1      17.441  33.958   5.878  1.00  0.00    -0.276 N 
HETATM   28  N4  UNL     1      16.725  33.079   5.184  1.00  0.00    -0.277 N 
ATOM     29  H3  UNL     1      17.079  34.576   6.604  1.00  0.00     0.189 HD
HETATM   30  C13 UNL     1      17.581  32.478   4.339  1.00  0.00     0.174 A 
ATOM     31  H4  UNL     1      15.725  32.897   5.275  1.00  0.00     0.189 HD
HETATM   32  O3  UNL     1      18.751  32.995   4.539  1.00  0.00    -0.271 OA
BRANCH  30  33
HETATM   33  C14 UNL     1      17.198  31.426   3.378  1.00  0.00     0.017 A 
HETATM   34  C15 UNL     1      15.957  30.848   3.410  1.00  0.00     0.019 A 
HETATM   35  C16 UNL     1      15.556  29.858   2.528  1.00  0.00     0.043 A 
HETATM   36  C17 UNL     1      16.470  29.449   1.577  1.00  0.00     0.116 A 
HETATM   37  F1  UNL     1      16.132  28.481   0.685  1.00  0.00    -0.206 F 
HETATM   38  C18 UNL     1      17.723  30.001   1.508  1.00  0.00     0.043 A 
HETATM   39  C19 UNL     1      18.088  30.996   2.416  1.00  0.00     0.019 A 
ENDBRANCH  30  33
ENDBRANCH   5  26
TORSDOF 9
ENDMDL
