MODEL 1
REMARK VINA RESULT: -7.724226007      0.000      0.000
REMARK  9 active torsions:
REMARK  status: ('A' for Active; 'I' for Inactive)
REMARK    1  A    between atoms: C2_2  and  C3_3 
REMARK    2  A    between atoms: C3_3  and  N1_4 
REMARK    3  A    between atoms: C3_3  and  C16_31 
REMARK    4  A    between atoms: N1_4  and  C4_6 
REMARK    5  A    between atoms: C7_11  and  N3_12 
REMARK    6  A    between atoms: C8_14  and  O1_15 
REMARK    7  A    between atoms: C8_14  and  C9_17 
REMARK    8  A    between atoms: C12_25  and  N6_26 
REMARK    9  A    between atoms: N6_26  and  C13_28 
ROOT
HETATM    1  C4  UNL     1      22.401  34.221   2.898  1.00  0.00     0.131 A 
HETATM    2  N2  UNL     1      22.814  35.142   2.010  1.00  0.00    -0.351 N 
ATOM      3  H2  UNL     1      22.189  35.882   1.689  1.00  0.00     0.166 HD
HETATM    4  C5  UNL     1      24.083  35.054   1.555  1.00  0.00     0.092 A 
HETATM    5  C6  UNL     1      24.952  34.074   1.960  1.00  0.00     0.049 A 
HETATM    6  C7  UNL     1      24.524  33.099   2.899  1.00  0.00     0.066 A 
HETATM    7  C12 UNL     1      23.236  33.210   3.355  1.00  0.00     0.100 A 
ENDROOT
BRANCH   6   8
HETATM    8  N3  UNL     1      25.334  31.987   3.090  1.00  0.00    -0.334 N 
HETATM    9  C8  UNL     1      25.515  30.953   2.444  1.00  0.00     0.157 C 
ATOM     10  H3  UNL     1      25.895  32.035   3.941  1.00  0.00     0.168 HD
BRANCH   9  11
HETATM   11  O1  UNL     1      24.921  30.608   1.233  1.00  0.00    -0.345 OA
ATOM     12  H1  UNL     1      25.083  29.825   0.720  1.00  0.00     0.219 HD
ENDBRANCH   9  11
BRANCH   9  13
HETATM   13  C9  UNL     1      26.449  29.942   3.020  1.00  0.00     0.089 A 
HETATM   14  C10 UNL     1      26.444  28.553   2.698  1.00  0.00     0.127 A 
HETATM   15  N4  UNL     1      27.368  27.991   3.499  1.00  0.00    -0.309 N 
HETATM   16  N5  UNL     1      27.939  28.866   4.268  1.00  0.00    -0.275 N 
ATOM     17  H4  UNL     1      27.593  26.996   3.500  1.00  0.00     0.186 HD
HETATM   18  C11 UNL     1      27.385  30.062   3.979  1.00  0.00     0.218 A 
ATOM     19  H5  UNL     1      28.667  28.684   4.959  1.00  0.00     0.189 HD
HETATM   20  F1  UNL     1      27.738  31.246   4.598  1.00  0.00    -0.184 F 
ENDBRANCH   9  13
ENDBRANCH   6   8
BRANCH   7  21
HETATM   21  N6  UNL     1      22.740  32.343   4.412  1.00  0.00    -0.380 N 
ATOM     22  H6  UNL     1      22.093  31.568   4.271  1.00  0.00     0.160 HD
BRANCH  21  23
HETATM   23  C13 UNL     1      23.299  32.736   5.711  1.00  0.00     0.082 A 
HETATM   24  C14 UNL     1      24.033  31.733   6.512  1.00  0.00     0.027 A 
HETATM   25  C15 UNL     1      22.746  32.467   7.019  1.00  0.00     0.027 A 
ENDBRANCH  21  23
ENDBRANCH   7  21
BRANCH   1  26
HETATM   26  N1  UNL     1      21.138  34.109   3.250  1.00  0.00    -0.364 N 
ATOM     27  H1  UNL     1      20.858  34.456   4.168  1.00  0.00     0.162 HD
BRANCH  26  28
HETATM   28  C3  UNL     1      20.157  33.538   2.428  1.00  0.00     0.135 C 
BRANCH  28  29
HETATM   29  C2  UNL     1      19.746  34.336   1.252  1.00  0.00     0.027 C 
HETATM   30  C1  UNL     1      18.387  34.897   1.186  1.00  0.00     0.007 C 
ENDBRANCH  28  29
BRANCH  28  31
HETATM   31  C16 UNL     1      18.987  32.939   3.169  1.00  0.00     0.064 A 
HETATM   32  N7  UNL     1      18.337  31.907   2.717  1.00  0.00    -0.360 N 
HETATM   33  C17 UNL     1      17.484  31.247   3.465  1.00  0.00     0.140 A 
ATOM     34  H7  UNL     1      18.495  31.601   1.756  1.00  0.00     0.165 HD
HETATM   35  S1  UNL     1      17.553  32.097   4.930  1.00  0.00    -0.068 SA
HETATM   36  C18 UNL     1      18.712  33.294   4.476  1.00  0.00     0.113 A 
HETATM   37  N8  UNL     1      19.128  34.422   5.244  1.00  0.00    -0.092 NA
ENDBRANCH  28  31
ENDBRANCH  26  28
ENDBRANCH   1  26
TORSDOF 9
ENDMDL
MODEL 2
REMARK VINA RESULT: -7.709760632      1.936      2.398
REMARK  9 active torsions:
REMARK  status: ('A' for Active; 'I' for Inactive)
REMARK    1  A    between atoms: C2_2  and  C3_3 
REMARK    2  A    between atoms: C3_3  and  N1_4 
REMARK    3  A    between atoms: C3_3  and  C16_31 
REMARK    4  A    between atoms: N1_4  and  C4_6 
REMARK    5  A    between atoms: C7_11  and  N3_12 
REMARK    6  A    between atoms: C8_14  and  O1_15 
REMARK    7  A    between atoms: C8_14  and  C9_17 
REMARK    8  A    between atoms: C12_25  and  N6_26 
REMARK    9  A    between atoms: N6_26  and  C13_28 
ROOT
HETATM    1  C4  UNL     1      23.661  35.342   3.351  1.00  0.00     0.131 A 
HETATM    2  N2  UNL     1      23.805  35.964   2.168  1.00  0.00    -0.351 N 
ATOM      3  H2  UNL     1      23.270  36.804   1.945  1.00  0.00     0.166 HD
HETATM    4  C5  UNL     1      24.681  35.440   1.283  1.00  0.00     0.092 A 
HETATM    5  C6  UNL     1      25.417  34.314   1.544  1.00  0.00     0.049 A 
HETATM    6  C7  UNL     1      25.271  33.651   2.792  1.00  0.00     0.066 A 
HETATM    7  C12 UNL     1      24.384  34.203   3.679  1.00  0.00     0.100 A 
ENDROOT
BRANCH   6   8
HETATM    8  N3  UNL     1      25.832  32.388   2.922  1.00  0.00    -0.334 N 
HETATM    9  C8  UNL     1      25.654  31.320   2.332  1.00  0.00     0.157 C 
ATOM     10  H3  UNL     1      26.536  32.330   3.657  1.00  0.00     0.168 HD
BRANCH   9  11
HETATM   11  O1  UNL     1      24.784  31.085   1.271  1.00  0.00    -0.345 OA
ATOM     12  H1  UNL     1      24.816  30.362   0.655  1.00  0.00     0.219 HD
ENDBRANCH   9  11
BRANCH   9  13
HETATM   13  C9  UNL     1      26.426  30.137   2.812  1.00  0.00     0.089 A 
HETATM   14  C10 UNL     1      26.272  28.808   2.318  1.00  0.00     0.127 A 
HETATM   15  N4  UNL     1      27.077  28.043   3.076  1.00  0.00    -0.309 N 
HETATM   16  N5  UNL     1      27.708  28.740   3.970  1.00  0.00    -0.275 N 
ATOM     17  H4  UNL     1      27.180  27.034   2.961  1.00  0.00     0.186 HD
HETATM   18  C11 UNL     1      27.318  30.023   3.813  1.00  0.00     0.218 A 
ATOM     19  H5  UNL     1      28.370  28.386   4.660  1.00  0.00     0.189 HD
HETATM   20  F1  UNL     1      27.778  31.069   4.589  1.00  0.00    -0.184 F 
ENDBRANCH   9  13
ENDBRANCH   6   8
BRANCH   7  21
HETATM   21  N6  UNL     1      24.255  33.681   5.030  1.00  0.00    -0.380 N 
ATOM     22  H6  UNL     1      24.541  34.178   5.874  1.00  0.00     0.160 HD
BRANCH  21  23
HETATM   23  C13 UNL     1      23.658  32.341   5.015  1.00  0.00     0.082 A 
HETATM   24  C14 UNL     1      22.747  31.946   6.111  1.00  0.00     0.027 A 
HETATM   25  C15 UNL     1      24.076  31.187   5.778  1.00  0.00     0.027 A 
ENDBRANCH  21  23
ENDBRANCH   7  21
BRANCH   1  26
HETATM   26  N1  UNL     1      22.702  35.662   4.194  1.00  0.00    -0.364 N 
ATOM     27  H1  UNL     1      22.845  36.462   4.809  1.00  0.00     0.162 HD
BRANCH  26  28
HETATM   28  C3  UNL     1      21.494  34.957   4.288  1.00  0.00     0.135 C 
BRANCH  28  29
HETATM   29  C2  UNL     1      20.608  35.018   3.104  1.00  0.00     0.027 C 
HETATM   30  C1  UNL     1      20.585  33.899   2.148  1.00  0.00     0.007 C 
ENDBRANCH  28  29
BRANCH  28  31
HETATM   31  C16 UNL     1      20.750  35.157   5.587  1.00  0.00     0.064 A 
HETATM   32  N7  UNL     1      19.457  35.036   5.668  1.00  0.00    -0.360 N 
HETATM   33  C17 UNL     1      18.842  34.974   6.827  1.00  0.00     0.140 A 
ATOM     34  H7  UNL     1      18.907  34.988   4.810  1.00  0.00     0.165 HD
HETATM   35  S1  UNL     1      20.126  35.092   7.926  1.00  0.00    -0.068 SA
HETATM   36  C18 UNL     1      21.422  35.223   6.792  1.00  0.00     0.113 A 
HETATM   37  N8  UNL     1      22.795  35.481   7.082  1.00  0.00    -0.092 NA
ENDBRANCH  28  31
ENDBRANCH  26  28
ENDBRANCH   1  26
TORSDOF 9
ENDMDL
MODEL 3
REMARK VINA RESULT: -7.707458904      1.983      2.651
REMARK  9 active torsions:
REMARK  status: ('A' for Active; 'I' for Inactive)
REMARK    1  A    between atoms: C2_2  and  C3_3 
REMARK    2  A    between atoms: C3_3  and  N1_4 
REMARK    3  A    between atoms: C3_3  and  C16_31 
REMARK    4  A    between atoms: N1_4  and  C4_6 
REMARK    5  A    between atoms: C7_11  and  N3_12 
REMARK    6  A    between atoms: C8_14  and  O1_15 
REMARK    7  A    between atoms: C8_14  and  C9_17 
REMARK    8  A    between atoms: C12_25  and  N6_26 
REMARK    9  A    between atoms: N6_26  and  C13_28 
ROOT
HETATM    1  C4  UNL     1      20.891  33.739   4.434  1.00  0.00     0.131 A 
HETATM    2  N2  UNL     1      20.915  34.779   3.582  1.00  0.00    -0.351 N 
ATOM      3  H2  UNL     1      20.112  35.399   3.486  1.00  0.00     0.166 HD
HETATM    4  C5  UNL     1      22.039  34.974   2.858  1.00  0.00     0.092 A 
HETATM    5  C6  UNL     1      23.138  34.162   2.958  1.00  0.00     0.049 A 
HETATM    6  C7  UNL     1      23.122  33.062   3.856  1.00  0.00     0.066 A 
HETATM    7  C12 UNL     1      21.976  32.885   4.588  1.00  0.00     0.100 A 
ENDROOT
BRANCH   6   8
HETATM    8  N3  UNL     1      24.139  32.123   3.747  1.00  0.00    -0.334 N 
HETATM    9  C8  UNL     1      25.304  32.089   4.148  1.00  0.00     0.157 C 
ATOM     10  H3  UNL     1      23.866  31.289   3.227  1.00  0.00     0.168 HD
BRANCH   9  11
HETATM   11  O1  UNL     1      25.956  33.059   4.904  1.00  0.00    -0.345 OA
ATOM     12  H1  UNL     1      26.815  33.430   4.738  1.00  0.00     0.219 HD
ENDBRANCH   9  11
BRANCH   9  13
HETATM   13  C9  UNL     1      26.123  30.900   3.770  1.00  0.00     0.089 A 
HETATM   14  C10 UNL     1      27.134  30.314   4.587  1.00  0.00     0.127 A 
HETATM   15  N4  UNL     1      27.683  29.339   3.842  1.00  0.00    -0.309 N 
HETATM   16  N5  UNL     1      27.131  29.254   2.671  1.00  0.00    -0.275 N 
ATOM     17  H4  UNL     1      28.443  28.737   4.160  1.00  0.00     0.186 HD
HETATM   18  C11 UNL     1      26.173  30.203   2.620  1.00  0.00     0.218 A 
ATOM     19  H5  UNL     1      27.375  28.597   1.931  1.00  0.00     0.189 HD
HETATM   20  F1  UNL     1      25.362  30.423   1.524  1.00  0.00    -0.184 F 
ENDBRANCH   9  13
ENDBRANCH   6   8
BRANCH   7  21
HETATM   21  N6  UNL     1      21.902  31.871   5.628  1.00  0.00    -0.380 N 
ATOM     22  H6  UNL     1      21.432  30.972   5.528  1.00  0.00     0.160 HD
BRANCH  21  23
HETATM   23  C13 UNL     1      22.597  32.318   6.841  1.00  0.00     0.082 A 
HETATM   24  C14 UNL     1      21.800  32.737   8.014  1.00  0.00     0.027 A 
HETATM   25  C15 UNL     1      22.810  33.679   7.276  1.00  0.00     0.027 A 
ENDBRANCH  21  23
ENDBRANCH   7  21
BRANCH   1  26
HETATM   26  N1  UNL     1      19.785  33.356   5.036  1.00  0.00    -0.364 N 
ATOM     27  H1  UNL     1      19.844  33.044   6.005  1.00  0.00     0.162 HD
BRANCH  26  28
HETATM   28  C3  UNL     1      18.530  33.356   4.412  1.00  0.00     0.135 C 
BRANCH  28  29
HETATM   29  C2  UNL     1      17.398  33.852   5.224  1.00  0.00     0.027 C 
HETATM   30  C1  UNL     1      17.648  34.763   6.353  1.00  0.00     0.007 C 
ENDBRANCH  28  29
BRANCH  28  31
HETATM   31  C16 UNL     1      18.202  32.088   3.661  1.00  0.00     0.064 A 
HETATM   32  N7  UNL     1      17.276  31.267   4.064  1.00  0.00    -0.360 N 
HETATM   33  C17 UNL     1      16.831  30.300   3.295  1.00  0.00     0.140 A 
ATOM     34  H7  UNL     1      16.886  31.377   5.000  1.00  0.00     0.165 HD
HETATM   35  S1  UNL     1      17.747  30.506   1.884  1.00  0.00    -0.068 SA
HETATM   36  C18 UNL     1      18.684  31.868   2.385  1.00  0.00     0.113 A 
HETATM   37  N8  UNL     1      19.765  32.474   1.679  1.00  0.00    -0.092 NA
ENDBRANCH  28  31
ENDBRANCH  26  28
ENDBRANCH   1  26
TORSDOF 9
ENDMDL
MODEL 4
REMARK VINA RESULT: -7.660158596      0.956      1.166
REMARK  9 active torsions:
REMARK  status: ('A' for Active; 'I' for Inactive)
REMARK    1  A    between atoms: C2_2  and  C3_3 
REMARK    2  A    between atoms: C3_3  and  N1_4 
REMARK    3  A    between atoms: C3_3  and  C16_31 
REMARK    4  A    between atoms: N1_4  and  C4_6 
REMARK    5  A    between atoms: C7_11  and  N3_12 
REMARK    6  A    between atoms: C8_14  and  O1_15 
REMARK    7  A    between atoms: C8_14  and  C9_17 
REMARK    8  A    between atoms: C12_25  and  N6_26 
REMARK    9  A    between atoms: N6_26  and  C13_28 
ROOT
HETATM    1  C4  UNL     1      22.269  34.600   3.143  1.00  0.00     0.131 A 
HETATM    2  N2  UNL     1      22.755  35.624   2.421  1.00  0.00    -0.351 N 
ATOM      3  H2  UNL     1      22.160  36.406   2.148  1.00  0.00     0.166 HD
HETATM    4  C5  UNL     1      24.059  35.583   2.067  1.00  0.00     0.092 A 
HETATM    5  C6  UNL     1      24.890  34.550   2.413  1.00  0.00     0.049 A 
HETATM    6  C7  UNL     1      24.385  33.464   3.176  1.00  0.00     0.066 A 
HETATM    7  C12 UNL     1      23.063  33.528   3.532  1.00  0.00     0.100 A 
ENDROOT
BRANCH   6   8
HETATM    8  N3  UNL     1      25.176  32.329   3.288  1.00  0.00    -0.334 N 
HETATM    9  C8  UNL     1      25.453  31.413   2.511  1.00  0.00     0.157 C 
ATOM     10  H3  UNL     1      25.621  32.233   4.201  1.00  0.00     0.168 HD
BRANCH   9  11
HETATM   11  O1  UNL     1      25.026  31.275   1.194  1.00  0.00    -0.345 OA
ATOM     12  H1  UNL     1      25.530  30.935   0.463  1.00  0.00     0.219 HD
ENDBRANCH   9  11
BRANCH   9  13
HETATM   13  C9  UNL     1      26.316  30.312   3.033  1.00  0.00     0.089 A 
HETATM   14  C10 UNL     1      27.328  30.471   4.024  1.00  0.00     0.127 A 
HETATM   15  N4  UNL     1      27.922  29.270   4.134  1.00  0.00    -0.309 N 
HETATM   16  N5  UNL     1      27.396  28.394   3.333  1.00  0.00    -0.275 N 
ATOM     17  H4  UNL     1      28.694  29.070   4.770  1.00  0.00     0.186 HD
HETATM   18  C11 UNL     1      26.410  29.023   2.659  1.00  0.00     0.218 A 
ATOM     19  H5  UNL     1      27.674  27.419   3.233  1.00  0.00     0.189 HD
HETATM   20  F1  UNL     1      25.614  28.413   1.709  1.00  0.00    -0.184 F 
ENDBRANCH   9  13
ENDBRANCH   6   8
BRANCH   7  21
HETATM   21  N6  UNL     1      22.479  32.536   4.422  1.00  0.00    -0.380 N 
ATOM     22  H6  UNL     1      21.983  31.701   4.112  1.00  0.00     0.160 HD
BRANCH  21  23
HETATM   23  C13 UNL     1      22.702  32.901   5.825  1.00  0.00     0.082 A 
HETATM   24  C14 UNL     1      23.442  31.970   6.703  1.00  0.00     0.027 A 
HETATM   25  C15 UNL     1      21.971  32.430   6.979  1.00  0.00     0.027 A 
ENDBRANCH  21  23
ENDBRANCH   7  21
BRANCH   1  26
HETATM   26  N1  UNL     1      20.981  34.456   3.369  1.00  0.00    -0.364 N 
ATOM     27  H1  UNL     1      20.582  34.901   4.196  1.00  0.00     0.162 HD
BRANCH  26  28
HETATM   28  C3  UNL     1      20.129  33.723   2.531  1.00  0.00     0.135 C 
BRANCH  28  29
HETATM   29  C2  UNL     1      19.723  34.386   1.273  1.00  0.00     0.027 C 
HETATM   30  C1  UNL     1      18.365  34.939   1.139  1.00  0.00     0.007 C 
ENDBRANCH  28  29
BRANCH  28  31
HETATM   31  C16 UNL     1      18.976  33.053   3.239  1.00  0.00     0.064 A 
HETATM   32  N7  UNL     1      18.348  32.036   2.725  1.00  0.00    -0.360 N 
HETATM   33  C17 UNL     1      17.514  31.311   3.435  1.00  0.00     0.140 A 
ATOM     34  H7  UNL     1      18.507  31.795   1.747  1.00  0.00     0.165 HD
HETATM   35  S1  UNL     1      17.572  32.069   4.950  1.00  0.00    -0.068 SA
HETATM   36  C18 UNL     1      18.701  33.318   4.567  1.00  0.00     0.113 A 
HETATM   37  N8  UNL     1      19.096  34.405   5.402  1.00  0.00    -0.092 NA
ENDBRANCH  28  31
ENDBRANCH  26  28
ENDBRANCH   1  26
TORSDOF 9
ENDMDL
MODEL 5
REMARK VINA RESULT: -7.569823812      1.573      2.279
REMARK  9 active torsions:
REMARK  status: ('A' for Active; 'I' for Inactive)
REMARK    1  A    between atoms: C2_2  and  C3_3 
REMARK    2  A    between atoms: C3_3  and  N1_4 
REMARK    3  A    between atoms: C3_3  and  C16_31 
REMARK    4  A    between atoms: N1_4  and  C4_6 
REMARK    5  A    between atoms: C7_11  and  N3_12 
REMARK    6  A    between atoms: C8_14  and  O1_15 
REMARK    7  A    between atoms: C8_14  and  C9_17 
REMARK    8  A    between atoms: C12_25  and  N6_26 
REMARK    9  A    between atoms: N6_26  and  C13_28 
ROOT
HETATM    1  C4  UNL     1      20.944  33.407   3.852  1.00  0.00     0.131 A 
HETATM    2  N2  UNL     1      20.853  34.220   2.785  1.00  0.00    -0.351 N 
ATOM      3  H2  UNL     1      19.970  34.663   2.534  1.00  0.00     0.166 HD
HETATM    4  C5  UNL     1      21.971  34.430   2.056  1.00  0.00     0.092 A 
HETATM    5  C6  UNL     1      23.176  33.851   2.359  1.00  0.00     0.049 A 
HETATM    6  C7  UNL     1      23.280  32.992   3.485  1.00  0.00     0.066 A 
HETATM    7  C12 UNL     1      22.138  32.798   4.217  1.00  0.00     0.100 A 
ENDROOT
BRANCH   6   8
HETATM    8  N3  UNL     1      24.435  32.231   3.612  1.00  0.00    -0.334 N 
HETATM    9  C8  UNL     1      25.066  31.516   2.831  1.00  0.00     0.157 C 
ATOM     10  H3  UNL     1      24.847  32.272   4.545  1.00  0.00     0.168 HD
BRANCH   9  11
HETATM   11  O1  UNL     1      24.774  31.281   1.491  1.00  0.00    -0.345 OA
ATOM     12  H1  UNL     1      23.985  31.535   1.025  1.00  0.00     0.219 HD
ENDBRANCH   9  11
BRANCH   9  13
HETATM   13  C9  UNL     1      26.257  30.798   3.372  1.00  0.00     0.089 A 
HETATM   14  C10 UNL     1      26.650  29.478   3.001  1.00  0.00     0.127 A 
HETATM   15  N4  UNL     1      27.705  29.181   3.781  1.00  0.00    -0.309 N 
HETATM   16  N5  UNL     1      28.007  30.156   4.581  1.00  0.00    -0.275 N 
ATOM     17  H4  UNL     1      28.207  28.293   3.748  1.00  0.00     0.186 HD
HETATM   18  C11 UNL     1      27.129  31.151   4.334  1.00  0.00     0.218 A 
ATOM     19  H5  UNL     1      28.763  30.169   5.265  1.00  0.00     0.189 HD
HETATM   20  F1  UNL     1      27.132  32.365   4.995  1.00  0.00    -0.184 F 
ENDBRANCH   9  13
ENDBRANCH   6   8
BRANCH   7  21
HETATM   21  N6  UNL     1      22.165  32.044   5.460  1.00  0.00    -0.380 N 
ATOM     22  H6  UNL     1      21.860  31.075   5.557  1.00  0.00     0.160 HD
BRANCH  21  23
HETATM   23  C13 UNL     1      22.691  32.866   6.556  1.00  0.00     0.082 A 
HETATM   24  C14 UNL     1      22.004  32.843   7.866  1.00  0.00     0.027 A 
HETATM   25  C15 UNL     1      22.190  34.142   7.011  1.00  0.00     0.027 A 
ENDBRANCH  21  23
ENDBRANCH   7  21
BRANCH   1  26
HETATM   26  N1  UNL     1      19.879  32.993   4.505  1.00  0.00    -0.364 N 
ATOM     27  H1  UNL     1      20.005  32.604   5.440  1.00  0.00     0.162 HD
BRANCH  26  28
HETATM   28  C3  UNL     1      18.581  33.059   3.982  1.00  0.00     0.135 C 
BRANCH  28  29
HETATM   29  C2  UNL     1      17.562  33.700   4.842  1.00  0.00     0.027 C 
HETATM   30  C1  UNL     1      17.980  34.460   6.032  1.00  0.00     0.007 C 
ENDBRANCH  28  29
BRANCH  28  31
HETATM   31  C16 UNL     1      18.092  31.779   3.349  1.00  0.00     0.064 A 
HETATM   32  N7  UNL     1      17.133  31.072   3.872  1.00  0.00    -0.360 N 
HETATM   33  C17 UNL     1      16.552  30.100   3.208  1.00  0.00     0.140 A 
ATOM     34  H7  UNL     1      16.824  31.279   4.822  1.00  0.00     0.165 HD
HETATM   35  S1  UNL     1      17.375  30.129   1.727  1.00  0.00    -0.068 SA
HETATM   36  C18 UNL     1      18.458  31.432   2.063  1.00  0.00     0.113 A 
HETATM   37  N8  UNL     1      19.531  31.891   1.243  1.00  0.00    -0.092 NA
ENDBRANCH  28  31
ENDBRANCH  26  28
ENDBRANCH   1  26
TORSDOF 9
ENDMDL
