MODEL 1
REMARK VINA RESULT: -9.090078221      0.000      0.000
REMARK  8 active torsions:
REMARK  status: ('A' for Active; 'I' for Inactive)
REMARK    1  A    between atoms: C2_2  and  O1_3 
REMARK    2  A    between atoms: N2_11  and  C6_12 
REMARK    3  A    between atoms: C7_15  and  S1_16 
REMARK    4  A    between atoms: S1_16  and  C8_17 
REMARK    5  A    between atoms: C8_17  and  N4_18 
REMARK    6  A    between atoms: C9_25  and  N8_26 
REMARK    7  A    between atoms: C10_31  and  N10_32 
REMARK    8  A    between atoms: C11_37  and  N12_38 
ROOT
HETATM    1  C6  UNL     1      15.471  17.709   8.179  1.00  0.00     0.152 C 
HETATM    2  N3  UNL     1      16.389  17.421   9.137  1.00  0.00    -0.319 N 
ATOM      3  H3  UNL     1      17.076  16.704   8.905  1.00  0.00     0.169 HD
HETATM    4  C7  UNL     1      16.497  17.994  10.395  1.00  0.00     0.166 C 
HETATM    5  N9  UNL     1      15.473  18.517  11.077  1.00  0.00    -0.170 N 
ATOM      6  H9  UNL     1      15.578  18.490  12.092  1.00  0.00     0.186 HD
HETATM    7  C10 UNL     1      14.312  19.081  10.637  1.00  0.00     0.679 C 
HETATM    8  N11 UNL     1      13.686  18.806   9.499  1.00  0.00    -0.173 N 
ATOM      9  H11 UNL     1      12.732  19.156   9.406  1.00  0.00     0.186 HD
HETATM   10  C11 UNL     1      14.183  18.111   8.449  1.00  0.00     0.159 C 
ENDROOT
BRANCH   4  11
HETATM   11  S1  UNL     1      18.096  18.041  11.088  1.00  0.00    -0.045 SA
BRANCH  11  12
HETATM   12  C8  UNL     1      18.409  19.071  12.493  1.00  0.00     0.189 C 
BRANCH  12  13
HETATM   13  N4  UNL     1      18.765  20.436  12.254  1.00  0.00    -0.074 N 
HETATM   14  N5  UNL     1      19.742  21.024  12.985  1.00  0.00    -0.206 N 
HETATM   15  N6  UNL     1      19.884  22.285  12.632  1.00  0.00    -0.213 N 
ATOM     16  H5  UNL     1      20.289  20.556  13.706  1.00  0.00     0.211 HD
HETATM   17  N7  UNL     1      19.025  22.570  11.676  1.00  0.00    -0.115 N 
ATOM     18  H6  UNL     1      20.554  22.939  13.036  1.00  0.00     0.210 HD
HETATM   19  C9  UNL     1      18.341  21.408  11.455  1.00  0.00     0.714 A 
ATOM     20  H7  UNL     1      18.897  23.464  11.203  1.00  0.00     0.207 HD
BRANCH  19  21
HETATM   21  N8  UNL     1      17.451  21.319  10.560  1.00  0.00    -0.231 N 
ATOM     22  H82 UNL     1      16.620  20.741  10.686  1.00  0.00     0.174 HD
ATOM     23  H81 UNL     1      17.432  21.809   9.666  1.00  0.00     0.174 HD
ENDBRANCH  19  21
ENDBRANCH  12  13
ENDBRANCH  11  12
ENDBRANCH   4  11
BRANCH   1  24
HETATM   24  N2  UNL     1      15.817  17.610   6.830  1.00  0.00    -0.330 N 
HETATM   25  C2  UNL     1      16.203  16.442   6.102  1.00  0.00     0.155 C 
HETATM   26  C1  UNL     1      15.390  15.210   6.494  1.00  0.00     0.073 C 
HETATM   27  C3  UNL     1      15.874  16.676   4.619  1.00  0.00     0.292 C 
HETATM   28  N1  UNL     1      16.680  17.754   4.087  1.00  0.00    -0.069 N 
HETATM   29  C4  UNL     1      16.894  18.811   5.043  1.00  0.00     0.252 C 
ATOM     30  H12 UNL     1      17.567  17.404   3.724  1.00  0.00     0.277 HD
ATOM     31  H11 UNL     1      16.281  18.119   3.222  1.00  0.00     0.277 HD
HETATM   32  C5  UNL     1      15.777  18.864   6.057  1.00  0.00     0.155 C 
BRANCH  25  33
HETATM   33  O1  UNL     1      17.531  16.113   6.143  1.00  0.00    -0.369 OA
ATOM     34  H1  UNL     1      18.037  16.882   5.910  1.00  0.00     0.212 HD
ENDBRANCH  25  33
ENDBRANCH   1  24
BRANCH   7  35
HETATM   35  N10 UNL     1      13.760  19.970  11.388  1.00  0.00    -0.234 N 
ATOM     36 2H10 UNL     1      14.123  20.044  12.338  1.00  0.00     0.174 HD
ATOM     37 1H10 UNL     1      13.007  20.528  10.984  1.00  0.00     0.174 HD
ENDBRANCH   7  35
BRANCH  10  38
HETATM   38  N12 UNL     1      13.306  17.783   7.586  1.00  0.00    -0.382 N 
ATOM     39 2H12 UNL     1      13.659  17.169   6.852  1.00  0.00     0.157 HD
ATOM     40 1H12 UNL     1      12.373  18.169   7.730  1.00  0.00     0.157 HD
ENDBRANCH  10  38
TORSDOF 8
ENDMDL
MODEL 2
REMARK VINA RESULT: -8.548695845      1.835      2.365
REMARK  8 active torsions:
REMARK  status: ('A' for Active; 'I' for Inactive)
REMARK    1  A    between atoms: C2_2  and  O1_3 
REMARK    2  A    between atoms: N2_11  and  C6_12 
REMARK    3  A    between atoms: C7_15  and  S1_16 
REMARK    4  A    between atoms: S1_16  and  C8_17 
REMARK    5  A    between atoms: C8_17  and  N4_18 
REMARK    6  A    between atoms: C9_25  and  N8_26 
REMARK    7  A    between atoms: C10_31  and  N10_32 
REMARK    8  A    between atoms: C11_37  and  N12_38 
ROOT
HETATM    1  C6  UNL     1      15.414  17.913   7.626  1.00  0.00     0.152 C 
HETATM    2  N3  UNL     1      16.452  17.635   8.453  1.00  0.00    -0.319 N 
ATOM      3  H3  UNL     1      17.167  17.007   8.086  1.00  0.00     0.169 HD
HETATM    4  C7  UNL     1      16.650  18.108   9.741  1.00  0.00     0.166 C 
HETATM    5  N9  UNL     1      15.668  18.474  10.570  1.00  0.00    -0.170 N 
ATOM      6  H9  UNL     1      15.885  18.372  11.562  1.00  0.00     0.186 HD
HETATM    7  C10 UNL     1      14.421  18.961  10.307  1.00  0.00     0.679 C 
HETATM    8  N11 UNL     1      13.698  18.724   9.218  1.00  0.00    -0.173 N 
ATOM      9  H11 UNL     1      12.714  18.989   9.256  1.00  0.00     0.186 HD
HETATM   10  C11 UNL     1      14.134  18.169   8.062  1.00  0.00     0.159 C 
ENDROOT
BRANCH   4  11
HETATM   11  S1  UNL     1      18.306  18.248  10.268  1.00  0.00    -0.045 SA
BRANCH  11  12
HETATM   12  C8  UNL     1      19.317  19.553   9.631  1.00  0.00     0.189 C 
BRANCH  12  13
HETATM   13  N4  UNL     1      18.728  20.458   8.692  1.00  0.00    -0.074 N 
HETATM   14  N5  UNL     1      17.923  21.459   9.122  1.00  0.00    -0.206 N 
HETATM   15  N6  UNL     1      17.459  22.146   8.099  1.00  0.00    -0.213 N 
ATOM     16  H5  UNL     1      17.708  21.653  10.099  1.00  0.00     0.211 HD
HETATM   17  N7  UNL     1      17.929  21.635   6.981  1.00  0.00    -0.115 N 
ATOM     18  H6  UNL     1      16.832  22.949   8.163  1.00  0.00     0.210 HD
HETATM   19  C9  UNL     1      18.716  20.589   7.371  1.00  0.00     0.714 A 
ATOM     20  H7  UNL     1      17.745  21.952   6.029  1.00  0.00     0.207 HD
BRANCH  19  21
HETATM   21  N8  UNL     1      19.359  19.891   6.534  1.00  0.00    -0.231 N 
ATOM     22  H82 UNL     1      20.237  19.434   6.780  1.00  0.00     0.174 HD
ATOM     23  H81 UNL     1      19.084  19.680   5.575  1.00  0.00     0.174 HD
ENDBRANCH  19  21
ENDBRANCH  12  13
ENDBRANCH  11  12
ENDBRANCH   4  11
BRANCH   1  24
HETATM   24  N2  UNL     1      15.615  17.960   6.244  1.00  0.00    -0.330 N 
HETATM   25  C2  UNL     1      15.933  16.880   5.363  1.00  0.00     0.155 C 
HETATM   26  C1  UNL     1      15.179  15.598   5.708  1.00  0.00     0.073 C 
HETATM   27  C3  UNL     1      15.446  17.258   3.955  1.00  0.00     0.292 C 
HETATM   28  N1  UNL     1      16.181  18.402   3.456  1.00  0.00    -0.069 N 
HETATM   29  C4  UNL     1      16.483  19.359   4.489  1.00  0.00     0.252 C 
ATOM     30  H12 UNL     1      17.027  18.109   2.968  1.00  0.00     0.277 HD
ATOM     31  H11 UNL     1      15.688  18.844   2.680  1.00  0.00     0.277 HD
HETATM   32  C5  UNL     1      15.480  19.285   5.614  1.00  0.00     0.155 C 
BRANCH  25  33
HETATM   33  O1  UNL     1      17.262  16.577   5.231  1.00  0.00    -0.369 OA
ATOM     34  H1  UNL     1      17.609  17.067   4.495  1.00  0.00     0.212 HD
ENDBRANCH  25  33
ENDBRANCH   1  24
BRANCH   7  35
HETATM   35  N10 UNL     1      13.882  19.729  11.189  1.00  0.00    -0.234 N 
ATOM     36 2H10 UNL     1      12.913  19.524  11.430  1.00  0.00     0.174 HD
ATOM     37 1H10 UNL     1      14.456  20.478  11.577  1.00  0.00     0.174 HD
ENDBRANCH   7  35
BRANCH  10  38
HETATM   38  N12 UNL     1      13.198  17.832   7.268  1.00  0.00    -0.382 N 
ATOM     39 2H12 UNL     1      13.328  16.915   6.840  1.00  0.00     0.157 HD
ATOM     40 1H12 UNL     1      12.443  18.510   7.154  1.00  0.00     0.157 HD
ENDBRANCH  10  38
TORSDOF 8
ENDMDL
MODEL 3
REMARK VINA RESULT: -8.502476542      2.017      3.248
REMARK  8 active torsions:
REMARK  status: ('A' for Active; 'I' for Inactive)
REMARK    1  A    between atoms: C2_2  and  O1_3 
REMARK    2  A    between atoms: N2_11  and  C6_12 
REMARK    3  A    between atoms: C7_15  and  S1_16 
REMARK    4  A    between atoms: S1_16  and  C8_17 
REMARK    5  A    between atoms: C8_17  and  N4_18 
REMARK    6  A    between atoms: C9_25  and  N8_26 
REMARK    7  A    between atoms: C10_31  and  N10_32 
REMARK    8  A    between atoms: C11_37  and  N12_38 
ROOT
HETATM    1  C6  UNL     1      15.944  18.893   6.937  1.00  0.00     0.152 C 
HETATM    2  N3  UNL     1      15.627  19.380   8.164  1.00  0.00    -0.319 N 
ATOM      3  H3  UNL     1      14.826  18.951   8.628  1.00  0.00     0.169 HD
HETATM    4  C7  UNL     1      16.271  20.394   8.856  1.00  0.00     0.166 C 
HETATM    5  N9  UNL     1      16.945  21.393   8.278  1.00  0.00    -0.170 N 
ATOM      6  H9  UNL     1      16.978  22.257   8.819  1.00  0.00     0.186 HD
HETATM    7  C10 UNL     1      17.598  21.445   7.081  1.00  0.00     0.679 C 
HETATM    8  N11 UNL     1      17.313  20.730   5.998  1.00  0.00    -0.173 N 
ATOM      9  H11 UNL     1      17.755  21.024   5.127  1.00  0.00     0.186 HD
HETATM   10  C11 UNL     1      16.498  19.651   5.932  1.00  0.00     0.159 C 
ENDROOT
BRANCH   4  11
HETATM   11  S1  UNL     1      16.196  20.311  10.595  1.00  0.00    -0.045 SA
BRANCH  11  12
HETATM   12  C8  UNL     1      17.647  19.882  11.513  1.00  0.00     0.189 C 
BRANCH  12  13
HETATM   13  N4  UNL     1      18.541  20.938  11.880  1.00  0.00    -0.074 N 
HETATM   14  N5  UNL     1      18.332  22.197  11.429  1.00  0.00    -0.206 N 
HETATM   15  N6  UNL     1      19.286  23.001  11.851  1.00  0.00    -0.213 N 
ATOM     16  H5  UNL     1      17.547  22.482  10.845  1.00  0.00     0.211 HD
HETATM   17  N7  UNL     1      20.142  22.316  12.580  1.00  0.00    -0.115 N 
ATOM     18  H6  UNL     1      19.352  23.997  11.645  1.00  0.00     0.210 HD
HETATM   19  C9  UNL     1      19.661  21.038  12.587  1.00  0.00     0.714 A 
ATOM     20  H7  UNL     1      20.983  22.664  13.041  1.00  0.00     0.207 HD
BRANCH  19  21
HETATM   21  N8  UNL     1      20.233  20.114  13.236  1.00  0.00    -0.231 N 
ATOM     22  H82 UNL     1      19.823  19.721  14.083  1.00  0.00     0.174 HD
ATOM     23  H81 UNL     1      21.107  19.648  12.994  1.00  0.00     0.174 HD
ENDBRANCH  19  21
ENDBRANCH  12  13
ENDBRANCH  11  12
ENDBRANCH   4  11
BRANCH   1  24
HETATM   24  N2  UNL     1      15.716  17.547   6.641  1.00  0.00    -0.330 N 
HETATM   25  C2  UNL     1      16.652  16.467   6.674  1.00  0.00     0.155 C 
HETATM   26  C1  UNL     1      17.610  16.554   7.860  1.00  0.00     0.073 C 
HETATM   27  C3  UNL     1      15.866  15.165   6.896  1.00  0.00     0.292 C 
HETATM   28  N1  UNL     1      14.999  14.899   5.768  1.00  0.00    -0.069 N 
HETATM   29  C4  UNL     1      14.430  16.100   5.211  1.00  0.00     0.252 C 
ATOM     30  H12 UNL     1      15.484  14.357   5.052  1.00  0.00     0.277 HD
ATOM     31  H11 UNL     1      14.270  14.229   6.015  1.00  0.00     0.277 HD
HETATM   32  C5  UNL     1      14.341  17.194   6.246  1.00  0.00     0.155 C 
BRANCH  25  33
HETATM   33  O1  UNL     1      17.390  16.269   5.537  1.00  0.00    -0.369 OA
ATOM     34  H1  UNL     1      16.792  16.147   4.810  1.00  0.00     0.212 HD
ENDBRANCH  25  33
ENDBRANCH   1  24
BRANCH   7  35
HETATM   35  N10 UNL     1      18.591  22.259   6.978  1.00  0.00    -0.234 N 
ATOM     36 2H10 UNL     1      18.422  23.106   6.437  1.00  0.00     0.174 HD
ATOM     37 1H10 UNL     1      19.464  21.999   7.438  1.00  0.00     0.174 HD
ENDBRANCH   7  35
BRANCH  10  38
HETATM   38  N12 UNL     1      16.206  19.299   4.744  1.00  0.00    -0.382 N 
ATOM     39 2H12 UNL     1      16.099  20.079   4.096  1.00  0.00     0.157 HD
ATOM     40 1H12 UNL     1      16.113  18.295   4.586  1.00  0.00     0.157 HD
ENDBRANCH  10  38
TORSDOF 8
ENDMDL
MODEL 4
REMARK VINA RESULT: -8.486713326      1.355      2.207
REMARK  8 active torsions:
REMARK  status: ('A' for Active; 'I' for Inactive)
REMARK    1  A    between atoms: C2_2  and  O1_3 
REMARK    2  A    between atoms: N2_11  and  C6_12 
REMARK    3  A    between atoms: C7_15  and  S1_16 
REMARK    4  A    between atoms: S1_16  and  C8_17 
REMARK    5  A    between atoms: C8_17  and  N4_18 
REMARK    6  A    between atoms: C9_25  and  N8_26 
REMARK    7  A    between atoms: C10_31  and  N10_32 
REMARK    8  A    between atoms: C11_37  and  N12_38 
ROOT
HETATM    1  C6  UNL     1      15.637  18.077   8.344  1.00  0.00     0.152 C 
HETATM    2  N3  UNL     1      16.597  17.979   9.298  1.00  0.00    -0.319 N 
ATOM      3  H3  UNL     1      17.374  17.351   9.096  1.00  0.00     0.169 HD
HETATM    4  C7  UNL     1      16.639  18.639  10.517  1.00  0.00     0.166 C 
HETATM    5  N9  UNL     1      15.560  19.057  11.187  1.00  0.00    -0.170 N 
ATOM      6  H9  UNL     1      15.679  19.108  12.199  1.00  0.00     0.186 HD
HETATM    7  C10 UNL     1      14.326  19.426  10.738  1.00  0.00     0.679 C 
HETATM    8  N11 UNL     1      13.731  18.997   9.631  1.00  0.00    -0.173 N 
ATOM      9  H11 UNL     1      12.737  19.204   9.536  1.00  0.00     0.186 HD
HETATM   10  C11 UNL     1      14.309  18.313   8.614  1.00  0.00     0.159 C 
ENDROOT
BRANCH   4  11
HETATM   11  S1  UNL     1      18.223  18.951  11.173  1.00  0.00    -0.045 SA
BRANCH  11  12
HETATM   12  C8  UNL     1      19.391  19.887  10.228  1.00  0.00     0.189 C 
BRANCH  12  13
HETATM   13  N4  UNL     1      19.419  21.305  10.417  1.00  0.00    -0.074 N 
HETATM   14  N5  UNL     1      19.153  22.136   9.382  1.00  0.00    -0.206 N 
HETATM   15  N6  UNL     1      19.269  23.392   9.759  1.00  0.00    -0.213 N 
ATOM     16  H5  UNL     1      18.898  21.831   8.443  1.00  0.00     0.211 HD
HETATM   17  N7  UNL     1      19.610  23.436  11.030  1.00  0.00    -0.115 N 
ATOM     18  H6  UNL     1      19.119  24.204   9.160  1.00  0.00     0.210 HD
HETATM   19  C9  UNL     1      19.696  22.130  11.420  1.00  0.00     0.714 A 
ATOM     20  H7  UNL     1      19.773  24.265  11.600  1.00  0.00     0.207 HD
BRANCH  19  21
HETATM   21  N8  UNL     1      19.973  21.807  12.611  1.00  0.00    -0.231 N 
ATOM     22  H82 UNL     1      20.049  20.832  12.900  1.00  0.00     0.174 HD
ATOM     23  H81 UNL     1      20.176  22.441  13.385  1.00  0.00     0.174 HD
ENDBRANCH  19  21
ENDBRANCH  12  13
ENDBRANCH  11  12
ENDBRANCH   4  11
BRANCH   1  24
HETATM   24  N2  UNL     1      15.977  17.943   6.996  1.00  0.00    -0.330 N 
HETATM   25  C2  UNL     1      16.001  18.957   5.988  1.00  0.00     0.155 C 
HETATM   26  C1  UNL     1      16.547  20.287   6.504  1.00  0.00     0.073 C 
HETATM   27  C3  UNL     1      16.992  18.520   4.898  1.00  0.00     0.292 C 
HETATM   28  N1  UNL     1      16.521  17.321   4.238  1.00  0.00    -0.069 N 
HETATM   29  C4  UNL     1      15.863  16.412   5.142  1.00  0.00     0.252 C 
ATOM     30  H12 UNL     1      15.919  17.550   3.447  1.00  0.00     0.277 HD
ATOM     31  H11 UNL     1      17.278  16.855   3.738  1.00  0.00     0.277 HD
HETATM   32  C5  UNL     1      16.362  16.591   6.555  1.00  0.00     0.155 C 
BRANCH  25  33
HETATM   33  O1  UNL     1      14.817  19.198   5.343  1.00  0.00    -0.369 OA
ATOM     34  H1  UNL     1      14.737  18.581   4.625  1.00  0.00     0.212 HD
ENDBRANCH  25  33
ENDBRANCH   1  24
BRANCH   7  35
HETATM   35  N10 UNL     1      13.664  20.275  11.444  1.00  0.00    -0.234 N 
ATOM     36 2H10 UNL     1      13.819  21.259  11.224  1.00  0.00     0.174 HD
ATOM     37 1H10 UNL     1      13.043  19.908  12.165  1.00  0.00     0.174 HD
ENDBRANCH   7  35
BRANCH  10  38
HETATM   38  N12 UNL     1      13.476  17.812   7.791  1.00  0.00    -0.382 N 
ATOM     39 2H12 UNL     1      12.658  17.395   8.235  1.00  0.00     0.157 HD
ATOM     40 1H12 UNL     1      13.725  17.887   6.805  1.00  0.00     0.157 HD
ENDBRANCH  10  38
TORSDOF 8
ENDMDL
MODEL 5
REMARK VINA RESULT: -8.440722195      2.623      4.619
REMARK  8 active torsions:
REMARK  status: ('A' for Active; 'I' for Inactive)
REMARK    1  A    between atoms: C2_2  and  O1_3 
REMARK    2  A    between atoms: N2_11  and  C6_12 
REMARK    3  A    between atoms: C7_15  and  S1_16 
REMARK    4  A    between atoms: S1_16  and  C8_17 
REMARK    5  A    between atoms: C8_17  and  N4_18 
REMARK    6  A    between atoms: C9_25  and  N8_26 
REMARK    7  A    between atoms: C10_31  and  N10_32 
REMARK    8  A    between atoms: C11_37  and  N12_38 
ROOT
HETATM    1  C6  UNL     1      16.108  19.415   6.373  1.00  0.00     0.152 C 
HETATM    2  N3  UNL     1      15.935  19.879   7.636  1.00  0.00    -0.319 N 
ATOM      3  H3  UNL     1      15.120  19.530   8.140  1.00  0.00     0.169 HD
HETATM    4  C7  UNL     1      16.744  20.776   8.319  1.00  0.00     0.166 C 
HETATM    5  N9  UNL     1      17.497  21.711   7.733  1.00  0.00    -0.170 N 
ATOM      6  H9  UNL     1      17.672  22.539   8.303  1.00  0.00     0.186 HD
HETATM    7  C10 UNL     1      18.071  21.738   6.496  1.00  0.00     0.679 C 
HETATM    8  N11 UNL     1      17.630  21.114   5.410  1.00  0.00    -0.173 N 
ATOM      9  H11 UNL     1      18.047  21.393   4.521  1.00  0.00     0.186 HD
HETATM   10  C11 UNL     1      16.685  20.146   5.360  1.00  0.00     0.159 C 
ENDROOT
BRANCH   4  11
HETATM   11  S1  UNL     1      16.773  20.622  10.055  1.00  0.00    -0.045 SA
BRANCH  11  12
HETATM   12  C8  UNL     1      16.472  19.044  10.798  1.00  0.00     0.189 C 
BRANCH  12  13
HETATM   13  N4  UNL     1      15.212  18.415  10.542  1.00  0.00    -0.074 N 
HETATM   14  N5  UNL     1      15.161  17.234   9.881  1.00  0.00    -0.206 N 
HETATM   15  N6  UNL     1      13.912  16.852   9.719  1.00  0.00    -0.213 N 
ATOM     16  H5  UNL     1      15.976  16.715   9.556  1.00  0.00     0.211 HD
HETATM   17  N7  UNL     1      13.109  17.747  10.254  1.00  0.00    -0.115 N 
ATOM     18  H6  UNL     1      13.613  15.996   9.251  1.00  0.00     0.210 HD
HETATM   19  C9  UNL     1      13.936  18.709  10.761  1.00  0.00     0.714 A 
ATOM     20  H7  UNL     1      12.090  17.727  10.285  1.00  0.00     0.207 HD
BRANCH  19  21
HETATM   21  N8  UNL     1      13.486  19.713  11.385  1.00  0.00    -0.231 N 
ATOM     22  H82 UNL     1      14.008  20.151  12.144  1.00  0.00     0.174 HD
ATOM     23  H81 UNL     1      12.612  20.205  11.202  1.00  0.00     0.174 HD
ENDBRANCH  19  21
ENDBRANCH  12  13
ENDBRANCH  11  12
ENDBRANCH   4  11
BRANCH   1  24
HETATM   24  N2  UNL     1      15.696  18.122   6.043  1.00  0.00    -0.330 N 
HETATM   25  C2  UNL     1      16.483  16.928   6.007  1.00  0.00     0.155 C 
HETATM   26  C1  UNL     1      17.483  16.848   7.159  1.00  0.00     0.073 C 
HETATM   27  C3  UNL     1      15.542  15.732   6.217  1.00  0.00     0.292 C 
HETATM   28  N1  UNL     1      14.610  15.622   5.114  1.00  0.00    -0.069 N 
HETATM   29  C4  UNL     1      14.186  16.906   4.617  1.00  0.00     0.252 C 
ATOM     30  H12 UNL     1      14.996  15.048   4.364  1.00  0.00     0.277 HD
ATOM     31  H11 UNL     1      13.809  15.044   5.367  1.00  0.00     0.277 HD
HETATM   32  C5  UNL     1      14.275  17.964   5.689  1.00  0.00     0.155 C 
BRANCH  25  33
HETATM   33  O1  UNL     1      17.152  16.678   4.838  1.00  0.00    -0.369 OA
ATOM     34  H1  UNL     1      16.604  16.959   4.115  1.00  0.00     0.212 HD
ENDBRANCH  25  33
ENDBRANCH   1  24
BRANCH   7  35
HETATM   35  N10 UNL     1      19.149  22.430   6.354  1.00  0.00    -0.234 N 
ATOM     36 2H10 UNL     1      20.024  21.909   6.385  1.00  0.00     0.174 HD
ATOM     37 1H10 UNL     1      19.050  23.437   6.225  1.00  0.00     0.174 HD
ENDBRANCH   7  35
BRANCH  10  38
HETATM   38  N12 UNL     1      16.274  19.887   4.183  1.00  0.00    -0.382 N 
ATOM     39 2H12 UNL     1      15.296  20.130   4.025  1.00  0.00     0.157 HD
ATOM     40 1H12 UNL     1      16.960  19.471   3.553  1.00  0.00     0.157 HD
ENDBRANCH  10  38
TORSDOF 8
ENDMDL
