MODEL 1
REMARK VINA RESULT: -6.734645825      0.000      0.000
REMARK  11 active torsions:
REMARK  status: ('A' for Active; 'I' for Inactive)
REMARK    1  A    between atoms: C4_12  and  C5_13 
REMARK    2  A    between atoms: C5_13  and  O1_14 
REMARK    3  A    between atoms: C5_13  and  O2_16 
REMARK    4  A    between atoms: N4_18  and  O3_19 
REMARK    5  A    between atoms: O3_19  and  C6_20 
REMARK    6  A    between atoms: C6_20  and  C7_21 
REMARK    7  A    between atoms: C7_21  and  O4_22 
REMARK    8  A    between atoms: C7_21  and  C8_24 
REMARK    9  A    between atoms: C8_24  and  O5_25 
REMARK   10  A    between atoms: C8_24  and  C9_27 
REMARK   11  A    between atoms: C9_27  and  C10_28 
ROOT
HETATM    1  N1  UNL     1      39.826  27.451  20.065  1.00  0.00    -0.233 N 
ATOM      2  H11 UNL     1      40.839  27.567  20.027  1.00  0.00     0.174 HD
ATOM      3  H12 UNL     1      39.285  26.586  20.054  1.00  0.00     0.174 HD
HETATM    4  C1  UNL     1      39.108  28.536  20.138  1.00  0.00     0.696 C 
HETATM    5  N2  UNL     1      37.696  28.375  20.191  1.00  0.00    -0.223 N 
ATOM      6  H2  UNL     1      37.372  27.410  20.131  1.00  0.00     0.177 HD
HETATM    7  C2  UNL     1      36.644  29.364  20.317  1.00  0.00     0.165 C 
HETATM    8  C3  UNL     1      37.183  30.768  20.382  1.00  0.00     0.255 C 
HETATM    9  N3  UNL     1      38.231  30.946  21.339  1.00  0.00    -0.045 N 
ATOM     10  H31 UNL     1      38.207  30.216  22.051  1.00  0.00     0.280 HD
ATOM     11  H32 UNL     1      38.054  31.758  21.931  1.00  0.00     0.280 HD
HETATM   12  C4  UNL     1      39.545  31.027  20.711  1.00  0.00     0.385 C 
HETATM   13  N4  UNL     1      39.861  29.740  20.153  1.00  0.00    -0.051 N 
ENDROOT
BRANCH  13  14
HETATM   14  O3  UNL     1      41.063  29.642  19.543  1.00  0.00    -0.260 OA
BRANCH  14  15
HETATM   15  C6  UNL     1      40.891  30.251  18.280  1.00  0.00     0.236 C 
BRANCH  15  16
HETATM   16  C7  UNL     1      42.034  29.855  17.396  1.00  0.00     0.173 C 
BRANCH  16  17
HETATM   17  O4  UNL     1      42.493  30.947  16.682  1.00  0.00    -0.391 OA
ATOM     18  H4  UNL     1      43.130  30.674  16.031  1.00  0.00     0.210 HD
ENDBRANCH  16  17
BRANCH  16  19
HETATM   19  C8  UNL     1      41.668  28.766  16.409  1.00  0.00     0.149 C 
BRANCH  19  20
HETATM   20  O5  UNL     1      40.996  27.789  17.135  1.00  0.00    -0.393 OA
ATOM     21  H5  UNL     1      41.108  26.977  16.656  1.00  0.00     0.210 HD
ENDBRANCH  19  20
BRANCH  19  22
HETATM   22  C9  UNL     1      42.930  28.269  15.777  1.00  0.00     0.039 C 
BRANCH  22  23
HETATM   23  C10 UNL     1      42.778  27.722  14.400  1.00  0.00    -0.012 A 
HETATM   24  C11 UNL     1      43.879  27.768  13.396  1.00  0.00     0.005 A 
HETATM   25  C12 UNL     1      43.411  26.464  13.957  1.00  0.00     0.005 A 
ENDBRANCH  22  23
ENDBRANCH  19  22
ENDBRANCH  16  19
ENDBRANCH  15  16
ENDBRANCH  14  15
ENDBRANCH  13  14
BRANCH  12  26
HETATM   26  C5  UNL     1      40.612  31.412  21.683  1.00  0.00     0.307 C 
BRANCH  26  27
HETATM   27  O1  UNL     1      41.678  32.071  21.098  1.00  0.00    -0.368 OA
ATOM     28  H1  UNL     1      42.483  31.567  21.102  1.00  0.00     0.212 HD
ENDBRANCH  26  27
BRANCH  26  29
HETATM   29  O2  UNL     1      41.083  30.250  22.287  1.00  0.00    -0.368 OA
ATOM     30  H2  UNL     1      40.632  30.148  23.117  1.00  0.00     0.212 HD
ENDBRANCH  26  29
ENDBRANCH  12  26
TORSDOF 11
ENDMDL
MODEL 2
REMARK VINA RESULT: -6.522765427      1.828      2.554
REMARK  11 active torsions:
REMARK  status: ('A' for Active; 'I' for Inactive)
REMARK    1  A    between atoms: C4_12  and  C5_13 
REMARK    2  A    between atoms: C5_13  and  O1_14 
REMARK    3  A    between atoms: C5_13  and  O2_16 
REMARK    4  A    between atoms: N4_18  and  O3_19 
REMARK    5  A    between atoms: O3_19  and  C6_20 
REMARK    6  A    between atoms: C6_20  and  C7_21 
REMARK    7  A    between atoms: C7_21  and  O4_22 
REMARK    8  A    between atoms: C7_21  and  C8_24 
REMARK    9  A    between atoms: C8_24  and  O5_25 
REMARK   10  A    between atoms: C8_24  and  C9_27 
REMARK   11  A    between atoms: C9_27  and  C10_28 
ROOT
HETATM    1  N1  UNL     1      39.808  27.651  19.033  1.00  0.00    -0.233 N 
ATOM      2  H11 UNL     1      40.576  27.131  18.609  1.00  0.00     0.174 HD
ATOM      3  H12 UNL     1      38.826  27.385  19.109  1.00  0.00     0.174 HD
HETATM    4  C1  UNL     1      40.095  28.812  19.553  1.00  0.00     0.696 C 
HETATM    5  N2  UNL     1      39.024  29.538  20.144  1.00  0.00    -0.223 N 
ATOM      6  H2  UNL     1      38.111  29.090  20.073  1.00  0.00     0.177 HD
HETATM    7  C2  UNL     1      39.025  30.814  20.831  1.00  0.00     0.165 C 
HETATM    8  C3  UNL     1      40.396  31.434  20.887  1.00  0.00     0.255 C 
HETATM    9  N3  UNL     1      41.416  30.550  21.356  1.00  0.00    -0.045 N 
ATOM     10  H31 UNL     1      41.018  29.782  21.898  1.00  0.00     0.280 HD
ATOM     11  H32 UNL     1      41.978  30.990  22.085  1.00  0.00     0.280 HD
HETATM   12  C4  UNL     1      42.256  30.050  20.273  1.00  0.00     0.385 C 
HETATM   13  N4  UNL     1      41.462  29.182  19.447  1.00  0.00    -0.051 N 
ENDROOT
BRANCH  13  14
HETATM   14  O3  UNL     1      42.102  28.620  18.397  1.00  0.00    -0.260 OA
BRANCH  14  15
HETATM   15  C6  UNL     1      42.058  29.589  17.371  1.00  0.00     0.236 C 
BRANCH  15  16
HETATM   16  C7  UNL     1      41.804  28.896  16.067  1.00  0.00     0.173 C 
BRANCH  16  17
HETATM   17  O4  UNL     1      40.656  28.126  16.145  1.00  0.00    -0.391 OA
ATOM     18  H4  UNL     1      40.310  27.957  15.276  1.00  0.00     0.210 HD
ENDBRANCH  16  17
BRANCH  16  19
HETATM   19  C8  UNL     1      42.946  27.997  15.642  1.00  0.00     0.149 C 
BRANCH  19  20
HETATM   20  O5  UNL     1      44.113  28.618  16.071  1.00  0.00    -0.393 OA
ATOM     21  H5  UNL     1      44.701  27.924  16.344  1.00  0.00     0.210 HD
ENDBRANCH  19  20
BRANCH  19  22
HETATM   22  C9  UNL     1      42.878  27.830  14.157  1.00  0.00     0.039 C 
BRANCH  22  23
HETATM   23  C10 UNL     1      43.795  26.803  13.591  1.00  0.00    -0.012 A 
HETATM   24  C11 UNL     1      43.505  25.342  13.668  1.00  0.00     0.005 A 
HETATM   25  C12 UNL     1      43.502  26.053  12.353  1.00  0.00     0.005 A 
ENDBRANCH  22  23
ENDBRANCH  19  22
ENDBRANCH  16  19
ENDBRANCH  15  16
ENDBRANCH  14  15
ENDBRANCH  13  14
BRANCH  12  26
HETATM   26  C5  UNL     1      43.439  29.292  20.780  1.00  0.00     0.307 C 
BRANCH  26  27
HETATM   27  O1  UNL     1      44.500  29.270  19.894  1.00  0.00    -0.368 OA
ATOM     28  H1  UNL     1      45.319  28.997  20.290  1.00  0.00     0.212 HD
ENDBRANCH  26  27
BRANCH  26  29
HETATM   29  O2  UNL     1      43.037  27.982  21.027  1.00  0.00    -0.368 OA
ATOM     30  H2  UNL     1      43.796  27.419  20.930  1.00  0.00     0.212 HD
ENDBRANCH  26  29
ENDBRANCH  12  26
TORSDOF 11
ENDMDL
MODEL 3
REMARK VINA RESULT: -6.516880877      1.475      2.159
REMARK  11 active torsions:
REMARK  status: ('A' for Active; 'I' for Inactive)
REMARK    1  A    between atoms: C4_12  and  C5_13 
REMARK    2  A    between atoms: C5_13  and  O1_14 
REMARK    3  A    between atoms: C5_13  and  O2_16 
REMARK    4  A    between atoms: N4_18  and  O3_19 
REMARK    5  A    between atoms: O3_19  and  C6_20 
REMARK    6  A    between atoms: C6_20  and  C7_21 
REMARK    7  A    between atoms: C7_21  and  O4_22 
REMARK    8  A    between atoms: C7_21  and  C8_24 
REMARK    9  A    between atoms: C8_24  and  O5_25 
REMARK   10  A    between atoms: C8_24  and  C9_27 
REMARK   11  A    between atoms: C9_27  and  C10_28 
ROOT
HETATM    1  N1  UNL     1      37.734  29.707  19.418  1.00  0.00    -0.233 N 
ATOM      2  H11 UNL     1      38.089  28.936  18.852  1.00  0.00     0.174 HD
ATOM      3  H12 UNL     1      36.774  30.043  19.501  1.00  0.00     0.174 HD
HETATM    4  C1  UNL     1      38.601  30.363  20.136  1.00  0.00     0.696 C 
HETATM    5  N2  UNL     1      38.105  31.438  20.925  1.00  0.00    -0.223 N 
ATOM      6  H2  UNL     1      37.106  31.619  20.825  1.00  0.00     0.177 HD
HETATM    7  C2  UNL     1      38.793  32.318  21.848  1.00  0.00     0.165 C 
HETATM    8  C3  UNL     1      40.265  32.014  21.939  1.00  0.00     0.255 C 
HETATM    9  N3  UNL     1      40.563  30.633  22.160  1.00  0.00    -0.045 N 
ATOM     10  H31 UNL     1      39.764  30.144  22.564  1.00  0.00     0.280 HD
ATOM     11  H32 UNL     1      41.228  30.518  22.925  1.00  0.00     0.280 HD
HETATM   12  C4  UNL     1      41.030  29.968  20.949  1.00  0.00     0.385 C 
HETATM   13  N4  UNL     1      39.937  29.895  20.020  1.00  0.00    -0.051 N 
ENDROOT
BRANCH  13  14
HETATM   14  O3  UNL     1      40.203  29.288  18.842  1.00  0.00    -0.260 OA
BRANCH  14  15
HETATM   15  C6  UNL     1      40.710  30.305  18.004  1.00  0.00     0.236 C 
BRANCH  15  16
HETATM   16  C7  UNL     1      41.975  29.816  17.367  1.00  0.00     0.173 C 
BRANCH  16  17
HETATM   17  O4  UNL     1      42.609  30.848  16.697  1.00  0.00    -0.391 OA
ATOM     18  H4  UNL     1      42.223  30.970  15.836  1.00  0.00     0.210 HD
ENDBRANCH  16  17
BRANCH  16  19
HETATM   19  C8  UNL     1      41.745  28.687  16.383  1.00  0.00     0.149 C 
BRANCH  19  20
HETATM   20  O5  UNL     1      41.402  27.573  17.141  1.00  0.00    -0.393 OA
ATOM     21  H5  UNL     1      41.658  26.814  16.630  1.00  0.00     0.210 HD
ENDBRANCH  19  20
BRANCH  19  22
HETATM   22  C9  UNL     1      43.000  28.499  15.591  1.00  0.00     0.039 C 
BRANCH  22  23
HETATM   23  C10 UNL     1      42.823  27.829  14.273  1.00  0.00    -0.012 A 
HETATM   24  C11 UNL     1      43.899  27.796  13.242  1.00  0.00     0.005 A 
HETATM   25  C12 UNL     1      43.463  26.543  13.929  1.00  0.00     0.005 A 
ENDBRANCH  22  23
ENDBRANCH  19  22
ENDBRANCH  16  19
ENDBRANCH  15  16
ENDBRANCH  14  15
ENDBRANCH  13  14
BRANCH  12  26
HETATM   26  C5  UNL     1      41.531  28.586  21.222  1.00  0.00     0.307 C 
BRANCH  26  27
HETATM   27  O1  UNL     1      42.199  28.022  20.151  1.00  0.00    -0.368 OA
ATOM     28  H1  UNL     1      42.859  28.593  19.774  1.00  0.00     0.212 HD
ENDBRANCH  26  27
BRANCH  26  29
HETATM   29  O2  UNL     1      40.435  27.787  21.536  1.00  0.00    -0.368 OA
ATOM     30  H2  UNL     1      40.574  26.932  21.144  1.00  0.00     0.212 HD
ENDBRANCH  26  29
ENDBRANCH  12  26
TORSDOF 11
ENDMDL
MODEL 4
REMARK VINA RESULT: -6.479377352      1.988      2.588
REMARK  11 active torsions:
REMARK  status: ('A' for Active; 'I' for Inactive)
REMARK    1  A    between atoms: C4_12  and  C5_13 
REMARK    2  A    between atoms: C5_13  and  O1_14 
REMARK    3  A    between atoms: C5_13  and  O2_16 
REMARK    4  A    between atoms: N4_18  and  O3_19 
REMARK    5  A    between atoms: O3_19  and  C6_20 
REMARK    6  A    between atoms: C6_20  and  C7_21 
REMARK    7  A    between atoms: C7_21  and  O4_22 
REMARK    8  A    between atoms: C7_21  and  C8_24 
REMARK    9  A    between atoms: C8_24  and  O5_25 
REMARK   10  A    between atoms: C8_24  and  C9_27 
REMARK   11  A    between atoms: C9_27  and  C10_28 
ROOT
HETATM    1  N1  UNL     1      42.203  28.007  20.585  1.00  0.00    -0.233 N 
ATOM      2  H11 UNL     1      42.870  28.496  19.987  1.00  0.00     0.174 HD
ATOM      3  H12 UNL     1      42.381  27.494  21.448  1.00  0.00     0.174 HD
HETATM    4  C1  UNL     1      40.953  28.026  20.216  1.00  0.00     0.696 C 
HETATM    5  N2  UNL     1      40.023  27.344  21.049  1.00  0.00    -0.223 N 
ATOM      6  H2  UNL     1      40.434  26.867  21.851  1.00  0.00     0.177 HD
HETATM    7  C2  UNL     1      38.583  27.220  20.940  1.00  0.00     0.165 C 
HETATM    8  C3  UNL     1      38.037  27.928  19.728  1.00  0.00     0.255 C 
HETATM    9  N3  UNL     1      38.491  29.276  19.589  1.00  0.00    -0.045 N 
ATOM     10  H31 UNL     1      38.813  29.651  20.482  1.00  0.00     0.280 HD
ATOM     11  H32 UNL     1      37.711  29.911  19.417  1.00  0.00     0.280 HD
HETATM   12  C4  UNL     1      39.517  29.411  18.561  1.00  0.00     0.385 C 
HETATM   13  N4  UNL     1      40.704  28.740  19.014  1.00  0.00    -0.051 N 
ENDROOT
BRANCH  13  14
HETATM   14  O3  UNL     1      41.763  28.785  18.175  1.00  0.00    -0.260 OA
BRANCH  14  15
HETATM   15  C6  UNL     1      41.284  28.288  16.943  1.00  0.00     0.236 C 
BRANCH  15  16
HETATM   16  C7  UNL     1      42.267  28.640  15.868  1.00  0.00     0.173 C 
BRANCH  16  17
HETATM   17  O4  UNL     1      41.893  29.814  15.238  1.00  0.00    -0.391 OA
ATOM     18  H4  UNL     1      42.246  30.566  15.700  1.00  0.00     0.210 HD
ENDBRANCH  16  17
BRANCH  16  19
HETATM   19  C8  UNL     1      42.403  27.562  14.814  1.00  0.00     0.149 C 
BRANCH  19  20
HETATM   20  O5  UNL     1      43.087  26.511  15.415  1.00  0.00    -0.393 OA
ATOM     21  H5  UNL     1      42.876  25.733  14.913  1.00  0.00     0.210 HD
ENDBRANCH  19  20
BRANCH  19  22
HETATM   22  C9  UNL     1      43.129  28.146  13.643  1.00  0.00     0.039 C 
BRANCH  22  23
HETATM   23  C10 UNL     1      42.559  27.807  12.310  1.00  0.00    -0.012 A 
HETATM   24  C11 UNL     1      43.092  26.695  11.472  1.00  0.00     0.005 A 
HETATM   25  C12 UNL     1      41.724  26.613  12.069  1.00  0.00     0.005 A 
ENDBRANCH  22  23
ENDBRANCH  19  22
ENDBRANCH  16  19
ENDBRANCH  15  16
ENDBRANCH  14  15
ENDBRANCH  13  14
BRANCH  12  26
HETATM   26  C5  UNL     1      39.845  30.841  18.274  1.00  0.00     0.307 C 
BRANCH  26  27
HETATM   27  O1  UNL     1      41.000  31.276  18.897  1.00  0.00    -0.368 OA
ATOM     28  H1  UNL     1      41.426  31.995  18.445  1.00  0.00     0.212 HD
ENDBRANCH  26  27
BRANCH  26  29
HETATM   29  O2  UNL     1      38.779  31.622  18.713  1.00  0.00    -0.368 OA
ATOM     30  H2  UNL     1      38.481  32.149  17.980  1.00  0.00     0.212 HD
ENDBRANCH  26  29
ENDBRANCH  12  26
TORSDOF 11
ENDMDL
MODEL 5
REMARK VINA RESULT: -6.476867656      3.221      5.025
REMARK  11 active torsions:
REMARK  status: ('A' for Active; 'I' for Inactive)
REMARK    1  A    between atoms: C4_12  and  C5_13 
REMARK    2  A    between atoms: C5_13  and  O1_14 
REMARK    3  A    between atoms: C5_13  and  O2_16 
REMARK    4  A    between atoms: N4_18  and  O3_19 
REMARK    5  A    between atoms: O3_19  and  C6_20 
REMARK    6  A    between atoms: C6_20  and  C7_21 
REMARK    7  A    between atoms: C7_21  and  O4_22 
REMARK    8  A    between atoms: C7_21  and  C8_24 
REMARK    9  A    between atoms: C8_24  and  O5_25 
REMARK   10  A    between atoms: C8_24  and  C9_27 
REMARK   11  A    between atoms: C9_27  and  C10_28 
ROOT
HETATM    1  N1  UNL     1      35.675  28.858  19.758  1.00  0.00    -0.233 N 
ATOM      2  H11 UNL     1      35.386  27.904  19.977  1.00  0.00     0.174 HD
ATOM      3  H12 UNL     1      35.504  29.394  18.908  1.00  0.00     0.174 HD
HETATM    4  C1  UNL     1      36.354  29.494  20.670  1.00  0.00     0.696 C 
HETATM    5  N2  UNL     1      36.758  30.824  20.366  1.00  0.00    -0.223 N 
ATOM      6  H2  UNL     1      36.503  31.146  19.432  1.00  0.00     0.177 HD
HETATM    7  C2  UNL     1      37.473  31.793  21.170  1.00  0.00     0.165 C 
HETATM    8  C3  UNL     1      37.838  31.254  22.528  1.00  0.00     0.255 C 
HETATM    9  N3  UNL     1      36.746  30.649  23.226  1.00  0.00    -0.045 N 
ATOM     10  H31 UNL     1      35.850  30.981  22.868  1.00  0.00     0.280 HD
ATOM     11  H32 UNL     1      36.680  31.000  24.182  1.00  0.00     0.280 HD
HETATM   12  C4  UNL     1      36.815  29.192  23.204  1.00  0.00     0.385 C 
HETATM   13  N4  UNL     1      36.593  28.748  21.855  1.00  0.00    -0.051 N 
ENDROOT
BRANCH  13  14
HETATM   14  O3  UNL     1      36.610  27.410  21.665  1.00  0.00    -0.260 OA
BRANCH  14  15
HETATM   15  C6  UNL     1      37.951  27.020  21.874  1.00  0.00     0.236 C 
BRANCH  15  16
HETATM   16  C7  UNL     1      38.640  26.936  20.546  1.00  0.00     0.173 C 
BRANCH  16  17
HETATM   17  O4  UNL     1      38.940  25.620  20.241  1.00  0.00    -0.391 OA
ATOM     18  H4  UNL     1      39.869  25.456  20.359  1.00  0.00     0.210 HD
ENDBRANCH  16  17
BRANCH  16  19
HETATM   19  C8  UNL     1      39.924  27.737  20.493  1.00  0.00     0.149 C 
BRANCH  19  20
HETATM   20  O5  UNL     1      40.218  28.092  21.805  1.00  0.00    -0.393 OA
ATOM     21  H5  UNL     1      40.275  29.040  21.818  1.00  0.00     0.210 HD
ENDBRANCH  19  20
BRANCH  19  22
HETATM   22  C9  UNL     1      39.700  28.915  19.598  1.00  0.00     0.039 C 
BRANCH  22  23
HETATM   23  C10 UNL     1      39.502  28.589  18.158  1.00  0.00    -0.012 A 
HETATM   24  C11 UNL     1      39.628  29.614  17.083  1.00  0.00     0.005 A 
HETATM   25  C12 UNL     1      40.614  28.497  17.191  1.00  0.00     0.005 A 
ENDBRANCH  22  23
ENDBRANCH  19  22
ENDBRANCH  16  19
ENDBRANCH  15  16
ENDBRANCH  14  15
ENDBRANCH  13  14
BRANCH  12  26
HETATM   26  C5  UNL     1      35.795  28.565  24.097  1.00  0.00     0.307 C 
BRANCH  26  27
HETATM   27  O1  UNL     1      34.757  27.962  23.410  1.00  0.00    -0.368 OA
ATOM     28  H1  UNL     1      34.000  27.778  23.954  1.00  0.00     0.212 HD
ENDBRANCH  26  27
BRANCH  26  29
HETATM   29  O2  UNL     1      35.270  29.561  24.916  1.00  0.00    -0.368 OA
ATOM     30  H2  UNL     1      34.588  29.172  25.451  1.00  0.00     0.212 HD
ENDBRANCH  26  29
ENDBRANCH  12  26
TORSDOF 11
ENDMDL
