MODEL 1
REMARK VINA RESULT: -8.041605739      0.000      0.000
REMARK  8 active torsions:
REMARK  status: ('A' for Active; 'I' for Inactive)
REMARK    1  A    between atoms: N1_1  and  C1_5 
REMARK    2  A    between atoms: C1_5  and  C2_6 
REMARK    3  A    between atoms: C1_5  and  C7_20 
REMARK    4  A    between atoms: C2_6  and  N2_7 
REMARK    5  A    between atoms: N2_7  and  N3_8 
REMARK    6  A    between atoms: N3_8  and  C3_10 
REMARK    7  A    between atoms: C7_20  and  O3_21 
REMARK    8  A    between atoms: C7_20  and  N6_23 
ROOT
HETATM    1  C1  UNL     1      42.556  29.281  16.999  1.00  0.00     0.247 C 
ENDROOT
BRANCH   1   2
HETATM    2  N1  UNL     1      43.720  30.080  17.203  1.00  0.00    -0.070 N 
ATOM      3  H13 UNL     1      44.224  30.260  16.335  1.00  0.00     0.275 HD
ATOM      4  H12 UNL     1      43.491  31.046  17.438  1.00  0.00     0.275 HD
ATOM      5  H11 UNL     1      44.308  29.638  17.909  1.00  0.00     0.275 HD
ENDBRANCH   1   2
BRANCH   1   6
HETATM    6  C2  UNL     1      41.331  30.056  17.469  1.00  0.00     0.172 C 
BRANCH   6   7
HETATM    7  N2  UNL     1      40.162  29.253  17.177  1.00  0.00    -0.139 NA
BRANCH   7   8
HETATM    8  N3  UNL     1      39.054  29.680  17.941  1.00  0.00    -0.298 N 
ATOM      9  H3  UNL     1      38.486  30.450  17.586  1.00  0.00     0.182 HD
BRANCH   8  10
HETATM   10  C3  UNL     1      38.699  29.093  19.166  1.00  0.00     0.128 A 
HETATM   11  C4  UNL     1      39.217  27.873  19.524  1.00  0.00     0.129 A 
HETATM   12  N4  UNL     1      38.873  27.321  20.714  1.00  0.00    -0.316 N 
HETATM   13  C5  UNL     1      38.035  27.933  21.562  1.00  0.00     0.327 A 
ATOM     14  H4  UNL     1      39.263  26.415  20.970  1.00  0.00     0.170 HD
HETATM   15  O1  UNL     1      37.712  27.427  22.665  1.00  0.00    -0.247 OA
HETATM   16  N5  UNL     1      37.514  29.132  21.228  1.00  0.00    -0.274 N 
HETATM   17  C6  UNL     1      37.840  29.707  20.048  1.00  0.00     0.278 A 
ATOM     18  H5  UNL     1      36.874  29.606  21.866  1.00  0.00     0.173 HD
HETATM   19  O2  UNL     1      37.365  30.822  19.724  1.00  0.00    -0.265 OA
ENDBRANCH   8  10
ENDBRANCH   7   8
ENDBRANCH   6   7
ENDBRANCH   1   6
BRANCH   1  20
HETATM   20  C7  UNL     1      42.382  28.718  15.632  1.00  0.00     0.249 C 
BRANCH  20  21
HETATM   21  O3  UNL     1      41.879  29.847  14.863  1.00  0.00    -0.375 OA
ATOM     22  H3  UNL     1      41.329  29.438  14.204  1.00  0.00     0.212 HD
ENDBRANCH  20  21
BRANCH  20  23
HETATM   23  N6  UNL     1      43.476  28.266  14.927  1.00  0.00    -0.367 N 
HETATM   24  C8  UNL     1      43.581  27.504  13.811  1.00  0.00     0.011 C 
HETATM   25  C9  UNL     1      42.935  27.955  12.513  1.00  0.00     0.081 C 
HETATM   26  C11 UNL     1      43.523  26.021  13.759  1.00  0.00     0.284 C 
HETATM   27  C10 UNL     1      43.009  26.720  11.670  1.00  0.00     0.238 C 
HETATM   28  N7  UNL     1      43.966  25.856  12.328  1.00  0.00    -0.070 N 
ATOM     29  H72 UNL     1      44.010  24.897  11.984  1.00  0.00     0.277 HD
ATOM     30  H71 UNL     1      44.948  26.055  12.140  1.00  0.00     0.277 HD
ATOM     31  H6  UNL     1      44.372  28.559  15.317  1.00  0.00     0.161 HD
ENDBRANCH  20  23
ENDBRANCH   1  20
TORSDOF 8
ENDMDL
MODEL 2
REMARK VINA RESULT: -8.034771507      2.419      7.853
REMARK  8 active torsions:
REMARK  status: ('A' for Active; 'I' for Inactive)
REMARK    1  A    between atoms: N1_1  and  C1_5 
REMARK    2  A    between atoms: C1_5  and  C2_6 
REMARK    3  A    between atoms: C1_5  and  C7_20 
REMARK    4  A    between atoms: C2_6  and  N2_7 
REMARK    5  A    between atoms: N2_7  and  N3_8 
REMARK    6  A    between atoms: N3_8  and  C3_10 
REMARK    7  A    between atoms: C7_20  and  O3_21 
REMARK    8  A    between atoms: C7_20  and  N6_23 
ROOT
HETATM    1  C1  UNL     1      41.633  28.965  17.646  1.00  0.00     0.247 C 
ENDROOT
BRANCH   1   2
HETATM    2  N1  UNL     1      40.663  27.952  17.392  1.00  0.00    -0.070 N 
ATOM      3  H13 UNL     1      40.145  28.118  16.529  1.00  0.00     0.275 HD
ATOM      4  H12 UNL     1      41.089  27.061  17.133  1.00  0.00     0.275 HD
ATOM      5  H11 UNL     1      40.049  27.868  18.202  1.00  0.00     0.275 HD
ENDBRANCH   1   2
BRANCH   1   6
HETATM    6  C2  UNL     1      42.360  29.295  16.347  1.00  0.00     0.172 C 
BRANCH   6   7
HETATM    7  N2  UNL     1      43.564  28.491  16.298  1.00  0.00    -0.139 NA
BRANCH   7   8
HETATM    8  N3  UNL     1      43.996  28.313  14.966  1.00  0.00    -0.298 N 
ATOM      9  H3  UNL     1      44.905  28.686  14.694  1.00  0.00     0.182 HD
BRANCH   8  10
HETATM   10  C3  UNL     1      43.229  27.644  13.998  1.00  0.00     0.128 A 
HETATM   11  C4  UNL     1      42.957  26.306  14.134  1.00  0.00     0.129 A 
HETATM   12  N4  UNL     1      42.209  25.674  13.196  1.00  0.00    -0.316 N 
HETATM   13  C5  UNL     1      41.719  26.319  12.129  1.00  0.00     0.327 A 
ATOM     14  H4  UNL     1      42.013  24.679  13.307  1.00  0.00     0.170 HD
HETATM   15  O1  UNL     1      41.025  25.740  11.257  1.00  0.00    -0.247 OA
HETATM   16  N5  UNL     1      41.975  27.635  11.976  1.00  0.00    -0.274 N 
HETATM   17  C6  UNL     1      42.719  28.291  12.895  1.00  0.00     0.278 A 
ATOM     18  H5  UNL     1      41.608  28.136  11.167  1.00  0.00     0.173 HD
HETATM   19  O2  UNL     1      42.966  29.515  12.768  1.00  0.00    -0.265 OA
ENDBRANCH   8  10
ENDBRANCH   7   8
ENDBRANCH   6   7
ENDBRANCH   1   6
BRANCH   1  20
HETATM   20  C7  UNL     1      41.140  30.181  18.346  1.00  0.00     0.249 C 
BRANCH  20  21
HETATM   21  O3  UNL     1      41.773  31.271  17.617  1.00  0.00    -0.375 OA
ATOM     22  H3  UNL     1      41.384  31.215  16.752  1.00  0.00     0.212 HD
ENDBRANCH  20  21
BRANCH  20  23
HETATM   23  N6  UNL     1      39.796  30.484  18.341  1.00  0.00    -0.367 N 
HETATM   24  C8  UNL     1      38.854  30.432  19.315  1.00  0.00     0.011 C 
HETATM   25  C9  UNL     1      39.027  31.238  20.590  1.00  0.00     0.081 C 
HETATM   26  C11 UNL     1      38.102  29.224  19.738  1.00  0.00     0.284 C 
HETATM   27  C10 UNL     1      37.975  30.656  21.483  1.00  0.00     0.238 C 
HETATM   28  N7  UNL     1      37.088  29.918  20.610  1.00  0.00    -0.070 N 
ATOM     29  H72 UNL     1      36.411  29.312  21.073  1.00  0.00     0.277 HD
ATOM     30  H71 UNL     1      36.383  30.469  20.122  1.00  0.00     0.277 HD
ATOM     31  H6  UNL     1      39.445  30.806  17.439  1.00  0.00     0.161 HD
ENDBRANCH  20  23
ENDBRANCH   1  20
TORSDOF 8
ENDMDL
MODEL 3
REMARK VINA RESULT: -7.982845028      1.662      2.083
REMARK  8 active torsions:
REMARK  status: ('A' for Active; 'I' for Inactive)
REMARK    1  A    between atoms: N1_1  and  C1_5 
REMARK    2  A    between atoms: C1_5  and  C2_6 
REMARK    3  A    between atoms: C1_5  and  C7_20 
REMARK    4  A    between atoms: C2_6  and  N2_7 
REMARK    5  A    between atoms: N2_7  and  N3_8 
REMARK    6  A    between atoms: N3_8  and  C3_10 
REMARK    7  A    between atoms: C7_20  and  O3_21 
REMARK    8  A    between atoms: C7_20  and  N6_23 
ROOT
HETATM    1  C1  UNL     1      41.809  29.517  16.360  1.00  0.00     0.247 C 
ENDROOT
BRANCH   1   2
HETATM    2  N1  UNL     1      40.399  29.385  16.532  1.00  0.00    -0.070 N 
ATOM      3  H13 UNL     1      39.964  28.857  15.776  1.00  0.00     0.275 HD
ATOM      4  H12 UNL     1      40.159  28.758  17.300  1.00  0.00     0.275 HD
ATOM      5  H11 UNL     1      39.989  30.312  16.643  1.00  0.00     0.275 HD
ENDBRANCH   1   2
BRANCH   1   6
HETATM    6  C2  UNL     1      42.431  29.969  17.676  1.00  0.00     0.172 C 
BRANCH   6   7
HETATM    7  N2  UNL     1      41.908  29.120  18.726  1.00  0.00    -0.139 NA
BRANCH   7   8
HETATM    8  N3  UNL     1      41.267  29.887  19.723  1.00  0.00    -0.298 N 
ATOM      9  H3  UNL     1      41.823  30.560  20.252  1.00  0.00     0.182 HD
BRANCH   8  10
HETATM   10  C3  UNL     1      39.900  29.766  20.018  1.00  0.00     0.128 A 
HETATM   11  C4  UNL     1      39.464  28.800  20.891  1.00  0.00     0.129 A 
HETATM   12  N4  UNL     1      38.142  28.699  21.173  1.00  0.00    -0.316 N 
HETATM   13  C5  UNL     1      37.235  29.520  20.625  1.00  0.00     0.327 A 
ATOM     14  H4  UNL     1      37.828  27.978  21.822  1.00  0.00     0.170 HD
HETATM   15  O1  UNL     1      36.010  29.432  20.882  1.00  0.00    -0.247 OA
HETATM   16  N5  UNL     1      37.644  30.476  19.764  1.00  0.00    -0.274 N 
HETATM   17  C6  UNL     1      38.956  30.600  19.463  1.00  0.00     0.278 A 
ATOM     18  H5  UNL     1      36.963  31.105  19.340  1.00  0.00     0.173 HD
HETATM   19  O2  UNL     1      39.352  31.484  18.665  1.00  0.00    -0.265 OA
ENDBRANCH   8  10
ENDBRANCH   7   8
ENDBRANCH   6   7
ENDBRANCH   1   6
BRANCH   1  20
HETATM   20  C7  UNL     1      42.509  28.342  15.775  1.00  0.00     0.249 C 
BRANCH  20  21
HETATM   21  O3  UNL     1      42.141  27.251  16.667  1.00  0.00    -0.375 OA
ATOM     22  H3  UNL     1      42.610  26.506  16.310  1.00  0.00     0.212 HD
ENDBRANCH  20  21
BRANCH  20  23
HETATM   23  N6  UNL     1      42.178  27.898  14.514  1.00  0.00    -0.367 N 
HETATM   24  C8  UNL     1      42.869  27.174  13.599  1.00  0.00     0.011 C 
HETATM   25  C9  UNL     1      43.381  25.788  13.948  1.00  0.00     0.081 C 
HETATM   26  C11 UNL     1      43.867  27.708  12.639  1.00  0.00     0.284 C 
HETATM   27  C10 UNL     1      44.326  25.501  12.823  1.00  0.00     0.238 C 
HETATM   28  N7  UNL     1      44.011  26.469  11.794  1.00  0.00    -0.070 N 
ATOM     29  H72 UNL     1      44.676  26.531  11.023  1.00  0.00     0.277 HD
ATOM     30  H71 UNL     1      43.216  26.242  11.197  1.00  0.00     0.277 HD
ATOM     31  H6  UNL     1      41.239  28.162  14.213  1.00  0.00     0.161 HD
ENDBRANCH  20  23
ENDBRANCH   1  20
TORSDOF 8
ENDMDL
MODEL 4
REMARK VINA RESULT: -7.962996279      2.107      7.991
REMARK  8 active torsions:
REMARK  status: ('A' for Active; 'I' for Inactive)
REMARK    1  A    between atoms: N1_1  and  C1_5 
REMARK    2  A    between atoms: C1_5  and  C2_6 
REMARK    3  A    between atoms: C1_5  and  C7_20 
REMARK    4  A    between atoms: C2_6  and  N2_7 
REMARK    5  A    between atoms: N2_7  and  N3_8 
REMARK    6  A    between atoms: N3_8  and  C3_10 
REMARK    7  A    between atoms: C7_20  and  O3_21 
REMARK    8  A    between atoms: C7_20  and  N6_23 
ROOT
HETATM    1  C1  UNL     1      40.346  29.096  17.195  1.00  0.00     0.247 C 
ENDROOT
BRANCH   1   2
HETATM    2  N1  UNL     1      39.157  29.705  16.694  1.00  0.00    -0.070 N 
ATOM      3  H13 UNL     1      38.314  29.310  17.111  1.00  0.00     0.275 HD
ATOM      4  H12 UNL     1      39.044  30.664  17.023  1.00  0.00     0.275 HD
ATOM      5  H11 UNL     1      39.153  29.640  15.677  1.00  0.00     0.275 HD
ENDBRANCH   1   2
BRANCH   1   6
HETATM    6  C2  UNL     1      41.477  30.117  17.168  1.00  0.00     0.172 C 
BRANCH   6   7
HETATM    7  N2  UNL     1      42.577  29.537  16.424  1.00  0.00    -0.139 NA
BRANCH   7   8
HETATM    8  N3  UNL     1      42.179  29.210  15.110  1.00  0.00    -0.298 N 
ATOM      9  H3  UNL     1      41.429  29.751  14.679  1.00  0.00     0.182 HD
BRANCH   8  10
HETATM   10  C3  UNL     1      42.771  28.174  14.369  1.00  0.00     0.128 A 
HETATM   11  C4  UNL     1      42.862  26.911  14.897  1.00  0.00     0.129 A 
HETATM   12  N4  UNL     1      43.428  25.918  14.168  1.00  0.00    -0.316 N 
HETATM   13  C5  UNL     1      43.907  26.129  12.935  1.00  0.00     0.327 A 
ATOM     14  H4  UNL     1      43.491  24.983  14.571  1.00  0.00     0.170 HD
HETATM   15  O1  UNL     1      44.432  25.214  12.254  1.00  0.00    -0.247 OA
HETATM   16  N5  UNL     1      43.827  27.365  12.397  1.00  0.00    -0.274 N 
HETATM   17  C6  UNL     1      43.268  28.375  13.102  1.00  0.00     0.278 A 
ATOM     18  H5  UNL     1      44.190  27.537  11.460  1.00  0.00     0.173 HD
HETATM   19  O2  UNL     1      43.186  29.529  12.616  1.00  0.00    -0.265 OA
ENDBRANCH   8  10
ENDBRANCH   7   8
ENDBRANCH   6   7
ENDBRANCH   1   6
BRANCH   1  20
HETATM   20  C7  UNL     1      40.226  28.416  18.513  1.00  0.00     0.249 C 
BRANCH  20  21
HETATM   21  O3  UNL     1      41.602  28.344  18.983  1.00  0.00    -0.375 OA
ATOM     22  H3  UNL     1      41.817  27.422  18.896  1.00  0.00     0.212 HD
ENDBRANCH  20  21
BRANCH  20  23
HETATM   23  N6  UNL     1      39.530  29.017  19.539  1.00  0.00    -0.367 N 
HETATM   24  C8  UNL     1      38.484  28.596  20.291  1.00  0.00     0.011 C 
HETATM   25  C9  UNL     1      38.596  27.326  21.116  1.00  0.00     0.081 C 
HETATM   26  C11 UNL     1      37.051  28.664  19.908  1.00  0.00     0.284 C 
HETATM   27  C10 UNL     1      37.174  27.068  21.505  1.00  0.00     0.238 C 
HETATM   28  N7  UNL     1      36.470  28.306  21.251  1.00  0.00    -0.070 N 
ATOM     29  H72 UNL     1      35.452  28.257  21.297  1.00  0.00     0.277 HD
ATOM     30  H71 UNL     1      36.549  29.020  21.975  1.00  0.00     0.277 HD
ATOM     31  H6  UNL     1      39.865  29.951  19.778  1.00  0.00     0.161 HD
ENDBRANCH  20  23
ENDBRANCH   1  20
TORSDOF 8
ENDMDL
MODEL 5
REMARK VINA RESULT: -7.948419477      2.564      8.189
REMARK  8 active torsions:
REMARK  status: ('A' for Active; 'I' for Inactive)
REMARK    1  A    between atoms: N1_1  and  C1_5 
REMARK    2  A    between atoms: C1_5  and  C2_6 
REMARK    3  A    between atoms: C1_5  and  C7_20 
REMARK    4  A    between atoms: C2_6  and  N2_7 
REMARK    5  A    between atoms: N2_7  and  N3_8 
REMARK    6  A    between atoms: N3_8  and  C3_10 
REMARK    7  A    between atoms: C7_20  and  O3_21 
REMARK    8  A    between atoms: C7_20  and  N6_23 
ROOT
HETATM    1  C1  UNL     1      38.707  27.952  20.966  1.00  0.00     0.247 C 
ENDROOT
BRANCH   1   2
HETATM    2  N1  UNL     1      39.518  26.779  20.936  1.00  0.00    -0.070 N 
ATOM      3  H13 UNL     1      39.360  26.178  21.745  1.00  0.00     0.275 HD
ATOM      4  H12 UNL     1      39.225  26.123  20.211  1.00  0.00     0.275 HD
ATOM      5  H11 UNL     1      40.495  27.052  20.840  1.00  0.00     0.275 HD
ENDBRANCH   1   2
BRANCH   1   6
HETATM    6  C2  UNL     1      39.371  29.038  20.127  1.00  0.00     0.172 C 
BRANCH   6   7
HETATM    7  N2  UNL     1      38.492  29.337  19.015  1.00  0.00    -0.139 NA
BRANCH   7   8
HETATM    8  N3  UNL     1      39.175  30.059  18.013  1.00  0.00    -0.298 N 
ATOM      9  H3  UNL     1      38.795  30.958  17.715  1.00  0.00     0.182 HD
BRANCH   8  10
HETATM   10  C3  UNL     1      40.355  29.595  17.408  1.00  0.00     0.128 A 
HETATM   11  C4  UNL     1      40.381  28.368  16.794  1.00  0.00     0.129 A 
HETATM   12  N4  UNL     1      41.523  27.935  16.207  1.00  0.00    -0.316 N 
HETATM   13  C5  UNL     1      42.641  28.674  16.204  1.00  0.00     0.327 A 
ATOM     14  H4  UNL     1      41.532  27.022  15.754  1.00  0.00     0.170 HD
HETATM   15  O1  UNL     1      43.703  28.280  15.661  1.00  0.00    -0.247 OA
HETATM   16  N5  UNL     1      42.637  29.884  16.803  1.00  0.00    -0.274 N 
HETATM   17  C6  UNL     1      41.511  30.341  17.396  1.00  0.00     0.278 A 
ATOM     18  H5  UNL     1      43.482  30.454  16.807  1.00  0.00     0.173 HD
HETATM   19  O2  UNL     1      41.491  31.463  17.957  1.00  0.00    -0.265 OA
ENDBRANCH   8  10
ENDBRANCH   7   8
ENDBRANCH   6   7
ENDBRANCH   1   6
BRANCH   1  20
HETATM   20  C7  UNL     1      37.273  27.764  20.618  1.00  0.00     0.249 C 
BRANCH  20  21
HETATM   21  O3  UNL     1      37.043  26.351  20.884  1.00  0.00    -0.375 OA
ATOM     22  H3  UNL     1      37.587  26.177  21.643  1.00  0.00     0.212 HD
ENDBRANCH  20  21
BRANCH  20  23
HETATM   23  N6  UNL     1      36.297  28.424  21.332  1.00  0.00    -0.367 N 
HETATM   24  C8  UNL     1      36.368  29.371  22.300  1.00  0.00     0.011 C 
HETATM   25  C9  UNL     1      37.056  30.695  22.025  1.00  0.00     0.081 C 
HETATM   26  C11 UNL     1      36.599  29.125  23.745  1.00  0.00     0.284 C 
HETATM   27  C10 UNL     1      37.191  31.279  23.397  1.00  0.00     0.238 C 
HETATM   28  N7  UNL     1      36.291  30.516  24.234  1.00  0.00    -0.070 N 
ATOM     29  H72 UNL     1      36.384  30.665  25.239  1.00  0.00     0.277 HD
ATOM     30  H71 UNL     1      35.311  30.793  24.202  1.00  0.00     0.277 HD
ATOM     31  H6  UNL     1      35.345  28.149  21.088  1.00  0.00     0.161 HD
ENDBRANCH  20  23
ENDBRANCH   1  20
TORSDOF 8
ENDMDL
