MODEL 1
REMARK VINA RESULT: -7.467836966      0.000      0.000
REMARK  11 active torsions:
REMARK  status: ('A' for Active; 'I' for Inactive)
REMARK    1  A    between atoms: N1_1  and  C1_4 
REMARK    2  A    between atoms: C3_9  and  N4_10 
REMARK    3  A    between atoms: N4_10  and  C4_12 
REMARK    4  A    between atoms: C4_12  and  C5_13 
REMARK    5  A    between atoms: C5_13  and  O1_14 
REMARK    6  A    between atoms: C5_13  and  C6_16 
REMARK    7  A    between atoms: C6_16  and  C7_17 
REMARK    8  A    between atoms: C7_17  and  N5_18 
REMARK    9  A    between atoms: C7_17  and  C8_22 
REMARK   10  A    between atoms: C8_22  and  S1_23 
REMARK   11  A    between atoms: S1_23  and  N6_24 
ROOT
HETATM    1  C4  UNL     1      41.759  29.672  19.262  1.00  0.00     0.151 C 
ENDROOT
BRANCH   1   2
HETATM    2  N4  UNL     1      40.762  30.114  20.194  1.00  0.00    -0.380 N 
ATOM      3  H4  UNL     1      41.013  30.906  20.787  1.00  0.00     0.160 HD
BRANCH   2   4
HETATM    4  C3  UNL     1      39.483  29.577  20.378  1.00  0.00     0.139 A 
HETATM    5  C2  UNL     1      38.409  30.303  19.843  1.00  0.00     0.163 A 
HETATM    6  N2  UNL     1      37.135  29.892  19.965  1.00  0.00    -0.177 N 
HETATM    7  N3  UNL     1      38.706  31.507  19.156  1.00  0.00    -0.080 NA
HETATM    8  C1  UNL     1      36.900  28.744  20.626  1.00  0.00     0.680 A 
ATOM      9  H2  UNL     1      36.368  30.435  19.568  1.00  0.00     0.185 HD
HETATM   10  N7  UNL     1      37.892  28.031  21.145  1.00  0.00    -0.154 N 
HETATM   11  C9  UNL     1      39.202  28.418  21.041  1.00  0.00     0.289 A 
ATOM     12  H7  UNL     1      37.672  27.165  21.637  1.00  0.00     0.187 HD
HETATM   13  O3  UNL     1      40.100  27.706  21.552  1.00  0.00    -0.265 OA
BRANCH   8  14
HETATM   14  N1  UNL     1      35.679  28.343  20.747  1.00  0.00    -0.234 N 
ATOM     15  H12 UNL     1      34.930  29.019  20.898  1.00  0.00     0.174 HD
ATOM     16  H11 UNL     1      35.488  27.342  20.689  1.00  0.00     0.174 HD
ENDBRANCH   8  14
ENDBRANCH   2   4
ENDBRANCH   1   2
BRANCH   1  17
HETATM   17  C5  UNL     1      41.474  29.974  17.810  1.00  0.00     0.137 C 
BRANCH  17  18
HETATM   18  O1  UNL     1      41.546  31.388  17.741  1.00  0.00    -0.394 OA
ATOM     19  H1  UNL     1      41.000  31.676  18.463  1.00  0.00     0.210 HD
ENDBRANCH  17  18
BRANCH  17  20
HETATM   20  C6  UNL     1      42.630  29.381  17.041  1.00  0.00     0.067 C 
BRANCH  20  21
HETATM   21  C7  UNL     1      42.315  28.697  15.780  1.00  0.00     0.199 C 
BRANCH  21  22
HETATM   22  N5  UNL     1      41.066  27.951  15.924  1.00  0.00    -0.074 N 
ATOM     23  H53 UNL     1      41.221  26.944  15.950  1.00  0.00     0.274 HD
ATOM     24  H52 UNL     1      40.657  28.061  16.853  1.00  0.00     0.274 HD
ATOM     25  H51 UNL     1      40.417  28.221  15.184  1.00  0.00     0.274 HD
ENDBRANCH  21  22
BRANCH  21  26
HETATM   26  C8  UNL     1      43.333  27.809  15.190  1.00  0.00     0.164 C 
BRANCH  26  27
HETATM   27  S1  UNL     1      42.981  27.632  13.457  1.00  0.00     0.109 S 
HETATM   28  O2  UNL     1      43.110  29.064  12.634  1.00  0.00    -0.236 OA
BRANCH  27  29
HETATM   29  N6  UNL     1      41.567  26.764  13.114  1.00  0.00    -0.350 NA
ATOM     30  H62 UNL     1      40.714  27.322  13.166  1.00  0.00     0.166 HD
ATOM     31  H61 UNL     1      41.485  25.876  13.611  1.00  0.00     0.166 HD
ENDBRANCH  27  29
ENDBRANCH  26  27
ENDBRANCH  21  26
ENDBRANCH  20  21
ENDBRANCH  17  20
ENDBRANCH   1  17
TORSDOF 11
ENDMDL
MODEL 2
REMARK VINA RESULT: -7.381217214      1.165      1.831
REMARK  11 active torsions:
REMARK  status: ('A' for Active; 'I' for Inactive)
REMARK    1  A    between atoms: N1_1  and  C1_4 
REMARK    2  A    between atoms: C3_9  and  N4_10 
REMARK    3  A    between atoms: N4_10  and  C4_12 
REMARK    4  A    between atoms: C4_12  and  C5_13 
REMARK    5  A    between atoms: C5_13  and  O1_14 
REMARK    6  A    between atoms: C5_13  and  C6_16 
REMARK    7  A    between atoms: C6_16  and  C7_17 
REMARK    8  A    between atoms: C7_17  and  N5_18 
REMARK    9  A    between atoms: C7_17  and  C8_22 
REMARK   10  A    between atoms: C8_22  and  S1_23 
REMARK   11  A    between atoms: S1_23  and  N6_24 
ROOT
HETATM    1  C4  UNL     1      41.892  29.513  19.231  1.00  0.00     0.151 C 
ENDROOT
BRANCH   1   2
HETATM    2  N4  UNL     1      40.975  29.919  20.257  1.00  0.00    -0.380 N 
ATOM      3  H4  UNL     1      41.372  30.433  21.045  1.00  0.00     0.160 HD
BRANCH   2   4
HETATM    4  C3  UNL     1      39.596  29.687  20.295  1.00  0.00     0.139 A 
HETATM    5  C2  UNL     1      39.170  28.499  20.905  1.00  0.00     0.163 A 
HETATM    6  N2  UNL     1      37.872  28.163  20.992  1.00  0.00    -0.177 N 
HETATM    7  N3  UNL     1      40.164  27.641  21.439  1.00  0.00    -0.080 NA
HETATM    8  C1  UNL     1      36.963  29.006  20.472  1.00  0.00     0.680 A 
ATOM      9  H2  UNL     1      37.584  27.293  21.441  1.00  0.00     0.185 HD
HETATM   10  N7  UNL     1      37.329  30.140  19.887  1.00  0.00    -0.154 N 
HETATM   11  C9  UNL     1      38.642  30.516  19.779  1.00  0.00     0.289 A 
ATOM     12  H7  UNL     1      36.608  30.753  19.506  1.00  0.00     0.187 HD
HETATM   13  O3  UNL     1      38.932  31.598  19.214  1.00  0.00    -0.265 OA
BRANCH   8  14
HETATM   14  N1  UNL     1      35.713  28.690  20.552  1.00  0.00    -0.234 N 
ATOM     15  H12 UNL     1      35.162  28.562  19.703  1.00  0.00     0.174 HD
ATOM     16  H11 UNL     1      35.299  28.576  21.477  1.00  0.00     0.174 HD
ENDBRANCH   8  14
ENDBRANCH   2   4
ENDBRANCH   1   2
BRANCH   1  17
HETATM   17  C5  UNL     1      41.541  29.957  17.831  1.00  0.00     0.137 C 
BRANCH  17  18
HETATM   18  O1  UNL     1      41.634  31.369  17.893  1.00  0.00    -0.394 OA
ATOM     19  H1  UNL     1      42.408  31.566  17.379  1.00  0.00     0.210 HD
ENDBRANCH  17  18
BRANCH  17  20
HETATM   20  C6  UNL     1      42.647  29.426  16.951  1.00  0.00     0.067 C 
BRANCH  20  21
HETATM   21  C7  UNL     1      42.249  28.692  15.744  1.00  0.00     0.199 C 
BRANCH  21  22
HETATM   22  N5  UNL     1      40.989  27.992  15.987  1.00  0.00    -0.074 N 
ATOM     23  H53 UNL     1      40.514  28.334  16.822  1.00  0.00     0.274 HD
ATOM     24  H52 UNL     1      40.274  28.237  15.301  1.00  0.00     0.274 HD
ATOM     25  H51 UNL     1      41.157  26.986  16.024  1.00  0.00     0.274 HD
ENDBRANCH  21  22
BRANCH  21  26
HETATM   26  C8  UNL     1      43.210  27.746  15.147  1.00  0.00     0.164 C 
BRANCH  26  27
HETATM   27  S1  UNL     1      42.838  27.591  13.417  1.00  0.00     0.109 S 
HETATM   28  O2  UNL     1      42.987  29.028  12.604  1.00  0.00    -0.236 OA
BRANCH  27  29
HETATM   29  N6  UNL     1      41.405  26.753  13.079  1.00  0.00    -0.350 NA
ATOM     30  H62 UNL     1      41.196  26.673  12.084  1.00  0.00     0.166 HD
ATOM     31  H61 UNL     1      40.599  27.059  13.625  1.00  0.00     0.166 HD
ENDBRANCH  27  29
ENDBRANCH  26  27
ENDBRANCH  21  26
ENDBRANCH  20  21
ENDBRANCH  17  20
ENDBRANCH   1  17
TORSDOF 11
ENDMDL
MODEL 3
REMARK VINA RESULT: -7.350459698      2.315      2.799
REMARK  11 active torsions:
REMARK  status: ('A' for Active; 'I' for Inactive)
REMARK    1  A    between atoms: N1_1  and  C1_4 
REMARK    2  A    between atoms: C3_9  and  N4_10 
REMARK    3  A    between atoms: N4_10  and  C4_12 
REMARK    4  A    between atoms: C4_12  and  C5_13 
REMARK    5  A    between atoms: C5_13  and  O1_14 
REMARK    6  A    between atoms: C5_13  and  C6_16 
REMARK    7  A    between atoms: C6_16  and  C7_17 
REMARK    8  A    between atoms: C7_17  and  N5_18 
REMARK    9  A    between atoms: C7_17  and  C8_22 
REMARK   10  A    between atoms: C8_22  and  S1_23 
REMARK   11  A    between atoms: S1_23  and  N6_24 
ROOT
HETATM    1  C4  UNL     1      38.874  28.630  19.085  1.00  0.00     0.151 C 
ENDROOT
BRANCH   1   2
HETATM    2  N4  UNL     1      37.541  28.853  19.567  1.00  0.00    -0.380 N 
ATOM      3  H4  UNL     1      36.852  29.152  18.877  1.00  0.00     0.160 HD
BRANCH   2   4
HETATM    4  C3  UNL     1      37.085  28.704  20.881  1.00  0.00     0.139 A 
HETATM    5  C2  UNL     1      36.795  29.879  21.588  1.00  0.00     0.163 A 
HETATM    6  N2  UNL     1      36.359  29.862  22.859  1.00  0.00    -0.177 N 
HETATM    7  N3  UNL     1      36.977  31.113  20.914  1.00  0.00    -0.080 NA
HETATM    8  C1  UNL     1      36.201  28.669  23.458  1.00  0.00     0.680 A 
ATOM      9  H2  UNL     1      36.154  30.730  23.355  1.00  0.00     0.185 HD
HETATM   10  N7  UNL     1      36.465  27.535  22.820  1.00  0.00    -0.154 N 
HETATM   11  C9  UNL     1      36.911  27.513  21.525  1.00  0.00     0.289 A 
ATOM     12  H7  UNL     1      36.331  26.651  23.311  1.00  0.00     0.187 HD
HETATM   13  O3  UNL     1      37.147  26.412  20.971  1.00  0.00    -0.265 OA
BRANCH   8  14
HETATM   14  N1  UNL     1      35.782  28.644  24.680  1.00  0.00    -0.234 N 
ATOM     15  H12 UNL     1      36.208  28.008  25.355  1.00  0.00     0.174 HD
ATOM     16  H11 UNL     1      35.023  29.271  24.946  1.00  0.00     0.174 HD
ENDBRANCH   8  14
ENDBRANCH   2   4
ENDBRANCH   1   2
BRANCH   1  17
HETATM   17  C5  UNL     1      39.425  29.700  18.173  1.00  0.00     0.137 C 
BRANCH  17  18
HETATM   18  O1  UNL     1      38.739  30.872  18.578  1.00  0.00    -0.394 OA
ATOM     19  H1  UNL     1      39.438  31.481  18.787  1.00  0.00     0.210 HD
ENDBRANCH  17  18
BRANCH  17  20
HETATM   20  C6  UNL     1      40.884  29.829  18.539  1.00  0.00     0.067 C 
BRANCH  20  21
HETATM   21  C7  UNL     1      41.864  29.318  17.572  1.00  0.00     0.199 C 
BRANCH  21  22
HETATM   22  N5  UNL     1      42.478  30.436  16.857  1.00  0.00    -0.074 N 
ATOM     23  H53 UNL     1      41.974  31.310  17.005  1.00  0.00     0.274 HD
ATOM     24  H52 UNL     1      43.371  30.711  17.267  1.00  0.00     0.274 HD
ATOM     25  H51 UNL     1      42.564  30.204  15.867  1.00  0.00     0.274 HD
ENDBRANCH  21  22
BRANCH  21  26
HETATM   26  C8  UNL     1      41.423  28.311  16.590  1.00  0.00     0.164 C 
BRANCH  26  27
HETATM   27  S1  UNL     1      42.697  28.133  15.364  1.00  0.00     0.109 S 
HETATM   28  O2  UNL     1      44.217  28.332  15.994  1.00  0.00    -0.236 OA
BRANCH  27  29
HETATM   29  N6  UNL     1      42.423  29.004  13.937  1.00  0.00    -0.350 NA
ATOM     30  H62 UNL     1      42.759  29.967  13.967  1.00  0.00     0.166 HD
ATOM     31  H61 UNL     1      41.472  28.933  13.574  1.00  0.00     0.166 HD
ENDBRANCH  27  29
ENDBRANCH  26  27
ENDBRANCH  21  26
ENDBRANCH  20  21
ENDBRANCH  17  20
ENDBRANCH   1  17
TORSDOF 11
ENDMDL
MODEL 4
REMARK VINA RESULT: -7.330266769      2.783      4.203
REMARK  11 active torsions:
REMARK  status: ('A' for Active; 'I' for Inactive)
REMARK    1  A    between atoms: N1_1  and  C1_4 
REMARK    2  A    between atoms: C3_9  and  N4_10 
REMARK    3  A    between atoms: N4_10  and  C4_12 
REMARK    4  A    between atoms: C4_12  and  C5_13 
REMARK    5  A    between atoms: C5_13  and  O1_14 
REMARK    6  A    between atoms: C5_13  and  C6_16 
REMARK    7  A    between atoms: C6_16  and  C7_17 
REMARK    8  A    between atoms: C7_17  and  N5_18 
REMARK    9  A    between atoms: C7_17  and  C8_22 
REMARK   10  A    between atoms: C8_22  and  S1_23 
REMARK   11  A    between atoms: S1_23  and  N6_24 
ROOT
HETATM    1  C4  UNL     1      37.970  27.566  21.361  1.00  0.00     0.151 C 
ENDROOT
BRANCH   1   2
HETATM    2  N4  UNL     1      36.990  28.613  21.342  1.00  0.00    -0.380 N 
ATOM      3  H4  UNL     1      36.199  28.485  20.711  1.00  0.00     0.160 HD
BRANCH   2   4
HETATM    4  C3  UNL     1      37.002  29.792  22.097  1.00  0.00     0.139 A 
HETATM    5  C2  UNL     1      37.180  30.991  21.394  1.00  0.00     0.163 A 
HETATM    6  N2  UNL     1      37.218  32.185  22.011  1.00  0.00    -0.177 N 
HETATM    7  N3  UNL     1      37.322  30.914  19.986  1.00  0.00    -0.080 NA
HETATM    8  C1  UNL     1      37.079  32.211  23.349  1.00  0.00     0.680 A 
ATOM      9  H2  UNL     1      37.348  33.047  21.481  1.00  0.00     0.185 HD
HETATM   10  N7  UNL     1      36.909  31.095  24.047  1.00  0.00    -0.154 N 
HETATM   11  C9  UNL     1      36.865  29.862  23.453  1.00  0.00     0.289 A 
ATOM     12  H7  UNL     1      36.806  31.159  25.060  1.00  0.00     0.187 HD
HETATM   13  O3  UNL     1      36.703  28.839  24.162  1.00  0.00    -0.265 OA
BRANCH   8  14
HETATM   14  N1  UNL     1      37.115  33.354  23.949  1.00  0.00    -0.234 N 
ATOM     15  H12 UNL     1      36.329  33.999  23.871  1.00  0.00     0.174 HD
ATOM     16  H11 UNL     1      37.943  33.590  24.497  1.00  0.00     0.174 HD
ENDBRANCH   8  14
ENDBRANCH   2   4
ENDBRANCH   1   2
BRANCH   1  17
HETATM   17  C5  UNL     1      39.336  27.942  20.837  1.00  0.00     0.137 C 
BRANCH  17  18
HETATM   18  O1  UNL     1      40.141  26.824  21.169  1.00  0.00    -0.394 OA
ATOM     19  H1  UNL     1      40.653  26.675  20.382  1.00  0.00     0.210 HD
ENDBRANCH  17  18
BRANCH  17  20
HETATM   20  C6  UNL     1      39.185  28.016  19.337  1.00  0.00     0.067 C 
BRANCH  20  21
HETATM   21  C7  UNL     1      39.993  29.018  18.631  1.00  0.00     0.199 C 
BRANCH  21  22
HETATM   22  N5  UNL     1      39.187  29.657  17.592  1.00  0.00    -0.074 N 
ATOM     23  H53 UNL     1      38.797  28.979  16.937  1.00  0.00     0.274 HD
ATOM     24  H52 UNL     1      38.310  30.027  17.959  1.00  0.00     0.274 HD
ATOM     25  H51 UNL     1      39.739  30.373  17.120  1.00  0.00     0.274 HD
ENDBRANCH  21  22
BRANCH  21  26
HETATM   26  C8  UNL     1      41.278  28.598  18.043  1.00  0.00     0.164 C 
BRANCH  26  27
HETATM   27  S1  UNL     1      41.957  29.972  17.145  1.00  0.00     0.109 S 
HETATM   28  O2  UNL     1      41.559  31.431  17.823  1.00  0.00    -0.236 OA
BRANCH  27  29
HETATM   29  N6  UNL     1      41.718  29.902  15.470  1.00  0.00    -0.350 NA
ATOM     30  H62 UNL     1      40.809  29.529  15.195  1.00  0.00     0.166 HD
ATOM     31  H61 UNL     1      42.487  29.478  14.950  1.00  0.00     0.166 HD
ENDBRANCH  27  29
ENDBRANCH  26  27
ENDBRANCH  21  26
ENDBRANCH  20  21
ENDBRANCH  17  20
ENDBRANCH   1  17
TORSDOF 11
ENDMDL
MODEL 5
REMARK VINA RESULT: -7.258499791      2.603      3.747
REMARK  11 active torsions:
REMARK  status: ('A' for Active; 'I' for Inactive)
REMARK    1  A    between atoms: N1_1  and  C1_4 
REMARK    2  A    between atoms: C3_9  and  N4_10 
REMARK    3  A    between atoms: N4_10  and  C4_12 
REMARK    4  A    between atoms: C4_12  and  C5_13 
REMARK    5  A    between atoms: C5_13  and  O1_14 
REMARK    6  A    between atoms: C5_13  and  C6_16 
REMARK    7  A    between atoms: C6_16  and  C7_17 
REMARK    8  A    between atoms: C7_17  and  N5_18 
REMARK    9  A    between atoms: C7_17  and  C8_22 
REMARK   10  A    between atoms: C8_22  and  S1_23 
REMARK   11  A    between atoms: S1_23  and  N6_24 
ROOT
HETATM    1  C4  UNL     1      39.299  28.037  19.609  1.00  0.00     0.151 C 
ENDROOT
BRANCH   1   2
HETATM    2  N4  UNL     1      37.985  28.538  19.891  1.00  0.00    -0.380 N 
ATOM      3  H4  UNL     1      37.456  28.899  19.097  1.00  0.00     0.160 HD
BRANCH   2   4
HETATM    4  C3  UNL     1      37.350  28.585  21.137  1.00  0.00     0.139 A 
HETATM    5  C2  UNL     1      37.236  29.844  21.742  1.00  0.00     0.163 A 
HETATM    6  N2  UNL     1      36.654  30.013  22.943  1.00  0.00    -0.177 N 
HETATM    7  N3  UNL     1      37.760  30.960  21.043  1.00  0.00    -0.080 NA
HETATM    8  C1  UNL     1      36.171  28.926  23.570  1.00  0.00     0.680 A 
ATOM      9  H2  UNL     1      36.581  30.938  23.365  1.00  0.00     0.185 HD
HETATM   10  N7  UNL     1      36.261  27.718  23.028  1.00  0.00    -0.154 N 
HETATM   11  C9  UNL     1      36.847  27.507  21.807  1.00  0.00     0.289 A 
ATOM     12  H7  UNL     1      35.881  26.919  23.536  1.00  0.00     0.187 HD
HETATM   13  O3  UNL     1      36.906  26.344  21.342  1.00  0.00    -0.265 OA
BRANCH   8  14
HETATM   14  N1  UNL     1      35.611  29.079  24.724  1.00  0.00    -0.234 N 
ATOM     15  H12 UNL     1      35.673  29.975  25.209  1.00  0.00     0.174 HD
ATOM     16  H11 UNL     1      35.113  28.288  25.131  1.00  0.00     0.174 HD
ENDBRANCH   8  14
ENDBRANCH   2   4
ENDBRANCH   1   2
BRANCH   1  17
HETATM   17  C5  UNL     1      40.323  28.243  20.701  1.00  0.00     0.137 C 
BRANCH  17  18
HETATM   18  O1  UNL     1      40.556  26.935  21.194  1.00  0.00    -0.394 OA
ATOM     19  H1  UNL     1      40.076  26.916  22.013  1.00  0.00     0.210 HD
ENDBRANCH  17  18
BRANCH  17  20
HETATM   20  C6  UNL     1      41.565  28.737  19.999  1.00  0.00     0.067 C 
BRANCH  20  21
HETATM   21  C7  UNL     1      41.616  30.162  19.650  1.00  0.00     0.199 C 
BRANCH  21  22
HETATM   22  N5  UNL     1      40.869  30.937  20.639  1.00  0.00    -0.074 N 
ATOM     23  H53 UNL     1      39.870  30.957  20.437  1.00  0.00     0.274 HD
ATOM     24  H52 UNL     1      40.827  30.467  21.544  1.00  0.00     0.274 HD
ATOM     25  H51 UNL     1      41.265  31.874  20.711  1.00  0.00     0.274 HD
ENDBRANCH  21  22
BRANCH  21  26
HETATM   26  C8  UNL     1      41.183  30.571  18.301  1.00  0.00     0.164 C 
BRANCH  26  27
HETATM   27  S1  UNL     1      42.335  29.909  17.122  1.00  0.00     0.109 S 
HETATM   28  O2  UNL     1      43.854  30.551  17.289  1.00  0.00    -0.236 OA
BRANCH  27  29
HETATM   29  N6  UNL     1      41.769  29.885  15.525  1.00  0.00    -0.350 NA
ATOM     30  H62 UNL     1      41.051  30.583  15.329  1.00  0.00     0.166 HD
ATOM     31  H61 UNL     1      41.517  28.958  15.180  1.00  0.00     0.166 HD
ENDBRANCH  27  29
ENDBRANCH  26  27
ENDBRANCH  21  26
ENDBRANCH  20  21
ENDBRANCH  17  20
ENDBRANCH   1  17
TORSDOF 11
ENDMDL
