MODEL 1
REMARK VINA RESULT: -8.829629708      0.000      0.000
REMARK  9 active torsions:
REMARK  status: ('A' for Active; 'I' for Inactive)
REMARK    1  A    between atoms: C2_2  and  C4_4 
REMARK    2  A    between atoms: C8_17  and  N5_18 
REMARK    3  A    between atoms: C9_20  and  C10_21 
REMARK    4  A    between atoms: C10_21  and  C11_22 
REMARK    5  A    between atoms: C11_22  and  C12_23 
REMARK    6  A    between atoms: C12_23  and  N6_24 
REMARK    7  A    between atoms: N6_24  and  C13_26 
REMARK    8  A    between atoms: C14_27  and  O1_28 
REMARK    9  A    between atoms: N9_34  and  O2_35 
ROOT
HETATM    1  C4  UNL     1      42.774  28.977  19.628  1.00  0.00     0.087 A 
HETATM    2  N1  UNL     1      43.425  28.900  18.460  1.00  0.00    -0.329 N 
ATOM      3  H1  UNL     1      44.390  29.225  18.413  1.00  0.00     0.168 HD
HETATM    4  C5  UNL     1      42.849  28.408  17.341  1.00  0.00     0.153 A 
HETATM    5  N2  UNL     1      43.281  28.229  16.076  1.00  0.00    -0.174 N 
ATOM      6  H2  UNL     1      44.216  28.471  15.749  1.00  0.00     0.186 HD
HETATM    7  C6  UNL     1      42.331  27.698  15.306  1.00  0.00     0.678 A 
HETATM    8  N3  UNL     1      42.348  27.375  14.046  1.00  0.00    -0.234 N 
ATOM      9  H31 UNL     1      41.621  26.968  13.457  1.00  0.00     0.174 HD
ATOM     10  H32 UNL     1      43.152  27.495  13.430  1.00  0.00     0.174 HD
HETATM   11  N4  UNL     1      41.254  27.536  16.132  1.00  0.00    -0.184 N 
ATOM     12  H4  UNL     1      40.355  27.148  15.846  1.00  0.00     0.184 HD
HETATM   13  C7  UNL     1      41.547  27.962  17.375  1.00  0.00     0.137 A 
HETATM   14  C8  UNL     1      40.847  28.031  18.579  1.00  0.00     0.138 A 
HETATM   15  N10 UNL     1      41.522  28.547  19.655  1.00  0.00    -0.330 N 
ATOM     16  H10 UNL     1      41.023  28.604  20.543  1.00  0.00     0.168 HD
ENDROOT
BRANCH  14  17
HETATM   17  N5  UNL     1      39.676  27.651  18.683  1.00  0.00    -0.354 N 
HETATM   18  C9  UNL     1      38.525  27.774  19.401  1.00  0.00     0.062 C 
ATOM     19  H5  UNL     1      39.503  26.979  17.936  1.00  0.00     0.166 HD
BRANCH  18  20
HETATM   20  C10 UNL     1      38.435  26.968  20.683  1.00  0.00     0.046 C 
BRANCH  20  21
HETATM   21  C11 UNL     1      37.073  26.354  20.875  1.00  0.00     0.025 C 
BRANCH  21  22
HETATM   22  C12 UNL     1      36.240  27.112  21.851  1.00  0.00     0.121 C 
BRANCH  22  23
HETATM   23  N6  UNL     1      37.063  27.557  22.957  1.00  0.00    -0.369 N 
ATOM     24  H6  UNL     1      37.875  26.995  23.214  1.00  0.00     0.161 HD
BRANCH  23  25
HETATM   25  C13 UNL     1      36.824  28.614  23.625  1.00  0.00     0.202 A 
HETATM   26  C14 UNL     1      36.399  28.629  24.932  1.00  0.00     0.205 A 
HETATM   27  N7  UNL     1      36.263  29.924  25.264  1.00  0.00    -0.260 N 
HETATM   28  N8  UNL     1      36.582  30.679  24.235  1.00  0.00    -0.212 N 
ATOM     29  H7  UNL     1      35.960  30.270  26.175  1.00  0.00     0.191 HD
HETATM   30  N9  UNL     1      36.926  29.890  23.226  1.00  0.00    -0.127 N 
ATOM     31  H8  UNL     1      36.566  31.698  24.216  1.00  0.00     0.211 HD
BRANCH  26  32
HETATM   32  O1  UNL     1      36.146  27.560  25.780  1.00  0.00    -0.342 OA
ATOM     33  H1  UNL     1      36.750  27.081  26.335  1.00  0.00     0.219 HD
ENDBRANCH  26  32
BRANCH  30  34
HETATM   34  O2  UNL     1      37.313  30.361  22.004  1.00  0.00    -0.265 OA
ATOM     35  H2  UNL     1      37.702  31.203  21.797  1.00  0.00     0.247 HD
ENDBRANCH  30  34
ENDBRANCH  23  25
ENDBRANCH  22  23
ENDBRANCH  21  22
ENDBRANCH  20  21
ENDBRANCH  18  20
ENDBRANCH  14  17
BRANCH   1  36
HETATM   36  C2  UNL     1      43.439  29.530  20.860  1.00  0.00     0.045 C 
HETATM   37  C1  UNL     1      42.384  29.959  21.871  1.00  0.00     0.017 C 
HETATM   38  C3  UNL     1      44.402  28.549  21.463  1.00  0.00     0.017 C 
ENDBRANCH   1  36
TORSDOF 9
ENDMDL
MODEL 2
REMARK VINA RESULT: -8.800743402      1.408      1.858
REMARK  9 active torsions:
REMARK  status: ('A' for Active; 'I' for Inactive)
REMARK    1  A    between atoms: C2_2  and  C4_4 
REMARK    2  A    between atoms: C8_17  and  N5_18 
REMARK    3  A    between atoms: C9_20  and  C10_21 
REMARK    4  A    between atoms: C10_21  and  C11_22 
REMARK    5  A    between atoms: C11_22  and  C12_23 
REMARK    6  A    between atoms: C12_23  and  N6_24 
REMARK    7  A    between atoms: N6_24  and  C13_26 
REMARK    8  A    between atoms: C14_27  and  O1_28 
REMARK    9  A    between atoms: N9_34  and  O2_35 
ROOT
HETATM    1  C4  UNL     1      43.318  28.856  19.184  1.00  0.00     0.087 A 
HETATM    2  N1  UNL     1      43.866  28.746  17.967  1.00  0.00    -0.329 N 
ATOM      3  H1  UNL     1      44.841  29.015  17.841  1.00  0.00     0.168 HD
HETATM    4  C5  UNL     1      43.173  28.293  16.899  1.00  0.00     0.153 A 
HETATM    5  N2  UNL     1      43.488  28.095  15.603  1.00  0.00    -0.174 N 
ATOM      6  H2  UNL     1      44.407  28.283  15.200  1.00  0.00     0.186 HD
HETATM    7  C6  UNL     1      42.449  27.623  14.914  1.00  0.00     0.678 A 
HETATM    8  N3  UNL     1      42.345  27.305  13.657  1.00  0.00    -0.234 N 
ATOM      9  H31 UNL     1      41.549  26.944  13.130  1.00  0.00     0.174 HD
ATOM     10  H32 UNL     1      43.101  27.380  12.977  1.00  0.00     0.174 HD
HETATM   11  N4  UNL     1      41.435  27.521  15.825  1.00  0.00    -0.184 N 
ATOM     12  H4  UNL     1      40.495  27.187  15.614  1.00  0.00     0.184 HD
HETATM   13  C7  UNL     1      41.853  27.924  17.040  1.00  0.00     0.137 A 
HETATM   14  C8  UNL     1      41.260  28.029  18.297  1.00  0.00     0.138 A 
HETATM   15  N10 UNL     1      42.050  28.500  19.313  1.00  0.00    -0.330 N 
ATOM     16  H10 UNL     1      41.629  28.582  20.239  1.00  0.00     0.168 HD
ENDROOT
BRANCH  14  17
HETATM   17  N5  UNL     1      40.081  27.718  18.496  1.00  0.00    -0.354 N 
HETATM   18  C9  UNL     1      38.852  28.183  18.856  1.00  0.00     0.062 C 
ATOM     19  H5  UNL     1      39.994  26.716  18.324  1.00  0.00     0.166 HD
BRANCH  18  20
HETATM   20  C10 UNL     1      38.597  28.349  20.341  1.00  0.00     0.046 C 
BRANCH  20  21
HETATM   21  C11 UNL     1      37.264  28.993  20.621  1.00  0.00     0.025 C 
BRANCH  21  22
HETATM   22  C12 UNL     1      37.393  30.245  21.419  1.00  0.00     0.121 C 
BRANCH  22  23
HETATM   23  N6  UNL     1      37.926  29.939  22.731  1.00  0.00    -0.369 N 
ATOM     24  H6  UNL     1      38.925  30.072  22.891  1.00  0.00     0.161 HD
BRANCH  23  25
HETATM   25  C13 UNL     1      37.211  29.513  23.693  1.00  0.00     0.202 A 
HETATM   26  C14 UNL     1      36.443  30.312  24.506  1.00  0.00     0.205 A 
HETATM   27  N7  UNL     1      35.850  29.487  25.386  1.00  0.00    -0.260 N 
HETATM   28  N8  UNL     1      36.219  28.248  25.146  1.00  0.00    -0.212 N 
ATOM     29  H7  UNL     1      35.212  29.778  26.127  1.00  0.00     0.191 HD
HETATM   30  N9  UNL     1      37.051  28.249  24.113  1.00  0.00    -0.127 N 
ATOM     31  H8  UNL     1      35.916  27.425  25.666  1.00  0.00     0.211 HD
BRANCH  26  32
HETATM   32  O1  UNL     1      36.277  31.690  24.470  1.00  0.00    -0.342 OA
ATOM     33  H1  UNL     1      35.624  32.225  24.906  1.00  0.00     0.219 HD
ENDBRANCH  26  32
BRANCH  30  34
HETATM   34  O2  UNL     1      37.620  27.115  23.607  1.00  0.00    -0.265 OA
ATOM     35  H2  UNL     1      38.376  26.642  23.935  1.00  0.00     0.247 HD
ENDBRANCH  30  34
ENDBRANCH  23  25
ENDBRANCH  22  23
ENDBRANCH  21  22
ENDBRANCH  20  21
ENDBRANCH  18  20
ENDBRANCH  14  17
BRANCH   1  36
HETATM   36  C2  UNL     1      44.113  29.365  20.358  1.00  0.00     0.045 C 
HETATM   37  C1  UNL     1      44.245  28.270  21.408  1.00  0.00     0.017 C 
HETATM   38  C3  UNL     1      45.459  29.879  19.938  1.00  0.00     0.017 C 
ENDBRANCH   1  36
TORSDOF 9
ENDMDL
MODEL 3
REMARK VINA RESULT: -8.798686961      0.392      1.523
REMARK  9 active torsions:
REMARK  status: ('A' for Active; 'I' for Inactive)
REMARK    1  A    between atoms: C2_2  and  C4_4 
REMARK    2  A    between atoms: C8_17  and  N5_18 
REMARK    3  A    between atoms: C9_20  and  C10_21 
REMARK    4  A    between atoms: C10_21  and  C11_22 
REMARK    5  A    between atoms: C11_22  and  C12_23 
REMARK    6  A    between atoms: C12_23  and  N6_24 
REMARK    7  A    between atoms: N6_24  and  C13_26 
REMARK    8  A    between atoms: C14_27  and  O1_28 
REMARK    9  A    between atoms: N9_34  and  O2_35 
ROOT
HETATM    1  C4  UNL     1      42.792  28.976  19.649  1.00  0.00     0.087 A 
HETATM    2  N1  UNL     1      43.426  28.883  18.472  1.00  0.00    -0.329 N 
ATOM      3  H1  UNL     1      44.395  29.194  18.410  1.00  0.00     0.168 HD
HETATM    4  C5  UNL     1      42.828  28.392  17.364  1.00  0.00     0.153 A 
HETATM    5  N2  UNL     1      43.241  28.200  16.094  1.00  0.00    -0.174 N 
ATOM      6  H2  UNL     1      44.175  28.427  15.753  1.00  0.00     0.186 HD
HETATM    7  C6  UNL     1      42.273  27.677  15.340  1.00  0.00     0.678 A 
HETATM    8  N3  UNL     1      42.269  27.347  14.082  1.00  0.00    -0.234 N 
ATOM      9  H31 UNL     1      41.528  26.947  13.506  1.00  0.00     0.174 HD
ATOM     10  H32 UNL     1      43.066  27.452  13.455  1.00  0.00     0.174 HD
HETATM   11  N4  UNL     1      41.205  27.536  16.182  1.00  0.00    -0.184 N 
ATOM     12  H4  UNL     1      40.297  27.159  15.910  1.00  0.00     0.184 HD
HETATM   13  C7  UNL     1      41.520  27.965  17.418  1.00  0.00     0.137 A 
HETATM   14  C8  UNL     1      40.838  28.052  18.631  1.00  0.00     0.138 A 
HETATM   15  N10 UNL     1      41.535  28.564  19.694  1.00  0.00    -0.330 N 
ATOM     16  H10 UNL     1      41.049  28.633  20.588  1.00  0.00     0.168 HD
ENDROOT
BRANCH  14  17
HETATM   17  N5  UNL     1      39.664  27.688  18.753  1.00  0.00    -0.354 N 
HETATM   18  C9  UNL     1      38.521  27.838  19.481  1.00  0.00     0.062 C 
ATOM     19  H5  UNL     1      39.474  27.007  18.018  1.00  0.00     0.166 HD
BRANCH  18  20
HETATM   20  C10 UNL     1      38.434  27.054  20.776  1.00  0.00     0.046 C 
BRANCH  20  21
HETATM   21  C11 UNL     1      37.083  26.416  20.965  1.00  0.00     0.025 C 
BRANCH  21  22
HETATM   22  C12 UNL     1      36.245  27.143  21.960  1.00  0.00     0.121 C 
BRANCH  22  23
HETATM   23  N6  UNL     1      37.070  27.587  23.065  1.00  0.00    -0.369 N 
ATOM     24  H6  UNL     1      37.928  27.074  23.267  1.00  0.00     0.161 HD
BRANCH  23  25
HETATM   25  C13 UNL     1      36.777  28.586  23.797  1.00  0.00     0.202 A 
HETATM   26  C14 UNL     1      36.878  29.898  23.401  1.00  0.00     0.205 A 
HETATM   27  N7  UNL     1      36.480  30.636  24.452  1.00  0.00    -0.260 N 
HETATM   28  N8  UNL     1      36.147  29.842  25.447  1.00  0.00    -0.212 N 
ATOM     29  H7  UNL     1      36.441  31.655  24.474  1.00  0.00     0.191 HD
HETATM   30  N9  UNL     1      36.324  28.586  25.060  1.00  0.00    -0.127 N 
ATOM     31  H8  UNL     1      35.810  30.143  26.361  1.00  0.00     0.211 HD
BRANCH  26  32
HETATM   32  O1  UNL     1      37.300  30.412  22.183  1.00  0.00    -0.342 OA
ATOM     33  H1  UNL     1      37.108  31.256  21.791  1.00  0.00     0.219 HD
ENDBRANCH  26  32
BRANCH  30  34
HETATM   34  O2  UNL     1      36.069  27.512  25.863  1.00  0.00    -0.265 OA
ATOM     35  H2  UNL     1      35.424  27.439  26.557  1.00  0.00     0.247 HD
ENDBRANCH  30  34
ENDBRANCH  23  25
ENDBRANCH  22  23
ENDBRANCH  21  22
ENDBRANCH  20  21
ENDBRANCH  18  20
ENDBRANCH  14  17
BRANCH   1  36
HETATM   36  C2  UNL     1      43.481  29.527  20.868  1.00  0.00     0.045 C 
HETATM   37  C1  UNL     1      42.446  29.992  21.883  1.00  0.00     0.017 C 
HETATM   38  C3  UNL     1      44.426  28.531  21.473  1.00  0.00     0.017 C 
ENDBRANCH   1  36
TORSDOF 9
ENDMDL
MODEL 4
REMARK VINA RESULT: -8.793085359      1.440      1.758
REMARK  9 active torsions:
REMARK  status: ('A' for Active; 'I' for Inactive)
REMARK    1  A    between atoms: C2_2  and  C4_4 
REMARK    2  A    between atoms: C8_17  and  N5_18 
REMARK    3  A    between atoms: C9_20  and  C10_21 
REMARK    4  A    between atoms: C10_21  and  C11_22 
REMARK    5  A    between atoms: C11_22  and  C12_23 
REMARK    6  A    between atoms: C12_23  and  N6_24 
REMARK    7  A    between atoms: N6_24  and  C13_26 
REMARK    8  A    between atoms: C14_27  and  O1_28 
REMARK    9  A    between atoms: N9_34  and  O2_35 
ROOT
HETATM    1  C4  UNL     1      43.331  28.835  19.204  1.00  0.00     0.087 A 
HETATM    2  N1  UNL     1      43.877  28.734  17.985  1.00  0.00    -0.329 N 
ATOM      3  H1  UNL     1      44.851  29.009  17.858  1.00  0.00     0.168 HD
HETATM    4  C5  UNL     1      43.184  28.283  16.916  1.00  0.00     0.153 A 
HETATM    5  N2  UNL     1      43.498  28.093  15.618  1.00  0.00    -0.174 N 
ATOM      6  H2  UNL     1      44.414  28.288  15.215  1.00  0.00     0.186 HD
HETATM    7  C6  UNL     1      42.460  27.619  14.929  1.00  0.00     0.678 A 
HETATM    8  N3  UNL     1      42.355  27.307  13.671  1.00  0.00    -0.234 N 
ATOM      9  H31 UNL     1      41.560  26.944  13.144  1.00  0.00     0.174 HD
ATOM     10  H32 UNL     1      43.109  27.390  12.989  1.00  0.00     0.174 HD
HETATM   11  N4  UNL     1      41.449  27.507  15.842  1.00  0.00    -0.184 N 
ATOM     12  H4  UNL     1      40.510  27.169  15.632  1.00  0.00     0.184 HD
HETATM   13  C7  UNL     1      41.867  27.906  17.058  1.00  0.00     0.137 A 
HETATM   14  C8  UNL     1      41.276  28.001  18.317  1.00  0.00     0.138 A 
HETATM   15  N10 UNL     1      42.065  28.471  19.334  1.00  0.00    -0.330 N 
ATOM     16  H10 UNL     1      41.646  28.546  20.261  1.00  0.00     0.168 HD
ENDROOT
BRANCH  14  17
HETATM   17  N5  UNL     1      40.099  27.682  18.518  1.00  0.00    -0.354 N 
HETATM   18  C9  UNL     1      38.847  28.152  18.776  1.00  0.00     0.062 C 
ATOM     19  H5  UNL     1      40.044  26.665  18.471  1.00  0.00     0.166 HD
BRANCH  18  20
HETATM   20  C10 UNL     1      38.536  28.496  20.220  1.00  0.00     0.046 C 
BRANCH  20  21
HETATM   21  C11 UNL     1      38.318  29.974  20.418  1.00  0.00     0.025 C 
BRANCH  21  22
HETATM   22  C12 UNL     1      37.271  30.263  21.438  1.00  0.00     0.121 C 
BRANCH  22  23
HETATM   23  N6  UNL     1      37.812  30.063  22.767  1.00  0.00    -0.369 N 
ATOM     24  H6  UNL     1      38.795  30.286  22.930  1.00  0.00     0.161 HD
BRANCH  23  25
HETATM   25  C13 UNL     1      37.123  29.624  23.742  1.00  0.00     0.202 A 
HETATM   26  C14 UNL     1      37.024  28.297  24.090  1.00  0.00     0.205 A 
HETATM   27  N7  UNL     1      36.212  28.253  25.161  1.00  0.00    -0.260 N 
HETATM   28  N8  UNL     1      35.825  29.471  25.471  1.00  0.00    -0.212 N 
ATOM     29  H7  UNL     1      35.939  27.406  25.658  1.00  0.00     0.191 HD
HETATM   30  N9  UNL     1      36.375  30.319  24.611  1.00  0.00    -0.127 N 
ATOM     31  H8  UNL     1      35.206  29.722  26.241  1.00  0.00     0.211 HD
BRANCH  26  32
HETATM   32  O1  UNL     1      37.615  27.192  23.494  1.00  0.00    -0.342 OA
ATOM     33  H1  UNL     1      38.046  26.451  23.904  1.00  0.00     0.219 HD
ENDBRANCH  26  32
BRANCH  30  34
HETATM   34  O2  UNL     1      36.172  31.669  24.656  1.00  0.00    -0.265 OA
ATOM     35  H2  UNL     1      36.573  32.302  25.239  1.00  0.00     0.247 HD
ENDBRANCH  30  34
ENDBRANCH  23  25
ENDBRANCH  22  23
ENDBRANCH  21  22
ENDBRANCH  20  21
ENDBRANCH  18  20
ENDBRANCH  14  17
BRANCH   1  36
HETATM   36  C2  UNL     1      44.126  29.342  20.379  1.00  0.00     0.045 C 
HETATM   37  C1  UNL     1      44.262  28.244  21.425  1.00  0.00     0.017 C 
HETATM   38  C3  UNL     1      45.470  29.861  19.959  1.00  0.00     0.017 C 
ENDBRANCH   1  36
TORSDOF 9
ENDMDL
MODEL 5
REMARK VINA RESULT: -8.739011226      1.193      1.382
REMARK  9 active torsions:
REMARK  status: ('A' for Active; 'I' for Inactive)
REMARK    1  A    between atoms: C2_2  and  C4_4 
REMARK    2  A    between atoms: C8_17  and  N5_18 
REMARK    3  A    between atoms: C9_20  and  C10_21 
REMARK    4  A    between atoms: C10_21  and  C11_22 
REMARK    5  A    between atoms: C11_22  and  C12_23 
REMARK    6  A    between atoms: C12_23  and  N6_24 
REMARK    7  A    between atoms: N6_24  and  C13_26 
REMARK    8  A    between atoms: C14_27  and  O1_28 
REMARK    9  A    between atoms: N9_34  and  O2_35 
ROOT
HETATM    1  C4  UNL     1      43.318  28.814  19.195  1.00  0.00     0.087 A 
HETATM    2  N1  UNL     1      43.875  28.726  17.980  1.00  0.00    -0.329 N 
ATOM      3  H1  UNL     1      44.846  29.015  17.864  1.00  0.00     0.168 HD
HETATM    4  C5  UNL     1      43.198  28.270  16.903  1.00  0.00     0.153 A 
HETATM    5  N2  UNL     1      43.526  28.090  15.608  1.00  0.00    -0.174 N 
ATOM      6  H2  UNL     1      44.443  28.300  15.213  1.00  0.00     0.186 HD
HETATM    7  C6  UNL     1      42.502  27.604  14.907  1.00  0.00     0.678 A 
HETATM    8  N3  UNL     1      42.411  27.296  13.647  1.00  0.00    -0.234 N 
ATOM      9  H31 UNL     1      41.627  26.924  13.111  1.00  0.00     0.174 HD
ATOM     10  H32 UNL     1      43.171  27.393  12.973  1.00  0.00     0.174 HD
HETATM   11  N4  UNL     1      41.484  27.474  15.811  1.00  0.00    -0.184 N 
ATOM     12  H4  UNL     1      40.552  27.123  15.591  1.00  0.00     0.184 HD
HETATM   13  C7  UNL     1      41.886  27.873  17.032  1.00  0.00     0.137 A 
HETATM   14  C8  UNL     1      41.282  27.955  18.287  1.00  0.00     0.138 A 
HETATM   15  N10 UNL     1      42.056  28.431  19.312  1.00  0.00    -0.330 N 
ATOM     16  H10 UNL     1      41.628  28.497  20.236  1.00  0.00     0.168 HD
ENDROOT
BRANCH  14  17
HETATM   17  N5  UNL     1      40.109  27.618  18.475  1.00  0.00    -0.354 N 
HETATM   18  C9  UNL     1      39.054  27.689  19.335  1.00  0.00     0.062 C 
ATOM     19  H5  UNL     1      39.812  27.069  17.669  1.00  0.00     0.166 HD
BRANCH  18  20
HETATM   20  C10 UNL     1      39.057  26.712  20.495  1.00  0.00     0.046 C 
BRANCH  20  21
HETATM   21  C11 UNL     1      37.754  25.965  20.613  1.00  0.00     0.025 C 
BRANCH  21  22
HETATM   22  C12 UNL     1      36.574  26.835  20.349  1.00  0.00     0.121 C 
BRANCH  22  23
HETATM   23  N6  UNL     1      36.129  27.447  21.585  1.00  0.00    -0.369 N 
ATOM     24  H6  UNL     1      35.377  26.996  22.106  1.00  0.00     0.161 HD
BRANCH  23  25
HETATM   25  C13 UNL     1      36.629  28.519  22.052  1.00  0.00     0.202 A 
HETATM   26  C14 UNL     1      37.265  28.617  23.267  1.00  0.00     0.205 A 
HETATM   27  N7  UNL     1      37.642  29.901  23.388  1.00  0.00    -0.260 N 
HETATM   28  N8  UNL     1      37.270  30.572  22.319  1.00  0.00    -0.212 N 
ATOM     29  H7  UNL     1      38.141  30.295  24.185  1.00  0.00     0.191 HD
HETATM   30  N9  UNL     1      36.649  29.739  21.495  1.00  0.00    -0.127 N 
ATOM     31  H8  UNL     1      37.432  31.565  22.153  1.00  0.00     0.211 HD
BRANCH  26  32
HETATM   32  O1  UNL     1      37.496  27.628  24.213  1.00  0.00    -0.342 OA
ATOM     33  H1  UNL     1      38.261  27.076  24.327  1.00  0.00     0.219 HD
ENDBRANCH  26  32
BRANCH  30  34
HETATM   34  O2  UNL     1      36.137  30.122  20.288  1.00  0.00    -0.265 OA
ATOM     35  H2  UNL     1      35.820  30.980  20.032  1.00  0.00     0.247 HD
ENDBRANCH  30  34
ENDBRANCH  23  25
ENDBRANCH  22  23
ENDBRANCH  21  22
ENDBRANCH  20  21
ENDBRANCH  18  20
ENDBRANCH  14  17
BRANCH   1  36
HETATM   36  C2  UNL     1      44.095  29.327  20.379  1.00  0.00     0.045 C 
HETATM   37  C1  UNL     1      44.226  28.231  21.428  1.00  0.00     0.017 C 
HETATM   38  C3  UNL     1      45.440  29.856  19.975  1.00  0.00     0.017 C 
ENDBRANCH   1  36
TORSDOF 9
ENDMDL
