MODEL 1
REMARK VINA RESULT: -6.502828395      0.000      0.000
REMARK  10 active torsions:
REMARK  status: ('A' for Active; 'I' for Inactive)
REMARK    1  A    between atoms: C4_4  and  N1_5 
REMARK    2  A    between atoms: N1_5  and  C5_7 
REMARK    3  A    between atoms: C5_7  and  C6_8 
REMARK    4  A    between atoms: C6_8  and  C7_9 
REMARK    5  A    between atoms: C7_9  and  O1_10 
REMARK    6  A    between atoms: N2_13  and  C9_14 
REMARK    7  A    between atoms: C9_14  and  C10_15 
REMARK    8  A    between atoms: C10_15  and  C11_16 
REMARK    9  A    between atoms: C11_16  and  S1_17 
REMARK   10  A    between atoms: S1_17  and  C12_18 
ROOT
HETATM    1  C1  UNL     1      30.285   8.955  13.082  1.00  0.00     0.032 C 
HETATM    2  C2  UNL     1      30.826   8.143  14.222  1.00  0.00     0.077 C 
HETATM    3  C3  UNL     1      29.968   6.899  14.512  1.00  0.00     0.051 C 
HETATM    4  C4  UNL     1      30.923   6.008  15.228  1.00  0.00     0.096 C 
HETATM    5  C8  UNL     1      32.272   6.379  14.590  1.00  0.00     0.142 C 
HETATM    6  N2  UNL     1      32.043   7.543  13.847  1.00  0.00    -0.406 N 
ENDROOT
BRANCH   6   7
HETATM    7  C9  UNL     1      33.118   8.342  13.395  1.00  0.00     0.118 C 
BRANCH   7   8
HETATM    8  C10 UNL     1      33.992   8.666  14.556  1.00  0.00     0.030 C 
BRANCH   8   9
HETATM    9  C11 UNL     1      35.290   9.283  14.280  1.00  0.00     0.083 C 
BRANCH   9  10
HETATM   10  S1  UNL     1      36.634   8.943  15.368  1.00  0.00    -0.103 SA
BRANCH  10  11
HETATM   11  C12 UNL     1      36.231   8.916  17.103  1.00  0.00     0.129 A 
HETATM   12  N3  UNL     1      35.615   9.917  17.761  1.00  0.00    -0.287 N 
HETATM   13  N4  UNL     1      35.407   9.820  19.009  1.00  0.00    -0.283 N 
ATOM     14  H3  UNL     1      35.315  10.751  17.257  1.00  0.00     0.188 HD
HETATM   15  C13 UNL     1      35.804   8.725  19.654  1.00  0.00     0.159 A 
ATOM     16  H4  UNL     1      34.942  10.575  19.513  1.00  0.00     0.188 HD
HETATM   17  S2  UNL     1      35.642   8.380  21.263  1.00  0.00    -0.051 SA
HETATM   18  S3  UNL     1      36.496   7.825  18.378  1.00  0.00    -0.033 SA
ENDBRANCH  10  11
ENDBRANCH   9  10
ENDBRANCH   8   9
ENDBRANCH   7   8
ENDBRANCH   6   7
BRANCH   4  19
HETATM   19  N1  UNL     1      31.027   6.267  16.617  1.00  0.00    -0.415 N 
ATOM     20  H1  UNL     1      30.246   6.670  17.134  1.00  0.00     0.153 HD
BRANCH  19  21
HETATM   21  C5  UNL     1      32.244   5.952  17.269  1.00  0.00     0.116 C 
BRANCH  21  22
HETATM   22  C6  UNL     1      32.725   7.043  18.208  1.00  0.00     0.045 C 
BRANCH  22  23
HETATM   23  C7  UNL     1      31.910   8.293  17.883  1.00  0.00     0.165 C 
BRANCH  23  24
HETATM   24  O1  UNL     1      32.775   9.390  17.830  1.00  0.00    -0.401 OA
ATOM     25  H1  UNL     1      32.344  10.136  18.229  1.00  0.00     0.209 HD
ENDBRANCH  23  24
ENDBRANCH  22  23
ENDBRANCH  21  22
ENDBRANCH  19  21
ENDBRANCH   4  19
TORSDOF 10
ENDMDL
MODEL 2
REMARK VINA RESULT: -6.436130589      1.073      1.135
REMARK  10 active torsions:
REMARK  status: ('A' for Active; 'I' for Inactive)
REMARK    1  A    between atoms: C4_4  and  N1_5 
REMARK    2  A    between atoms: N1_5  and  C5_7 
REMARK    3  A    between atoms: C5_7  and  C6_8 
REMARK    4  A    between atoms: C6_8  and  C7_9 
REMARK    5  A    between atoms: C7_9  and  O1_10 
REMARK    6  A    between atoms: N2_13  and  C9_14 
REMARK    7  A    between atoms: C9_14  and  C10_15 
REMARK    8  A    between atoms: C10_15  and  C11_16 
REMARK    9  A    between atoms: C11_16  and  S1_17 
REMARK   10  A    between atoms: S1_17  and  C12_18 
ROOT
HETATM    1  C1  UNL     1      30.357   9.792  12.791  1.00  0.00     0.032 C 
HETATM    2  C2  UNL     1      30.678   8.643  13.702  1.00  0.00     0.077 C 
HETATM    3  C3  UNL     1      29.495   7.673  13.858  1.00  0.00     0.051 C 
HETATM    4  C4  UNL     1      30.165   6.415  14.294  1.00  0.00     0.096 C 
HETATM    5  C8  UNL     1      31.529   6.497  13.588  1.00  0.00     0.142 C 
HETATM    6  N2  UNL     1      31.631   7.803  13.094  1.00  0.00    -0.406 N 
ENDROOT
BRANCH   6   7
HETATM    7  C9  UNL     1      32.875   8.328  12.675  1.00  0.00     0.118 C 
BRANCH   7   8
HETATM    8  C10 UNL     1      33.721   8.567  13.878  1.00  0.00     0.030 C 
BRANCH   8   9
HETATM    9  C11 UNL     1      34.213   9.925  14.106  1.00  0.00     0.083 C 
BRANCH   9  10
HETATM   10  S1  UNL     1      35.556  10.160  15.222  1.00  0.00    -0.103 SA
BRANCH  10  11
HETATM   11  C12 UNL     1      35.422   9.302  16.778  1.00  0.00     0.129 A 
HETATM   12  N3  UNL     1      34.882   9.824  17.896  1.00  0.00    -0.287 N 
HETATM   13  N4  UNL     1      34.870   9.147  18.969  1.00  0.00    -0.283 N 
ATOM     14  H3  UNL     1      34.485  10.764  17.881  1.00  0.00     0.188 HD
HETATM   15  C13 UNL     1      35.392   7.923  18.974  1.00  0.00     0.159 A 
ATOM     16  H4  UNL     1      34.463   9.537  19.819  1.00  0.00     0.188 HD
HETATM   17  S2  UNL     1      35.487   6.865  20.241  1.00  0.00    -0.051 SA
HETATM   18  S3  UNL     1      35.909   7.780  17.353  1.00  0.00    -0.033 SA
ENDBRANCH  10  11
ENDBRANCH   9  10
ENDBRANCH   8   9
ENDBRANCH   7   8
ENDBRANCH   6   7
BRANCH   4  19
HETATM   19  N1  UNL     1      30.414   6.345  15.687  1.00  0.00    -0.415 N 
ATOM     20  H1  UNL     1      29.752   6.735  16.358  1.00  0.00     0.153 HD
BRANCH  19  21
HETATM   21  C5  UNL     1      31.606   5.718  16.125  1.00  0.00     0.116 C 
BRANCH  21  22
HETATM   22  C6  UNL     1      32.263   6.424  17.296  1.00  0.00     0.045 C 
BRANCH  22  23
HETATM   23  C7  UNL     1      31.947   7.910  17.147  1.00  0.00     0.165 C 
BRANCH  23  24
HETATM   24  O1  UNL     1      31.998   8.507  18.410  1.00  0.00    -0.401 OA
ATOM     25  H1  UNL     1      32.901   8.728  18.605  1.00  0.00     0.209 HD
ENDBRANCH  23  24
ENDBRANCH  22  23
ENDBRANCH  21  22
ENDBRANCH  19  21
ENDBRANCH   4  19
TORSDOF 10
ENDMDL
MODEL 3
REMARK VINA RESULT: -6.431184906      3.451      6.384
REMARK  10 active torsions:
REMARK  status: ('A' for Active; 'I' for Inactive)
REMARK    1  A    between atoms: C4_4  and  N1_5 
REMARK    2  A    between atoms: N1_5  and  C5_7 
REMARK    3  A    between atoms: C5_7  and  C6_8 
REMARK    4  A    between atoms: C6_8  and  C7_9 
REMARK    5  A    between atoms: C7_9  and  O1_10 
REMARK    6  A    between atoms: N2_13  and  C9_14 
REMARK    7  A    between atoms: C9_14  and  C10_15 
REMARK    8  A    between atoms: C10_15  and  C11_16 
REMARK    9  A    between atoms: C11_16  and  S1_17 
REMARK   10  A    between atoms: S1_17  and  C12_18 
ROOT
HETATM    1  C1  UNL     1      34.908   8.966  14.069  1.00  0.00     0.032 C 
HETATM    2  C2  UNL     1      35.310   8.578  15.462  1.00  0.00     0.077 C 
HETATM    3  C3  UNL     1      36.755   8.990  15.790  1.00  0.00     0.051 C 
HETATM    4  C4  UNL     1      36.749   9.029  17.279  1.00  0.00     0.096 C 
HETATM    5  C8  UNL     1      35.308   9.457  17.599  1.00  0.00     0.142 C 
HETATM    6  N2  UNL     1      34.596   9.350  16.399  1.00  0.00    -0.406 N 
ENDROOT
BRANCH   6   7
HETATM    7  C9  UNL     1      33.182   9.351  16.388  1.00  0.00     0.118 C 
BRANCH   7   8
HETATM    8  C10 UNL     1      32.695   8.968  17.741  1.00  0.00     0.030 C 
BRANCH   8   9
HETATM    9  C11 UNL     1      32.248   7.589  17.940  1.00  0.00     0.083 C 
BRANCH   9  10
HETATM   10  S1  UNL     1      32.432   6.444  16.613  1.00  0.00    -0.103 SA
BRANCH  10  11
HETATM   11  C12 UNL     1      31.139   6.471  15.389  1.00  0.00     0.129 A 
HETATM   12  N3  UNL     1      29.977   7.142  15.516  1.00  0.00    -0.287 N 
HETATM   13  N4  UNL     1      29.099   7.066  14.605  1.00  0.00    -0.283 N 
ATOM     14  H3  UNL     1      29.805   7.710  16.345  1.00  0.00     0.188 HD
HETATM   15  C13 UNL     1      29.338   6.320  13.528  1.00  0.00     0.159 A 
ATOM     16  H4  UNL     1      28.218   7.571  14.696  1.00  0.00     0.188 HD
HETATM   17  S2  UNL     1      28.352   6.074  12.224  1.00  0.00    -0.051 SA
HETATM   18  S3  UNL     1      30.899   5.724  13.881  1.00  0.00    -0.033 SA
ENDBRANCH  10  11
ENDBRANCH   9  10
ENDBRANCH   8   9
ENDBRANCH   7   8
ENDBRANCH   6   7
BRANCH   4  19
HETATM   19  N1  UNL     1      36.963   7.770  17.893  1.00  0.00    -0.415 N 
ATOM     20  H1  UNL     1      37.776   7.202  17.654  1.00  0.00     0.153 HD
BRANCH  19  21
HETATM   21  C5  UNL     1      36.019   7.320  18.847  1.00  0.00     0.116 C 
BRANCH  21  22
HETATM   22  C6  UNL     1      36.642   6.935  20.176  1.00  0.00     0.045 C 
BRANCH  22  23
HETATM   23  C7  UNL     1      37.977   7.670  20.265  1.00  0.00     0.165 C 
BRANCH  23  24
HETATM   24  O1  UNL     1      38.968   6.868  19.692  1.00  0.00    -0.401 OA
ATOM     25  H1  UNL     1      38.984   7.026  18.755  1.00  0.00     0.209 HD
ENDBRANCH  23  24
ENDBRANCH  22  23
ENDBRANCH  21  22
ENDBRANCH  19  21
ENDBRANCH   4  19
TORSDOF 10
ENDMDL
MODEL 4
REMARK VINA RESULT: -6.419877629      1.344      1.354
REMARK  10 active torsions:
REMARK  status: ('A' for Active; 'I' for Inactive)
REMARK    1  A    between atoms: C4_4  and  N1_5 
REMARK    2  A    between atoms: N1_5  and  C5_7 
REMARK    3  A    between atoms: C5_7  and  C6_8 
REMARK    4  A    between atoms: C6_8  and  C7_9 
REMARK    5  A    between atoms: C7_9  and  O1_10 
REMARK    6  A    between atoms: N2_13  and  C9_14 
REMARK    7  A    between atoms: C9_14  and  C10_15 
REMARK    8  A    between atoms: C10_15  and  C11_16 
REMARK    9  A    between atoms: C11_16  and  S1_17 
REMARK   10  A    between atoms: S1_17  and  C12_18 
ROOT
HETATM    1  C1  UNL     1      29.984   8.854  13.098  1.00  0.00     0.032 C 
HETATM    2  C2  UNL     1      30.630   8.051  14.189  1.00  0.00     0.077 C 
HETATM    3  C3  UNL     1      29.827   6.786  14.536  1.00  0.00     0.051 C 
HETATM    4  C4  UNL     1      30.857   5.916  15.172  1.00  0.00     0.096 C 
HETATM    5  C8  UNL     1      32.143   6.322  14.434  1.00  0.00     0.142 C 
HETATM    6  N2  UNL     1      31.829   7.483  13.718  1.00  0.00    -0.406 N 
ENDROOT
BRANCH   6   7
HETATM    7  C9  UNL     1      32.846   8.309  13.188  1.00  0.00     0.118 C 
BRANCH   7   8
HETATM    8  C10 UNL     1      33.921   8.456  14.209  1.00  0.00     0.030 C 
BRANCH   8   9
HETATM    9  C11 UNL     1      34.008   9.727  14.928  1.00  0.00     0.083 C 
BRANCH   9  10
HETATM   10  S1  UNL     1      35.580  10.251  15.528  1.00  0.00    -0.103 SA
BRANCH  10  11
HETATM   11  C12 UNL     1      36.280   9.251  16.825  1.00  0.00     0.129 A 
HETATM   12  N3  UNL     1      36.270   7.904  16.844  1.00  0.00    -0.287 N 
HETATM   13  N4  UNL     1      36.759   7.281  17.835  1.00  0.00    -0.283 N 
ATOM     14  H3  UNL     1      35.869   7.386  16.063  1.00  0.00     0.188 HD
HETATM   15  C13 UNL     1      37.279   7.971  18.848  1.00  0.00     0.159 A 
ATOM     16  H4  UNL     1      36.754   6.262  17.855  1.00  0.00     0.188 HD
HETATM   17  S2  UNL     1      37.967   7.381  20.231  1.00  0.00    -0.051 SA
HETATM   18  S3  UNL     1      37.035   9.574  18.313  1.00  0.00    -0.033 SA
ENDBRANCH  10  11
ENDBRANCH   9  10
ENDBRANCH   8   9
ENDBRANCH   7   8
ENDBRANCH   6   7
BRANCH   4  19
HETATM   19  N1  UNL     1      31.061   6.172  16.551  1.00  0.00    -0.415 N 
ATOM     20  H1  UNL     1      30.326   6.593  17.119  1.00  0.00     0.153 HD
BRANCH  19  21
HETATM   21  C5  UNL     1      32.311   5.828  17.118  1.00  0.00     0.116 C 
BRANCH  21  22
HETATM   22  C6  UNL     1      32.653   6.635  18.358  1.00  0.00     0.045 C 
BRANCH  22  23
HETATM   23  C7  UNL     1      32.699   8.099  17.929  1.00  0.00     0.165 C 
BRANCH  23  24
HETATM   24  O1  UNL     1      31.404   8.625  17.992  1.00  0.00    -0.401 OA
ATOM     25  H1  UNL     1      30.783   7.914  17.889  1.00  0.00     0.209 HD
ENDBRANCH  23  24
ENDBRANCH  22  23
ENDBRANCH  21  22
ENDBRANCH  19  21
ENDBRANCH   4  19
TORSDOF 10
ENDMDL
MODEL 5
REMARK VINA RESULT: -6.362669981      3.440      6.202
REMARK  10 active torsions:
REMARK  status: ('A' for Active; 'I' for Inactive)
REMARK    1  A    between atoms: C4_4  and  N1_5 
REMARK    2  A    between atoms: N1_5  and  C5_7 
REMARK    3  A    between atoms: C5_7  and  C6_8 
REMARK    4  A    between atoms: C6_8  and  C7_9 
REMARK    5  A    between atoms: C7_9  and  O1_10 
REMARK    6  A    between atoms: N2_13  and  C9_14 
REMARK    7  A    between atoms: C9_14  and  C10_15 
REMARK    8  A    between atoms: C10_15  and  C11_16 
REMARK    9  A    between atoms: C11_16  and  S1_17 
REMARK   10  A    between atoms: S1_17  and  C12_18 
ROOT
HETATM    1  C1  UNL     1      36.956   8.645  17.554  1.00  0.00     0.032 C 
HETATM    2  C2  UNL     1      35.607   7.997  17.671  1.00  0.00     0.077 C 
HETATM    3  C3  UNL     1      35.234   7.685  19.130  1.00  0.00     0.051 C 
HETATM    4  C4  UNL     1      33.748   7.593  19.069  1.00  0.00     0.096 C 
HETATM    5  C8  UNL     1      33.393   8.593  17.957  1.00  0.00     0.142 C 
HETATM    6  N2  UNL     1      34.602   8.923  17.332  1.00  0.00    -0.406 N 
ENDROOT
BRANCH   6   7
HETATM    7  C9  UNL     1      34.619   9.561  16.071  1.00  0.00     0.118 C 
BRANCH   7   8
HETATM    8  C10 UNL     1      33.569   8.947  15.212  1.00  0.00     0.030 C 
BRANCH   8   9
HETATM    9  C11 UNL     1      33.140   9.688  14.026  1.00  0.00     0.083 C 
BRANCH   9  10
HETATM   10  S1  UNL     1      31.442  10.134  13.877  1.00  0.00    -0.103 SA
BRANCH  10  11
HETATM   11  C12 UNL     1      30.325   8.797  13.506  1.00  0.00     0.129 A 
HETATM   12  N3  UNL     1      29.224   8.498  14.223  1.00  0.00    -0.287 N 
HETATM   13  N4  UNL     1      28.512   7.498  13.902  1.00  0.00    -0.283 N 
ATOM     14  H3  UNL     1      28.963   9.075  15.022  1.00  0.00     0.188 HD
HETATM   15  C13 UNL     1      28.866   6.753  12.857  1.00  0.00     0.159 A 
ATOM     16  H4  UNL     1      27.678   7.267  14.441  1.00  0.00     0.188 HD
HETATM   17  S2  UNL     1      28.100   5.416  12.258  1.00  0.00    -0.051 SA
HETATM   18  S3  UNL     1      30.281   7.559  12.343  1.00  0.00    -0.033 SA
ENDBRANCH  10  11
ENDBRANCH   9  10
ENDBRANCH   8   9
ENDBRANCH   7   8
ENDBRANCH   6   7
BRANCH   4  19
HETATM   19  N1  UNL     1      33.262   6.323  18.667  1.00  0.00    -0.415 N 
ATOM     20  H1  UNL     1      33.691   5.465  19.012  1.00  0.00     0.153 HD
BRANCH  19  21
HETATM   21  C5  UNL     1      32.165   6.278  17.773  1.00  0.00     0.116 C 
BRANCH  21  22
HETATM   22  C6  UNL     1      32.315   5.227  16.688  1.00  0.00     0.045 C 
BRANCH  22  23
HETATM   23  C7  UNL     1      31.484   5.701  15.499  1.00  0.00     0.165 C 
BRANCH  23  24
HETATM   24  O1  UNL     1      30.375   6.403  15.981  1.00  0.00    -0.401 OA
ATOM     25  H1  UNL     1      30.580   7.330  15.984  1.00  0.00     0.209 HD
ENDBRANCH  23  24
ENDBRANCH  22  23
ENDBRANCH  21  22
ENDBRANCH  19  21
ENDBRANCH   4  19
TORSDOF 10
ENDMDL
