MODEL 1
REMARK VINA RESULT: -7.125310213      0.000      0.000
REMARK  12 active torsions:
REMARK  status: ('A' for Active; 'I' for Inactive)
REMARK    1  A    between atoms: C2_2  and  C4_4 
REMARK    2  A    between atoms: C4_4  and  C5_5 
REMARK    3  A    between atoms: C5_5  and  N1_6 
REMARK    4  A    between atoms: N1_6  and  C6_8 
REMARK    5  A    between atoms: C6_8  and  C7_9 
REMARK    6  A    between atoms: C7_9  and  C8_10 
REMARK    7  A    between atoms: C8_10  and  N2_11 
REMARK    8  A    between atoms: N2_11  and  C9_13 
REMARK    9  A    between atoms: C10_14  and  N3_15 
REMARK   10  A    between atoms: N3_15  and  O1_17 
REMARK   11  A    between atoms: C11_19  and  N4_20 
REMARK   12  A    between atoms: N4_20  and  C12_22 
ROOT
HETATM    1  C9  UNL     1      33.084   8.235  15.908  1.00  0.00     0.131 A 
HETATM    2  C10 UNL     1      33.443   8.468  17.221  1.00  0.00     0.131 A 
HETATM    3  C11 UNL     1      34.695   8.958  17.575  1.00  0.00     0.148 A 
HETATM    4  N5  UNL     1      35.560   9.202  16.592  1.00  0.00    -0.279 N 
ATOM      5  H5  UNL     1      36.485   9.562  16.827  1.00  0.00     0.189 HD
HETATM    6  N6  UNL     1      35.258   8.992  15.308  1.00  0.00    -0.259 N 
HETATM    7  C16 UNL     1      36.284   9.293  14.302  1.00  0.00     0.181 C 
HETATM    8  C17 UNL     1      34.062   8.522  14.944  1.00  0.00     0.290 A 
HETATM    9  O2  UNL     1      33.765   8.319  13.732  1.00  0.00    -0.264 OA
ENDROOT
BRANCH   1  10
HETATM   10  N2  UNL     1      31.811   7.751  15.516  1.00  0.00    -0.383 N 
ATOM     11  H2  UNL     1      31.084   8.430  15.291  1.00  0.00     0.159 HD
BRANCH  10  12
HETATM   12  C8  UNL     1      31.492   6.348  15.417  1.00  0.00     0.125 C 
BRANCH  12  13
HETATM   13  C7  UNL     1      30.713   5.962  14.197  1.00  0.00     0.063 C 
BRANCH  13  14
HETATM   14  C6  UNL     1      31.436   5.946  12.915  1.00  0.00     0.057 C 
BRANCH  14  15
HETATM   15  N1  UNL     1      31.502   7.005  12.045  1.00  0.00    -0.402 N 
ATOM     16  H1  UNL     1      32.350   7.081  11.482  1.00  0.00     0.158 HD
BRANCH  15  17
HETATM   17  C5  UNL     1      30.540   7.979  11.853  1.00  0.00     0.119 C 
BRANCH  17  18
HETATM   18  C4  UNL     1      31.122   9.213  11.133  1.00  0.00     0.023 C 
BRANCH  18  19
HETATM   19  C2  UNL     1      31.385  10.314  12.148  1.00  0.00    -0.021 C 
HETATM   20  C1  UNL     1      30.387  10.254  13.262  1.00  0.00     0.009 C 
HETATM   21  C3  UNL     1      31.304  11.684  11.481  1.00  0.00     0.009 C 
ENDBRANCH  18  19
ENDBRANCH  17  18
ENDBRANCH  15  17
ENDBRANCH  14  15
ENDBRANCH  13  14
ENDBRANCH  12  13
ENDBRANCH  10  12
ENDBRANCH   1  10
BRANCH   2  22
HETATM   22  N3  UNL     1      32.506   8.180  18.281  1.00  0.00    -0.263 N 
ATOM     23  H3  UNL     1      32.777   7.611  19.083  1.00  0.00     0.194 HD
BRANCH  22  24
HETATM   24  O1  UNL     1      31.356   8.649  18.182  1.00  0.00    -0.289 OA
ATOM     25  H1  UNL     1      30.626   8.044  18.237  1.00  0.00     0.244 HD
ENDBRANCH  22  24
ENDBRANCH   2  22
BRANCH   3  26
HETATM   26  N4  UNL     1      34.935   9.143  18.805  1.00  0.00    -0.365 N 
ATOM     27  H4  UNL     1      34.399   9.900  19.228  1.00  0.00     0.162 HD
BRANCH  26  28
HETATM   28  C12 UNL     1      35.814   8.486  19.696  1.00  0.00     0.021 C 
HETATM   29  C13 UNL     1      35.671   6.977  19.698  1.00  0.00     0.037 C 
HETATM   30  C14 UNL     1      37.234   8.934  19.433  1.00  0.00     0.037 C 
HETATM   31  C15 UNL     1      35.474   9.028  21.102  1.00  0.00     0.037 C 
ENDBRANCH  26  28
ENDBRANCH   3  26
TORSDOF 12
ENDMDL
MODEL 2
REMARK VINA RESULT: -7.108333486      1.105      1.547
REMARK  12 active torsions:
REMARK  status: ('A' for Active; 'I' for Inactive)
REMARK    1  A    between atoms: C2_2  and  C4_4 
REMARK    2  A    between atoms: C4_4  and  C5_5 
REMARK    3  A    between atoms: C5_5  and  N1_6 
REMARK    4  A    between atoms: N1_6  and  C6_8 
REMARK    5  A    between atoms: C6_8  and  C7_9 
REMARK    6  A    between atoms: C7_9  and  C8_10 
REMARK    7  A    between atoms: C8_10  and  N2_11 
REMARK    8  A    between atoms: N2_11  and  C9_13 
REMARK    9  A    between atoms: C10_14  and  N3_15 
REMARK   10  A    between atoms: N3_15  and  O1_17 
REMARK   11  A    between atoms: C11_19  and  N4_20 
REMARK   12  A    between atoms: N4_20  and  C12_22 
ROOT
HETATM    1  C9  UNL     1      33.291   7.631  16.019  1.00  0.00     0.131 A 
HETATM    2  C10 UNL     1      33.976   7.210  17.142  1.00  0.00     0.131 A 
HETATM    3  C11 UNL     1      35.331   7.465  17.328  1.00  0.00     0.148 A 
HETATM    4  N5  UNL     1      35.965   8.141  16.371  1.00  0.00    -0.279 N 
ATOM      5  H5  UNL     1      36.959   8.340  16.485  1.00  0.00     0.189 HD
HETATM    6  N6  UNL     1      35.344   8.568  15.269  1.00  0.00    -0.259 N 
HETATM    7  C16 UNL     1      36.137   9.306  14.276  1.00  0.00     0.181 C 
HETATM    8  C17 UNL     1      34.045   8.336  15.069  1.00  0.00     0.290 A 
HETATM    9  O2  UNL     1      33.447   8.736  14.029  1.00  0.00    -0.264 OA
ENDROOT
BRANCH   1  10
HETATM   10  N2  UNL     1      31.909   7.401  15.810  1.00  0.00    -0.383 N 
ATOM     11  H2  UNL     1      31.265   8.182  15.929  1.00  0.00     0.159 HD
BRANCH  10  12
HETATM   12  C8  UNL     1      31.366   6.117  15.437  1.00  0.00     0.125 C 
BRANCH  12  13
HETATM   13  C7  UNL     1      32.069   5.440  14.300  1.00  0.00     0.063 C 
BRANCH  13  14
HETATM   14  C6  UNL     1      31.570   5.712  12.943  1.00  0.00     0.057 C 
BRANCH  14  15
HETATM   15  N1  UNL     1      31.688   6.916  12.296  1.00  0.00    -0.402 N 
ATOM     16  H1  UNL     1      32.612   7.151  11.933  1.00  0.00     0.158 HD
BRANCH  15  17
HETATM   17  C5  UNL     1      30.684   7.843  12.085  1.00  0.00     0.119 C 
BRANCH  17  18
HETATM   18  C4  UNL     1      31.164   8.998  11.183  1.00  0.00     0.023 C 
BRANCH  18  19
HETATM   19  C2  UNL     1      30.835  10.327  11.844  1.00  0.00    -0.021 C 
HETATM   20  C1  UNL     1      32.035  11.222  11.855  1.00  0.00     0.009 C 
HETATM   21  C3  UNL     1      30.365  10.107  13.279  1.00  0.00     0.009 C 
ENDBRANCH  18  19
ENDBRANCH  17  18
ENDBRANCH  15  17
ENDBRANCH  14  15
ENDBRANCH  13  14
ENDBRANCH  12  13
ENDBRANCH  10  12
ENDBRANCH   1  10
BRANCH   2  22
HETATM   22  N3  UNL     1      33.285   6.458  18.162  1.00  0.00    -0.263 N 
ATOM     23  H3  UNL     1      33.328   5.439  18.186  1.00  0.00     0.194 HD
BRANCH  22  24
HETATM   24  O1  UNL     1      32.633   7.096  19.011  1.00  0.00    -0.289 OA
ATOM     25  H1  UNL     1      33.112   7.491  19.730  1.00  0.00     0.244 HD
ENDBRANCH  22  24
ENDBRANCH   2  22
BRANCH   3  26
HETATM   26  N4  UNL     1      35.876   7.040  18.389  1.00  0.00    -0.365 N 
ATOM     27  H4  UNL     1      36.043   6.035  18.401  1.00  0.00     0.162 HD
BRANCH  26  28
HETATM   28  C12 UNL     1      36.293   7.713  19.560  1.00  0.00     0.021 C 
HETATM   29  C13 UNL     1      36.050   9.208  19.529  1.00  0.00     0.037 C 
HETATM   30  C14 UNL     1      35.681   7.050  20.773  1.00  0.00     0.037 C 
HETATM   31  C15 UNL     1      37.811   7.450  19.679  1.00  0.00     0.037 C 
ENDBRANCH  26  28
ENDBRANCH   3  26
TORSDOF 12
ENDMDL
MODEL 3
REMARK VINA RESULT: -7.102156765      1.415      1.811
REMARK  12 active torsions:
REMARK  status: ('A' for Active; 'I' for Inactive)
REMARK    1  A    between atoms: C2_2  and  C4_4 
REMARK    2  A    between atoms: C4_4  and  C5_5 
REMARK    3  A    between atoms: C5_5  and  N1_6 
REMARK    4  A    between atoms: N1_6  and  C6_8 
REMARK    5  A    between atoms: C6_8  and  C7_9 
REMARK    6  A    between atoms: C7_9  and  C8_10 
REMARK    7  A    between atoms: C8_10  and  N2_11 
REMARK    8  A    between atoms: N2_11  and  C9_13 
REMARK    9  A    between atoms: C10_14  and  N3_15 
REMARK   10  A    between atoms: N3_15  and  O1_17 
REMARK   11  A    between atoms: C11_19  and  N4_20 
REMARK   12  A    between atoms: N4_20  and  C12_22 
ROOT
HETATM    1  C9  UNL     1      33.605   7.308  16.646  1.00  0.00     0.131 A 
HETATM    2  C10 UNL     1      33.956   7.736  17.911  1.00  0.00     0.131 A 
HETATM    3  C11 UNL     1      34.535   8.978  18.144  1.00  0.00     0.148 A 
HETATM    4  N5  UNL     1      34.747   9.764  17.089  1.00  0.00    -0.279 N 
ATOM      5  H5  UNL     1      35.172  10.680  17.235  1.00  0.00     0.189 HD
HETATM    6  N6  UNL     1      34.425   9.393  15.848  1.00  0.00    -0.259 N 
HETATM    7  C16 UNL     1      34.702  10.335  14.755  1.00  0.00     0.181 C 
HETATM    8  C17 UNL     1      33.868   8.205  15.600  1.00  0.00     0.290 A 
HETATM    9  O2  UNL     1      33.558   7.844  14.428  1.00  0.00    -0.264 OA
ENDROOT
BRANCH   1  10
HETATM   10  N2  UNL     1      32.999   6.055  16.380  1.00  0.00    -0.383 N 
ATOM     11  H2  UNL     1      33.600   5.270  16.130  1.00  0.00     0.159 HD
BRANCH  10  12
HETATM   12  C8  UNL     1      31.575   5.834  16.444  1.00  0.00     0.125 C 
BRANCH  12  13
HETATM   13  C7  UNL     1      30.868   5.886  15.124  1.00  0.00     0.063 C 
BRANCH  13  14
HETATM   14  C6  UNL     1      29.980   7.034  14.882  1.00  0.00     0.057 C 
BRANCH  14  15
HETATM   15  N1  UNL     1      30.403   8.277  14.488  1.00  0.00    -0.402 N 
ATOM     16  H1  UNL     1      31.111   8.725  15.071  1.00  0.00     0.158 HD
BRANCH  15  17
HETATM   17  C5  UNL     1      29.972   8.986  13.382  1.00  0.00     0.119 C 
BRANCH  17  18
HETATM   18  C4  UNL     1      30.715  10.331  13.248  1.00  0.00     0.023 C 
BRANCH  18  19
HETATM   19  C2  UNL     1      31.557  10.320  11.983  1.00  0.00    -0.021 C 
HETATM   20  C1  UNL     1      31.442  11.627  11.261  1.00  0.00     0.009 C 
HETATM   21  C3  UNL     1      31.108   9.197  11.053  1.00  0.00     0.009 C 
ENDBRANCH  18  19
ENDBRANCH  17  18
ENDBRANCH  15  17
ENDBRANCH  14  15
ENDBRANCH  13  14
ENDBRANCH  12  13
ENDBRANCH  10  12
ENDBRANCH   1  10
BRANCH   2  22
HETATM   22  N3  UNL     1      33.742   6.868  19.044  1.00  0.00    -0.263 N 
ATOM     23  H3  UNL     1      34.240   5.982  19.132  1.00  0.00     0.194 HD
BRANCH  22  24
HETATM   24  O1  UNL     1      32.928   7.237  19.913  1.00  0.00    -0.289 OA
ATOM     25  H1  UNL     1      32.639   6.595  20.550  1.00  0.00     0.244 HD
ENDBRANCH  22  24
ENDBRANCH   2  22
BRANCH   3  26
HETATM   26  N4  UNL     1      34.823   9.286  19.338  1.00  0.00    -0.365 N 
ATOM     27  H4  UNL     1      34.013   9.460  19.933  1.00  0.00     0.162 HD
BRANCH  26  28
HETATM   28  C12 UNL     1      36.066   9.431  19.993  1.00  0.00     0.021 C 
HETATM   29  C13 UNL     1      37.240   8.871  19.215  1.00  0.00     0.037 C 
HETATM   30  C14 UNL     1      36.268  10.877  20.387  1.00  0.00     0.037 C 
HETATM   31  C15 UNL     1      35.933   8.664  21.328  1.00  0.00     0.037 C 
ENDBRANCH  26  28
ENDBRANCH   3  26
TORSDOF 12
ENDMDL
MODEL 4
REMARK VINA RESULT: -7.082897118      1.527      1.959
REMARK  12 active torsions:
REMARK  status: ('A' for Active; 'I' for Inactive)
REMARK    1  A    between atoms: C2_2  and  C4_4 
REMARK    2  A    between atoms: C4_4  and  C5_5 
REMARK    3  A    between atoms: C5_5  and  N1_6 
REMARK    4  A    between atoms: N1_6  and  C6_8 
REMARK    5  A    between atoms: C6_8  and  C7_9 
REMARK    6  A    between atoms: C7_9  and  C8_10 
REMARK    7  A    between atoms: C8_10  and  N2_11 
REMARK    8  A    between atoms: N2_11  and  C9_13 
REMARK    9  A    between atoms: C10_14  and  N3_15 
REMARK   10  A    between atoms: N3_15  and  O1_17 
REMARK   11  A    between atoms: C11_19  and  N4_20 
REMARK   12  A    between atoms: N4_20  and  C12_22 
ROOT
HETATM    1  C9  UNL     1      32.387   8.013  16.178  1.00  0.00     0.131 A 
HETATM    2  C10 UNL     1      33.226   7.409  17.092  1.00  0.00     0.131 A 
HETATM    3  C11 UNL     1      34.575   7.734  17.194  1.00  0.00     0.148 A 
HETATM    4  N5  UNL     1      35.046   8.666  16.367  1.00  0.00    -0.279 N 
ATOM      5  H5  UNL     1      36.032   8.921  16.423  1.00  0.00     0.189 HD
HETATM    6  N6  UNL     1      34.272   9.277  15.466  1.00  0.00    -0.259 N 
HETATM    7  C16 UNL     1      34.892  10.290  14.602  1.00  0.00     0.181 C 
HETATM    8  C17 UNL     1      32.975   8.981  15.350  1.00  0.00     0.290 A 
HETATM    9  O2  UNL     1      32.233   9.554  14.502  1.00  0.00    -0.264 OA
ENDROOT
BRANCH   1  10
HETATM   10  N2  UNL     1      31.007   7.715  16.061  1.00  0.00    -0.383 N 
ATOM     11  H2  UNL     1      30.354   8.196  16.679  1.00  0.00     0.159 HD
BRANCH  10  12
HETATM   12  C8  UNL     1      30.478   6.765  15.113  1.00  0.00     0.125 C 
BRANCH  12  13
HETATM   13  C7  UNL     1      29.453   7.317  14.171  1.00  0.00     0.063 C 
BRANCH  13  14
HETATM   14  C6  UNL     1      29.835   7.438  12.755  1.00  0.00     0.057 C 
BRANCH  14  15
HETATM   15  N1  UNL     1      30.939   8.113  12.301  1.00  0.00    -0.402 N 
ATOM     16  H1  UNL     1      31.782   8.047  12.871  1.00  0.00     0.158 HD
BRANCH  15  17
HETATM   17  C5  UNL     1      31.027   8.875  11.151  1.00  0.00     0.119 C 
BRANCH  17  18
HETATM   18  C4  UNL     1      31.065  10.383  11.474  1.00  0.00     0.023 C 
BRANCH  18  19
HETATM   19  C2  UNL     1      31.958  11.094  10.471  1.00  0.00    -0.021 C 
HETATM   20  C1  UNL     1      33.385  11.074  10.925  1.00  0.00     0.009 C 
HETATM   21  C3  UNL     1      31.513  12.543  10.293  1.00  0.00     0.009 C 
ENDBRANCH  18  19
ENDBRANCH  17  18
ENDBRANCH  15  17
ENDBRANCH  14  15
ENDBRANCH  13  14
ENDBRANCH  12  13
ENDBRANCH  10  12
ENDBRANCH   1  10
BRANCH   2  22
HETATM   22  N3  UNL     1      32.711   6.385  17.969  1.00  0.00    -0.263 N 
ATOM     23  H3  UNL     1      32.510   6.581  18.949  1.00  0.00     0.194 HD
BRANCH  22  24
HETATM   24  O1  UNL     1      32.519   5.251  17.487  1.00  0.00    -0.289 OA
ATOM     25  H1  UNL     1      32.999   4.524  17.864  1.00  0.00     0.244 HD
ENDBRANCH  22  24
ENDBRANCH   2  22
BRANCH   3  26
HETATM   26  N4  UNL     1      35.268   7.128  18.063  1.00  0.00    -0.365 N 
ATOM     27  H4  UNL     1      35.482   6.159  17.828  1.00  0.00     0.162 HD
BRANCH  26  28
HETATM   28  C12 UNL     1      35.799   7.556  19.301  1.00  0.00     0.021 C 
HETATM   29  C13 UNL     1      35.338   8.936  19.723  1.00  0.00     0.037 C 
HETATM   30  C14 UNL     1      35.534   6.507  20.357  1.00  0.00     0.037 C 
HETATM   31  C15 UNL     1      37.334   7.567  19.121  1.00  0.00     0.037 C 
ENDBRANCH  26  28
ENDBRANCH   3  26
TORSDOF 12
ENDMDL
MODEL 5
REMARK VINA RESULT: -7.021365578      1.435      2.063
REMARK  12 active torsions:
REMARK  status: ('A' for Active; 'I' for Inactive)
REMARK    1  A    between atoms: C2_2  and  C4_4 
REMARK    2  A    between atoms: C4_4  and  C5_5 
REMARK    3  A    between atoms: C5_5  and  N1_6 
REMARK    4  A    between atoms: N1_6  and  C6_8 
REMARK    5  A    between atoms: C6_8  and  C7_9 
REMARK    6  A    between atoms: C7_9  and  C8_10 
REMARK    7  A    between atoms: C8_10  and  N2_11 
REMARK    8  A    between atoms: N2_11  and  C9_13 
REMARK    9  A    between atoms: C10_14  and  N3_15 
REMARK   10  A    between atoms: N3_15  and  O1_17 
REMARK   11  A    between atoms: C11_19  and  N4_20 
REMARK   12  A    between atoms: N4_20  and  C12_22 
ROOT
HETATM    1  C9  UNL     1      33.097   7.976  15.744  1.00  0.00     0.131 A 
HETATM    2  C10 UNL     1      33.290   8.028  17.110  1.00  0.00     0.131 A 
HETATM    3  C11 UNL     1      34.167   8.928  17.705  1.00  0.00     0.148 A 
HETATM    4  N5  UNL     1      34.831   9.759  16.903  1.00  0.00    -0.279 N 
ATOM      5  H5  UNL     1      35.480  10.429  17.316  1.00  0.00     0.189 HD
HETATM    6  N6  UNL     1      34.677   9.746  15.577  1.00  0.00    -0.259 N 
HETATM    7  C16 UNL     1      35.457  10.705  14.784  1.00  0.00     0.181 C 
HETATM    8  C17 UNL     1      33.841   8.890  14.983  1.00  0.00     0.290 A 
HETATM    9  O2  UNL     1      33.686   8.869  13.729  1.00  0.00    -0.264 OA
ENDROOT
BRANCH   1  10
HETATM   10  N2  UNL     1      32.199   7.081  15.111  1.00  0.00    -0.383 N 
ATOM     11  H2  UNL     1      32.568   6.206  14.740  1.00  0.00     0.159 HD
BRANCH  10  12
HETATM   12  C8  UNL     1      30.788   7.344  14.965  1.00  0.00     0.125 C 
BRANCH  12  13
HETATM   13  C7  UNL     1      30.370   7.810  13.604  1.00  0.00     0.063 C 
BRANCH  13  14
HETATM   14  C6  UNL     1      30.064   9.241  13.447  1.00  0.00     0.057 C 
BRANCH  14  15
HETATM   15  N1  UNL     1      30.713  10.253  14.106  1.00  0.00    -0.402 N 
ATOM     16  H1  UNL     1      30.681  10.229  15.126  1.00  0.00     0.158 HD
BRANCH  15  17
HETATM   17  C5  UNL     1      31.406  11.303  13.533  1.00  0.00     0.119 C 
BRANCH  17  18
HETATM   18  C4  UNL     1      30.792  11.712  12.178  1.00  0.00     0.023 C 
BRANCH  18  19
HETATM   19  C2  UNL     1      31.824  11.525  11.077  1.00  0.00    -0.021 C 
HETATM   20  C1  UNL     1      31.705  12.610  10.053  1.00  0.00     0.009 C 
HETATM   21  C3  UNL     1      31.636  10.173  10.394  1.00  0.00     0.009 C 
ENDBRANCH  18  19
ENDBRANCH  17  18
ENDBRANCH  15  17
ENDBRANCH  14  15
ENDBRANCH  13  14
ENDBRANCH  12  13
ENDBRANCH  10  12
ENDBRANCH   1  10
BRANCH   2  22
HETATM   22  N3  UNL     1      32.583   7.108  17.968  1.00  0.00    -0.263 N 
ATOM     23  H3  UNL     1      31.733   7.390  18.457  1.00  0.00     0.194 HD
BRANCH  22  24
HETATM   24  O1  UNL     1      33.044   5.957  18.091  1.00  0.00    -0.289 OA
ATOM     25  H1  UNL     1      33.965   5.827  17.898  1.00  0.00     0.244 HD
ENDBRANCH  22  24
ENDBRANCH   2  22
BRANCH   3  26
HETATM   26  N4  UNL     1      34.280   8.904  18.966  1.00  0.00    -0.365 N 
ATOM     27  H4  UNL     1      33.459   9.245  19.467  1.00  0.00     0.162 HD
BRANCH  26  28
HETATM   28  C12 UNL     1      35.339   8.488  19.803  1.00  0.00     0.021 C 
HETATM   29  C13 UNL     1      36.401   7.674  19.091  1.00  0.00     0.037 C 
HETATM   30  C14 UNL     1      35.913   9.684  20.529  1.00  0.00     0.037 C 
HETATM   31  C15 UNL     1      34.691   7.620  20.905  1.00  0.00     0.037 C 
ENDBRANCH  26  28
ENDBRANCH   3  26
TORSDOF 12
ENDMDL
