MODEL 1
REMARK VINA RESULT: -8.240419686      0.000      0.000
REMARK  12 active torsions:
REMARK  status: ('A' for Active; 'I' for Inactive)
REMARK    1  A    between atoms: C2_2  and  C3_3 
REMARK    2  A    between atoms: C3_3  and  C4_4 
REMARK    3  A    between atoms: C4_4  and  C5_5 
REMARK    4  A    between atoms: C5_5  and  C6_6 
REMARK    5  A    between atoms: C6_6  and  C7_7 
REMARK    6  A    between atoms: C7_7  and  C8_8 
REMARK    7  A    between atoms: C8_8  and  C9_9 
REMARK    8  A    between atoms: C9_9  and  C10_10 
REMARK    9  A    between atoms: C10_10  and  C12_12 
REMARK   10  A    between atoms: C15_17  and  O3_18 
REMARK   11  A    between atoms: C16_20  and  O4_21 
REMARK   12  A    between atoms: C18_25  and  O6_26 
ROOT
HETATM    1  C12 UNL     1      31.153   6.652  13.984  1.00  0.00     0.183 C 
HETATM    2  O1  UNL     1      32.374   7.367  14.174  1.00  0.00    -0.348 OA
HETATM    3  C13 UNL     1      32.857   7.333  15.429  1.00  0.00     0.291 C 
HETATM    4  O2  UNL     1      33.915   8.256  15.602  1.00  0.00    -0.356 OA
HETATM    5  C14 UNL     1      34.670   7.800  16.677  1.00  0.00     0.205 C 
HETATM    6  C15 UNL     1      33.785   7.248  17.766  1.00  0.00     0.173 C 
HETATM    7  C16 UNL     1      32.440   7.937  17.756  1.00  0.00     0.182 C 
HETATM    8  C17 UNL     1      31.782   7.777  16.399  1.00  0.00     0.211 C 
HETATM    9  O5  UNL     1      30.795   6.839  16.388  1.00  0.00    -0.346 OA
HETATM   10  C18 UNL     1      30.726   6.040  15.253  1.00  0.00     0.286 C 
ENDROOT
BRANCH   1  11
HETATM   11  C10 UNL     1      30.192   7.569  13.325  1.00  0.00     0.015 C 
HETATM   12  C11 UNL     1      28.739   7.065  13.566  1.00  0.00     0.012 C 
BRANCH  11  13
HETATM   13  C9  UNL     1      30.240   9.017  13.446  1.00  0.00     0.007 C 
BRANCH  13  14
HETATM   14  C8  UNL     1      30.658   9.934  12.383  1.00  0.00     0.000 C 
BRANCH  14  15
HETATM   15  C7  UNL     1      31.065   9.153  11.107  1.00  0.00     0.000 C 
BRANCH  15  16
HETATM   16  C6  UNL     1      31.764  10.139  10.175  1.00  0.00     0.000 C 
BRANCH  16  17
HETATM   17  C5  UNL     1      31.747  11.525  10.748  1.00  0.00     0.000 C 
BRANCH  17  18
HETATM   18  C4  UNL     1      31.775  12.583   9.683  1.00  0.00     0.000 C 
BRANCH  18  19
HETATM   19  C3  UNL     1      31.427  12.016   8.358  1.00  0.00    -0.000 C 
BRANCH  19  20
HETATM   20  C2  UNL     1      30.972  13.051   7.357  1.00  0.00    -0.005 C 
HETATM   21  C1  UNL     1      29.677  12.728   6.691  1.00  0.00     0.005 C 
ENDBRANCH  19  20
ENDBRANCH  18  19
ENDBRANCH  17  18
ENDBRANCH  16  17
ENDBRANCH  15  16
ENDBRANCH  14  15
ENDBRANCH  13  14
ENDBRANCH  11  13
ENDBRANCH   1  11
BRANCH  10  22
HETATM   22  O6  UNL     1      31.510   4.855  15.453  1.00  0.00    -0.369 OA
ATOM     23  H6  UNL     1      31.392   4.579  16.355  1.00  0.00     0.212 HD
ENDBRANCH  10  22
BRANCH   7  24
HETATM   24  O4  UNL     1      32.695   9.316  17.911  1.00  0.00    -0.390 OA
ATOM     25  H4  UNL     1      31.852   9.752  17.878  1.00  0.00     0.210 HD
ENDBRANCH   7  24
BRANCH   6  26
HETATM   26  O3  UNL     1      34.338   7.499  19.039  1.00  0.00    -0.391 OA
ATOM     27  H3  UNL     1      34.790   8.334  19.053  1.00  0.00     0.210 HD
ENDBRANCH   6  26
TORSDOF 12
ENDMDL
MODEL 2
REMARK VINA RESULT: -8.087655867      2.968      4.822
REMARK  12 active torsions:
REMARK  status: ('A' for Active; 'I' for Inactive)
REMARK    1  A    between atoms: C2_2  and  C3_3 
REMARK    2  A    between atoms: C3_3  and  C4_4 
REMARK    3  A    between atoms: C4_4  and  C5_5 
REMARK    4  A    between atoms: C5_5  and  C6_6 
REMARK    5  A    between atoms: C6_6  and  C7_7 
REMARK    6  A    between atoms: C7_7  and  C8_8 
REMARK    7  A    between atoms: C8_8  and  C9_9 
REMARK    8  A    between atoms: C9_9  and  C10_10 
REMARK    9  A    between atoms: C10_10  and  C12_12 
REMARK   10  A    between atoms: C15_17  and  O3_18 
REMARK   11  A    between atoms: C16_20  and  O4_21 
REMARK   12  A    between atoms: C18_25  and  O6_26 
ROOT
HETATM    1  C12 UNL     1      34.563   9.540  15.813  1.00  0.00     0.183 C 
HETATM    2  O1  UNL     1      34.126   9.735  17.159  1.00  0.00    -0.348 OA
HETATM    3  C13 UNL     1      34.922   9.187  18.093  1.00  0.00     0.291 C 
HETATM    4  O2  UNL     1      34.308   9.198  19.368  1.00  0.00    -0.356 OA
HETATM    5  C14 UNL     1      35.334   9.131  20.305  1.00  0.00     0.205 C 
HETATM    6  C15 UNL     1      36.423   8.192  19.851  1.00  0.00     0.173 C 
HETATM    7  C16 UNL     1      35.852   7.107  18.967  1.00  0.00     0.182 C 
HETATM    8  C17 UNL     1      35.146   7.724  17.775  1.00  0.00     0.211 C 
HETATM    9  O5  UNL     1      35.871   7.651  16.625  1.00  0.00    -0.346 OA
HETATM   10  C18 UNL     1      35.815   8.766  15.797  1.00  0.00     0.286 C 
ENDROOT
BRANCH   1  11
HETATM   11  C10 UNL     1      33.421   8.987  15.045  1.00  0.00     0.015 C 
HETATM   12  C11 UNL     1      33.908   8.541  13.635  1.00  0.00     0.012 C 
BRANCH  11  13
HETATM   13  C9  UNL     1      32.484   8.011  15.576  1.00  0.00     0.007 C 
BRANCH  13  14
HETATM   14  C8  UNL     1      32.224   6.694  14.991  1.00  0.00     0.000 C 
BRANCH  14  15
HETATM   15  C7  UNL     1      30.702   6.409  14.921  1.00  0.00     0.000 C 
BRANCH  15  16
HETATM   16  C6  UNL     1      30.366   6.093  13.466  1.00  0.00     0.000 C 
BRANCH  16  17
HETATM   17  C5  UNL     1      29.754   7.280  12.784  1.00  0.00     0.000 C 
BRANCH  17  18
HETATM   18  C4  UNL     1      30.640   7.841  11.710  1.00  0.00     0.000 C 
BRANCH  18  19
HETATM   19  C3  UNL     1      30.738   9.317  11.815  1.00  0.00    -0.000 C 
BRANCH  19  20
HETATM   20  C2  UNL     1      30.323   9.856  13.164  1.00  0.00    -0.005 C 
HETATM   21  C1  UNL     1      30.798  11.242  13.440  1.00  0.00     0.005 C 
ENDBRANCH  19  20
ENDBRANCH  18  19
ENDBRANCH  17  18
ENDBRANCH  16  17
ENDBRANCH  15  16
ENDBRANCH  14  15
ENDBRANCH  13  14
ENDBRANCH  11  13
ENDBRANCH   1  11
BRANCH  10  22
HETATM   22  O6  UNL     1      36.887   9.661  16.126  1.00  0.00    -0.369 OA
ATOM     23  H6  UNL     1      37.696   9.271  15.815  1.00  0.00     0.212 HD
ENDBRANCH  10  22
BRANCH   7  24
HETATM   24  O4  UNL     1      34.855   6.456  19.724  1.00  0.00    -0.390 OA
ATOM     25  H4  UNL     1      35.308   5.961  20.397  1.00  0.00     0.210 HD
ENDBRANCH   7  24
BRANCH   6  26
HETATM   26  O3  UNL     1      37.004   7.528  20.951  1.00  0.00    -0.391 OA
ATOM     27  H3  UNL     1      37.699   6.946  20.666  1.00  0.00     0.210 HD
ENDBRANCH   6  26
TORSDOF 12
ENDMDL
MODEL 3
REMARK VINA RESULT: -8.055373149      1.339      2.241
REMARK  12 active torsions:
REMARK  status: ('A' for Active; 'I' for Inactive)
REMARK    1  A    between atoms: C2_2  and  C3_3 
REMARK    2  A    between atoms: C3_3  and  C4_4 
REMARK    3  A    between atoms: C4_4  and  C5_5 
REMARK    4  A    between atoms: C5_5  and  C6_6 
REMARK    5  A    between atoms: C6_6  and  C7_7 
REMARK    6  A    between atoms: C7_7  and  C8_8 
REMARK    7  A    between atoms: C8_8  and  C9_9 
REMARK    8  A    between atoms: C9_9  and  C10_10 
REMARK    9  A    between atoms: C10_10  and  C12_12 
REMARK   10  A    between atoms: C15_17  and  O3_18 
REMARK   11  A    between atoms: C16_20  and  O4_21 
REMARK   12  A    between atoms: C18_25  and  O6_26 
ROOT
HETATM    1  C12 UNL     1      31.140   6.626  13.982  1.00  0.00     0.183 C 
HETATM    2  O1  UNL     1      32.363   7.343  14.156  1.00  0.00    -0.348 OA
HETATM    3  C13 UNL     1      32.849   7.330  15.410  1.00  0.00     0.291 C 
HETATM    4  O2  UNL     1      33.909   8.254  15.563  1.00  0.00    -0.356 OA
HETATM    5  C14 UNL     1      34.667   7.816  16.644  1.00  0.00     0.205 C 
HETATM    6  C15 UNL     1      33.784   7.285  17.746  1.00  0.00     0.173 C 
HETATM    7  C16 UNL     1      32.440   7.976  17.727  1.00  0.00     0.182 C 
HETATM    8  C17 UNL     1      31.778   7.792  16.375  1.00  0.00     0.211 C 
HETATM    9  O5  UNL     1      30.789   6.856  16.383  1.00  0.00    -0.346 OA
HETATM   10  C18 UNL     1      30.715   6.037  15.263  1.00  0.00     0.286 C 
ENDROOT
BRANCH   1  11
HETATM   11  C10 UNL     1      30.178   7.533  13.309  1.00  0.00     0.015 C 
HETATM   12  C11 UNL     1      28.724   7.052  13.589  1.00  0.00     0.012 C 
BRANCH  11  13
HETATM   13  C9  UNL     1      30.243   8.983  13.385  1.00  0.00     0.007 C 
BRANCH  13  14
HETATM   14  C8  UNL     1      30.695   9.859  12.302  1.00  0.00     0.000 C 
BRANCH  14  15
HETATM   15  C7  UNL     1      31.074   9.035  11.044  1.00  0.00     0.000 C 
BRANCH  15  16
HETATM   16  C6  UNL     1      31.528  10.024   9.973  1.00  0.00     0.000 C 
BRANCH  16  17
HETATM   17  C5  UNL     1      31.807  11.372  10.569  1.00  0.00     0.000 C 
BRANCH  17  18
HETATM   18  C4  UNL     1      33.136  11.921  10.138  1.00  0.00     0.000 C 
BRANCH  18  19
HETATM   19  C3  UNL     1      34.216  10.926  10.340  1.00  0.00    -0.000 C 
BRANCH  19  20
HETATM   20  C2  UNL     1      34.588  10.723  11.790  1.00  0.00    -0.005 C 
HETATM   21  C1  UNL     1      34.617   9.294  12.218  1.00  0.00     0.005 C 
ENDBRANCH  19  20
ENDBRANCH  18  19
ENDBRANCH  17  18
ENDBRANCH  16  17
ENDBRANCH  15  16
ENDBRANCH  14  15
ENDBRANCH  13  14
ENDBRANCH  11  13
ENDBRANCH   1  11
BRANCH  10  22
HETATM   22  O6  UNL     1      31.498   4.855  15.482  1.00  0.00    -0.369 OA
ATOM     23  H6  UNL     1      32.390   5.045  15.214  1.00  0.00     0.212 HD
ENDBRANCH  10  22
BRANCH   7  24
HETATM   24  O4  UNL     1      32.697   9.357  17.857  1.00  0.00    -0.390 OA
ATOM     25  H4  UNL     1      32.628   9.727  16.985  1.00  0.00     0.210 HD
ENDBRANCH   7  24
BRANCH   6  26
HETATM   26  O3  UNL     1      34.341   7.557  19.012  1.00  0.00    -0.391 OA
ATOM     27  H3  UNL     1      33.843   7.130  19.700  1.00  0.00     0.210 HD
ENDBRANCH   6  26
TORSDOF 12
ENDMDL
MODEL 4
REMARK VINA RESULT: -8.027678993      1.259      1.755
REMARK  12 active torsions:
REMARK  status: ('A' for Active; 'I' for Inactive)
REMARK    1  A    between atoms: C2_2  and  C3_3 
REMARK    2  A    between atoms: C3_3  and  C4_4 
REMARK    3  A    between atoms: C4_4  and  C5_5 
REMARK    4  A    between atoms: C5_5  and  C6_6 
REMARK    5  A    between atoms: C6_6  and  C7_7 
REMARK    6  A    between atoms: C7_7  and  C8_8 
REMARK    7  A    between atoms: C8_8  and  C9_9 
REMARK    8  A    between atoms: C9_9  and  C10_10 
REMARK    9  A    between atoms: C10_10  and  C12_12 
REMARK   10  A    between atoms: C15_17  and  O3_18 
REMARK   11  A    between atoms: C16_20  and  O4_21 
REMARK   12  A    between atoms: C18_25  and  O6_26 
ROOT
HETATM    1  C12 UNL     1      31.369   6.348  13.781  1.00  0.00     0.183 C 
HETATM    2  O1  UNL     1      32.552   7.100  14.052  1.00  0.00    -0.348 OA
HETATM    3  C13 UNL     1      32.850   7.228  15.357  1.00  0.00     0.291 C 
HETATM    4  O2  UNL     1      33.875   8.182  15.563  1.00  0.00    -0.356 OA
HETATM    5  C14 UNL     1      34.468   7.873  16.783  1.00  0.00     0.205 C 
HETATM    6  C15 UNL     1      33.435   7.445  17.795  1.00  0.00     0.173 C 
HETATM    7  C16 UNL     1      32.106   8.106  17.508  1.00  0.00     0.182 C 
HETATM    8  C17 UNL     1      31.649   7.770  16.102  1.00  0.00     0.211 C 
HETATM    9  O5  UNL     1      30.671   6.823  16.067  1.00  0.00    -0.346 OA
HETATM   10  C18 UNL     1      30.764   5.889  15.042  1.00  0.00     0.286 C 
ENDROOT
BRANCH   1  11
HETATM   11  C10 UNL     1      30.514   7.161  12.883  1.00  0.00     0.015 C 
HETATM   12  C11 UNL     1      29.018   6.805  13.123  1.00  0.00     0.012 C 
BRANCH  11  13
HETATM   13  C9  UNL     1      30.658   8.597  12.708  1.00  0.00     0.007 C 
BRANCH  13  14
HETATM   14  C8  UNL     1      29.905   9.612  13.448  1.00  0.00     0.000 C 
BRANCH  14  15
HETATM   15  C7  UNL     1      30.620  10.986  13.386  1.00  0.00     0.000 C 
BRANCH  15  16
HETATM   16  C6  UNL     1      31.414  11.027  12.083  1.00  0.00     0.000 C 
BRANCH  16  17
HETATM   17  C5  UNL     1      31.090  12.260  11.293  1.00  0.00     0.000 C 
BRANCH  17  18
HETATM   18  C4  UNL     1      31.888  12.351  10.025  1.00  0.00     0.000 C 
BRANCH  18  19
HETATM   19  C3  UNL     1      32.143  11.006   9.457  1.00  0.00    -0.000 C 
BRANCH  19  20
HETATM   20  C2  UNL     1      33.582  10.780   9.058  1.00  0.00    -0.005 C 
HETATM   21  C1  UNL     1      34.575  11.437   9.956  1.00  0.00     0.005 C 
ENDBRANCH  19  20
ENDBRANCH  18  19
ENDBRANCH  17  18
ENDBRANCH  16  17
ENDBRANCH  15  16
ENDBRANCH  14  15
ENDBRANCH  13  14
ENDBRANCH  11  13
ENDBRANCH   1  11
BRANCH  10  22
HETATM   22  O6  UNL     1      31.509   4.750  15.496  1.00  0.00    -0.369 OA
ATOM     23  H6  UNL     1      31.796   4.928  16.385  1.00  0.00     0.212 HD
ENDBRANCH  10  22
BRANCH   7  24
HETATM   24  O4  UNL     1      32.339   9.498  17.527  1.00  0.00    -0.390 OA
ATOM     25  H4  UNL     1      31.486   9.914  17.494  1.00  0.00     0.210 HD
ENDBRANCH   7  24
BRANCH   6  26
HETATM   26  O3  UNL     1      33.801   7.858  19.092  1.00  0.00    -0.391 OA
ATOM     27  H3  UNL     1      33.035   7.953  19.647  1.00  0.00     0.210 HD
ENDBRANCH   6  26
TORSDOF 12
ENDMDL
MODEL 5
REMARK VINA RESULT: -8.006172712      2.640      4.686
REMARK  12 active torsions:
REMARK  status: ('A' for Active; 'I' for Inactive)
REMARK    1  A    between atoms: C2_2  and  C3_3 
REMARK    2  A    between atoms: C3_3  and  C4_4 
REMARK    3  A    between atoms: C4_4  and  C5_5 
REMARK    4  A    between atoms: C5_5  and  C6_6 
REMARK    5  A    between atoms: C6_6  and  C7_7 
REMARK    6  A    between atoms: C7_7  and  C8_8 
REMARK    7  A    between atoms: C8_8  and  C9_9 
REMARK    8  A    between atoms: C9_9  and  C10_10 
REMARK    9  A    between atoms: C10_10  and  C12_12 
REMARK   10  A    between atoms: C15_17  and  O3_18 
REMARK   11  A    between atoms: C16_20  and  O4_21 
REMARK   12  A    between atoms: C18_25  and  O6_26 
ROOT
HETATM    1  C12 UNL     1      32.876   7.245  17.551  1.00  0.00     0.183 C 
HETATM    2  O1  UNL     1      33.569   6.698  18.673  1.00  0.00    -0.348 OA
HETATM    3  C13 UNL     1      34.601   7.440  19.113  1.00  0.00     0.291 C 
HETATM    4  O2  UNL     1      35.387   6.728  20.050  1.00  0.00    -0.356 OA
HETATM    5  C14 UNL     1      36.053   7.679  20.816  1.00  0.00     0.205 C 
HETATM    6  C15 UNL     1      36.513   8.836  19.965  1.00  0.00     0.173 C 
HETATM    7  C16 UNL     1      36.782   8.378  18.550  1.00  0.00     0.182 C 
HETATM    8  C17 UNL     1      35.536   7.744  17.962  1.00  0.00     0.211 C 
HETATM    9  O5  UNL     1      34.878   8.559  17.092  1.00  0.00    -0.346 OA
HETATM   10  C18 UNL     1      33.490   8.524  17.155  1.00  0.00     0.286 C 
ENDROOT
BRANCH   1  11
HETATM   11  C10 UNL     1      32.796   6.190  16.512  1.00  0.00     0.015 C 
HETATM   12  C11 UNL     1      31.910   5.018  17.027  1.00  0.00     0.012 C 
BRANCH  11  13
HETATM   13  C9  UNL     1      32.507   6.451  15.112  1.00  0.00     0.007 C 
BRANCH  13  14
HETATM   14  C8  UNL     1      31.976   5.465  14.168  1.00  0.00     0.000 C 
BRANCH  14  15
HETATM   15  C7  UNL     1      31.909   6.052  12.734  1.00  0.00     0.000 C 
BRANCH  15  16
HETATM   16  C6  UNL     1      30.492   6.579  12.525  1.00  0.00     0.000 C 
BRANCH  16  17
HETATM   17  C5  UNL     1      30.441   7.546  11.379  1.00  0.00     0.000 C 
BRANCH  17  18
HETATM   18  C4  UNL     1      30.856   8.931  11.783  1.00  0.00     0.000 C 
BRANCH  18  19
HETATM   19  C3  UNL     1      30.273   9.302  13.094  1.00  0.00    -0.000 C 
BRANCH  19  20
HETATM   20  C2  UNL     1      30.435  10.765  13.437  1.00  0.00    -0.005 C 
HETATM   21  C1  UNL     1      31.023  11.586  12.340  1.00  0.00     0.005 C 
ENDBRANCH  19  20
ENDBRANCH  18  19
ENDBRANCH  17  18
ENDBRANCH  16  17
ENDBRANCH  15  16
ENDBRANCH  14  15
ENDBRANCH  13  14
ENDBRANCH  11  13
ENDBRANCH   1  11
BRANCH  10  22
HETATM   22  O6  UNL     1      33.026   9.532  18.065  1.00  0.00    -0.369 OA
ATOM     23  H6  UNL     1      32.345  10.027  17.626  1.00  0.00     0.212 HD
ENDBRANCH  10  22
BRANCH   7  24
HETATM   24  O4  UNL     1      37.745   7.351  18.637  1.00  0.00    -0.390 OA
ATOM     25  H4  UNL     1      37.272   6.531  18.564  1.00  0.00     0.210 HD
ENDBRANCH   7  24
BRANCH   6  26
HETATM   26  O3  UNL     1      37.734   9.356  20.441  1.00  0.00    -0.391 OA
ATOM     27  H3  UNL     1      37.662  10.288  20.613  1.00  0.00     0.210 HD
ENDBRANCH   6  26
TORSDOF 12
ENDMDL
