MODEL 1
REMARK VINA RESULT: -7.234354392      0.000      0.000
REMARK  13 active torsions:
REMARK  status: ('A' for Active; 'I' for Inactive)
REMARK    1  A    between atoms: C2_2  and  C4_4 
REMARK    2  A    between atoms: C4_4  and  C5_5 
REMARK    3  A    between atoms: C5_5  and  N1_6 
REMARK    4  A    between atoms: N1_6  and  C6_8 
REMARK    5  A    between atoms: C8_11  and  C9_12 
REMARK    6  A    between atoms: C9_12  and  C10_13 
REMARK    7  A    between atoms: C10_13  and  O1_14 
REMARK    8  A    between atoms: C10_13  and  C11_16 
REMARK    9  A    between atoms: C11_16  and  N2_17 
REMARK   10  A    between atoms: N2_17  and  O2_19 
REMARK   11  A    between atoms: N3_21  and  C13_22 
REMARK   12  A    between atoms: C14_23  and  C16_26 
REMARK   13  A    between atoms: C16_26  and  O3_27 
ROOT
HETATM    1  C13 UNL     1      30.715   6.450  13.235  1.00  0.00     0.119 C 
HETATM    2  C14 UNL     1      29.455   6.732  13.222  1.00  0.00     0.061 C 
HETATM    3  C15 UNL     1      28.514   5.794  12.718  1.00  0.00     0.098 C 
HETATM    4  N4  UNL     1      27.742   5.016  12.309  1.00  0.00    -0.192 NA
ENDROOT
BRANCH   2   5
HETATM    5  C16 UNL     1      28.934   8.019  13.721  1.00  0.00     0.215 C 
BRANCH   5   6
HETATM    6  O3  UNL     1      28.658   7.847  15.092  1.00  0.00    -0.396 OA
ATOM      7  H3  UNL     1      29.489   7.690  15.525  1.00  0.00     0.209 HD
ENDBRANCH   5   6
ENDBRANCH   2   5
BRANCH   1   8
HETATM    8  N3  UNL     1      31.738   7.360  13.736  1.00  0.00    -0.305 N 
HETATM    9  C6  UNL     1      32.341   8.178  12.882  1.00  0.00     0.151 A 
HETATM   10  S1  UNL     1      33.445   9.057  13.843  1.00  0.00    -0.064 SA
HETATM   11  C7  UNL     1      33.079   8.320  15.338  1.00  0.00     0.079 A 
HETATM   12  C8  UNL     1      32.107   7.420  15.006  1.00  0.00     0.027 A 
BRANCH   9  13
HETATM   13  N1  UNL     1      32.121   8.275  11.577  1.00  0.00    -0.370 N 
ATOM     14  H1  UNL     1      32.640   7.671  10.940  1.00  0.00     0.161 HD
BRANCH  13  15
HETATM   15  C5  UNL     1      31.182   9.197  11.044  1.00  0.00     0.122 C 
BRANCH  15  16
HETATM   16  C4  UNL     1      31.906  10.209  10.201  1.00  0.00     0.023 C 
BRANCH  16  17
HETATM   17  C2  UNL     1      32.068  11.554  10.850  1.00  0.00    -0.021 C 
HETATM   18  C1  UNL     1      31.078  11.669  12.024  1.00  0.00     0.009 C 
HETATM   19  C3  UNL     1      31.737  12.716   9.916  1.00  0.00     0.009 C 
ENDBRANCH  16  17
ENDBRANCH  15  16
ENDBRANCH  13  15
ENDBRANCH   9  13
BRANCH  12  20
HETATM   20  C9  UNL     1      31.511   6.550  16.116  1.00  0.00     0.091 C 
BRANCH  20  21
HETATM   21  C10 UNL     1      32.604   5.959  16.975  1.00  0.00     0.139 C 
BRANCH  21  22
HETATM   22  O1  UNL     1      32.568   4.574  16.850  1.00  0.00    -0.394 OA
ATOM     23  H1  UNL     1      33.358   4.288  16.407  1.00  0.00     0.210 HD
ENDBRANCH  21  22
BRANCH  21  24
HETATM   24  C11 UNL     1      32.533   6.364  18.405  1.00  0.00     0.151 C 
BRANCH  24  25
HETATM   25  N2  UNL     1      33.854   6.786  18.879  1.00  0.00    -0.201 NA
HETATM   26  C12 UNL     1      33.768   8.230  19.151  1.00  0.00     0.143 C 
BRANCH  25  27
HETATM   27  O2  UNL     1      34.795   6.627  17.951  1.00  0.00    -0.313 OA
ATOM     28  H2  UNL     1      35.659   6.855  18.274  1.00  0.00     0.237 HD
ENDBRANCH  25  27
ENDBRANCH  24  25
ENDBRANCH  21  24
ENDBRANCH  20  21
ENDBRANCH  12  20
ENDBRANCH   1   8
TORSDOF 13
ENDMDL
MODEL 2
REMARK VINA RESULT: -7.153675492      2.736      4.483
REMARK  13 active torsions:
REMARK  status: ('A' for Active; 'I' for Inactive)
REMARK    1  A    between atoms: C2_2  and  C4_4 
REMARK    2  A    between atoms: C4_4  and  C5_5 
REMARK    3  A    between atoms: C5_5  and  N1_6 
REMARK    4  A    between atoms: N1_6  and  C6_8 
REMARK    5  A    between atoms: C8_11  and  C9_12 
REMARK    6  A    between atoms: C9_12  and  C10_13 
REMARK    7  A    between atoms: C10_13  and  O1_14 
REMARK    8  A    between atoms: C10_13  and  C11_16 
REMARK    9  A    between atoms: C11_16  and  N2_17 
REMARK   10  A    between atoms: N2_17  and  O2_19 
REMARK   11  A    between atoms: N3_21  and  C13_22 
REMARK   12  A    between atoms: C14_23  and  C16_26 
REMARK   13  A    between atoms: C16_26  and  O3_27 
ROOT
HETATM    1  C13 UNL     1      33.488   7.461  15.424  1.00  0.00     0.119 C 
HETATM    2  C14 UNL     1      32.808   7.563  16.517  1.00  0.00     0.061 C 
HETATM    3  C15 UNL     1      32.277   6.405  17.144  1.00  0.00     0.098 C 
HETATM    4  N4  UNL     1      31.847   5.447  17.661  1.00  0.00    -0.192 NA
ENDROOT
BRANCH   2   5
HETATM    5  C16 UNL     1      32.551   8.865  17.161  1.00  0.00     0.215 C 
BRANCH   5   6
HETATM    6  O3  UNL     1      31.463   8.683  18.037  1.00  0.00    -0.396 OA
ATOM      7  H3  UNL     1      31.395   9.471  18.564  1.00  0.00     0.209 HD
ENDBRANCH   5   6
ENDBRANCH   2   5
BRANCH   1   8
HETATM    8  N3  UNL     1      34.063   8.604  14.723  1.00  0.00    -0.305 N 
HETATM    9  C6  UNL     1      33.337   9.218  13.798  1.00  0.00     0.151 A 
HETATM   10  S1  UNL     1      34.347  10.472  13.230  1.00  0.00    -0.064 SA
HETATM   11  C7  UNL     1      35.693  10.147  14.228  1.00  0.00     0.079 A 
HETATM   12  C8  UNL     1      35.279   9.069  14.958  1.00  0.00     0.027 A 
BRANCH   9  13
HETATM   13  N1  UNL     1      32.105   8.911  13.414  1.00  0.00    -0.370 N 
ATOM     14  H1  UNL     1      31.316   9.233  13.975  1.00  0.00     0.161 HD
BRANCH  13  15
HETATM   15  C5  UNL     1      31.855   8.147  12.244  1.00  0.00     0.122 C 
BRANCH  15  16
HETATM   16  C4  UNL     1      30.371   8.015  12.046  1.00  0.00     0.023 C 
BRANCH  16  17
HETATM   17  C2  UNL     1      29.711   7.019  12.958  1.00  0.00    -0.021 C 
HETATM   18  C1  UNL     1      28.893   6.027  12.112  1.00  0.00     0.009 C 
HETATM   19  C3  UNL     1      28.714   7.658  13.923  1.00  0.00     0.009 C 
ENDBRANCH  16  17
ENDBRANCH  15  16
ENDBRANCH  13  15
ENDBRANCH   9  13
BRANCH  12  20
HETATM   20  C9  UNL     1      36.241   8.478  15.992  1.00  0.00     0.091 C 
BRANCH  20  21
HETATM   21  C10 UNL     1      36.405   9.416  17.164  1.00  0.00     0.139 C 
BRANCH  21  22
HETATM   22  O1  UNL     1      37.733   9.831  17.220  1.00  0.00    -0.394 OA
ATOM     23  H1  UNL     1      38.126   9.702  16.365  1.00  0.00     0.210 HD
ENDBRANCH  21  22
BRANCH  21  24
HETATM   24  C11 UNL     1      35.978   8.836  18.466  1.00  0.00     0.151 C 
BRANCH  24  25
HETATM   25  N2  UNL     1      36.513   7.481  18.618  1.00  0.00    -0.201 NA
HETATM   26  C12 UNL     1      35.830   6.879  19.775  1.00  0.00     0.143 C 
BRANCH  25  27
HETATM   27  O2  UNL     1      37.814   7.483  18.901  1.00  0.00    -0.313 OA
ATOM     28  H2  UNL     1      38.330   7.890  18.214  1.00  0.00     0.237 HD
ENDBRANCH  25  27
ENDBRANCH  24  25
ENDBRANCH  21  24
ENDBRANCH  20  21
ENDBRANCH  12  20
ENDBRANCH   1   8
TORSDOF 13
ENDMDL
MODEL 3
REMARK VINA RESULT: -7.107511697      1.177      1.213
REMARK  13 active torsions:
REMARK  status: ('A' for Active; 'I' for Inactive)
REMARK    1  A    between atoms: C2_2  and  C4_4 
REMARK    2  A    between atoms: C4_4  and  C5_5 
REMARK    3  A    between atoms: C5_5  and  N1_6 
REMARK    4  A    between atoms: N1_6  and  C6_8 
REMARK    5  A    between atoms: C8_11  and  C9_12 
REMARK    6  A    between atoms: C9_12  and  C10_13 
REMARK    7  A    between atoms: C10_13  and  O1_14 
REMARK    8  A    between atoms: C10_13  and  C11_16 
REMARK    9  A    between atoms: C11_16  and  N2_17 
REMARK   10  A    between atoms: N2_17  and  O2_19 
REMARK   11  A    between atoms: N3_21  and  C13_22 
REMARK   12  A    between atoms: C14_23  and  C16_26 
REMARK   13  A    between atoms: C16_26  and  O3_27 
ROOT
HETATM    1  C13 UNL     1      30.785   6.344  12.912  1.00  0.00     0.119 C 
HETATM    2  C14 UNL     1      29.539   6.645  13.068  1.00  0.00     0.061 C 
HETATM    3  C15 UNL     1      28.523   5.772  12.596  1.00  0.00     0.098 C 
HETATM    4  N4  UNL     1      27.689   5.046  12.213  1.00  0.00    -0.192 NA
ENDROOT
BRANCH   2   5
HETATM    5  C16 UNL     1      29.112   7.890  13.735  1.00  0.00     0.215 C 
BRANCH   5   6
HETATM    6  O3  UNL     1      28.824   7.561  15.075  1.00  0.00    -0.396 OA
ATOM      7  H3  UNL     1      29.650   7.562  15.544  1.00  0.00     0.209 HD
ENDBRANCH   5   6
ENDBRANCH   2   5
BRANCH   1   8
HETATM    8  N3  UNL     1      31.881   7.189  13.368  1.00  0.00    -0.305 N 
HETATM    9  C6  UNL     1      32.249   8.221  12.620  1.00  0.00     0.151 A 
HETATM   10  S1  UNL     1      33.534   8.937  13.485  1.00  0.00    -0.064 SA
HETATM   11  C7  UNL     1      33.548   7.856  14.806  1.00  0.00     0.079 A 
HETATM   12  C8  UNL     1      32.540   6.986  14.498  1.00  0.00     0.027 A 
BRANCH   9  13
HETATM   13  N1  UNL     1      31.723   8.595  11.460  1.00  0.00    -0.370 N 
ATOM     14  H1  UNL     1      31.694   7.927  10.690  1.00  0.00     0.161 HD
BRANCH  13  15
HETATM   15  C5  UNL     1      31.201   9.900  11.263  1.00  0.00     0.122 C 
BRANCH  15  16
HETATM   16  C4  UNL     1      31.743  10.462   9.978  1.00  0.00     0.023 C 
BRANCH  16  17
HETATM   17  C2  UNL     1      32.014  11.939  10.014  1.00  0.00    -0.021 C 
HETATM   18  C1  UNL     1      31.120  12.589  11.086  1.00  0.00     0.009 C 
HETATM   19  C3  UNL     1      31.668  12.645   8.705  1.00  0.00     0.009 C 
ENDBRANCH  16  17
ENDBRANCH  15  16
ENDBRANCH  13  15
ENDBRANCH   9  13
BRANCH  12  20
HETATM   20  C9  UNL     1      32.240   5.846  15.475  1.00  0.00     0.091 C 
BRANCH  20  21
HETATM   21  C10 UNL     1      31.541   6.370  16.708  1.00  0.00     0.139 C 
BRANCH  21  22
HETATM   22  O1  UNL     1      31.227   7.711  16.504  1.00  0.00    -0.394 OA
ATOM     23  H1  UNL     1      31.184   8.143  17.349  1.00  0.00     0.210 HD
ENDBRANCH  21  22
BRANCH  21  24
HETATM   24  C11 UNL     1      32.319   6.193  17.964  1.00  0.00     0.151 C 
BRANCH  24  25
HETATM   25  N2  UNL     1      33.006   7.439  18.315  1.00  0.00    -0.201 NA
HETATM   26  C12 UNL     1      34.095   7.079  19.238  1.00  0.00     0.143 C 
BRANCH  25  27
HETATM   27  O2  UNL     1      32.212   8.283  18.970  1.00  0.00    -0.313 OA
ATOM     28  H2  UNL     1      32.516   9.182  18.909  1.00  0.00     0.237 HD
ENDBRANCH  25  27
ENDBRANCH  24  25
ENDBRANCH  21  24
ENDBRANCH  20  21
ENDBRANCH  12  20
ENDBRANCH   1   8
TORSDOF 13
ENDMDL
MODEL 4
REMARK VINA RESULT: -7.102050669      1.677      2.146
REMARK  13 active torsions:
REMARK  status: ('A' for Active; 'I' for Inactive)
REMARK    1  A    between atoms: C2_2  and  C4_4 
REMARK    2  A    between atoms: C4_4  and  C5_5 
REMARK    3  A    between atoms: C5_5  and  N1_6 
REMARK    4  A    between atoms: N1_6  and  C6_8 
REMARK    5  A    between atoms: C8_11  and  C9_12 
REMARK    6  A    between atoms: C9_12  and  C10_13 
REMARK    7  A    between atoms: C10_13  and  O1_14 
REMARK    8  A    between atoms: C10_13  and  C11_16 
REMARK    9  A    between atoms: C11_16  and  N2_17 
REMARK   10  A    between atoms: N2_17  and  O2_19 
REMARK   11  A    between atoms: N3_21  and  C13_22 
REMARK   12  A    between atoms: C14_23  and  C16_26 
REMARK   13  A    between atoms: C16_26  and  O3_27 
ROOT
HETATM    1  C13 UNL     1      31.447   7.685  14.150  1.00  0.00     0.119 C 
HETATM    2  C14 UNL     1      31.165   6.440  13.961  1.00  0.00     0.061 C 
HETATM    3  C15 UNL     1      29.883   6.057  13.485  1.00  0.00     0.098 C 
HETATM    4  N4  UNL     1      28.828   5.747  13.085  1.00  0.00    -0.192 NA
ENDROOT
BRANCH   2   5
HETATM    5  C16 UNL     1      32.142   5.366  14.225  1.00  0.00     0.215 C 
BRANCH   5   6
HETATM    6  O3  UNL     1      31.699   4.680  15.373  1.00  0.00    -0.396 OA
ATOM      7  H3  UNL     1      32.469   4.316  15.794  1.00  0.00     0.209 HD
ENDBRANCH   5   6
ENDBRANCH   2   5
BRANCH   1   8
HETATM    8  N3  UNL     1      32.740   8.154  14.637  1.00  0.00    -0.305 N 
HETATM    9  C6  UNL     1      33.647   8.558  13.757  1.00  0.00     0.151 A 
HETATM   10  S1  UNL     1      34.988   9.016  14.709  1.00  0.00    -0.064 SA
HETATM   11  C7  UNL     1      34.312   8.661  16.236  1.00  0.00     0.079 A 
HETATM   12  C8  UNL     1      33.066   8.200  15.919  1.00  0.00     0.027 A 
BRANCH   9  13
HETATM   13  N1  UNL     1      33.521   8.590  12.437  1.00  0.00    -0.370 N 
ATOM     14  H1  UNL     1      33.205   7.753  11.948  1.00  0.00     0.161 HD
BRANCH  13  15
HETATM   15  C5  UNL     1      33.815   9.759  11.686  1.00  0.00     0.122 C 
BRANCH  15  16
HETATM   16  C4  UNL     1      33.038  10.917  12.247  1.00  0.00     0.023 C 
BRANCH  16  17
HETATM   17  C2  UNL     1      31.588  10.939  11.851  1.00  0.00    -0.021 C 
HETATM   18  C1  UNL     1      31.341  12.135  10.913  1.00  0.00     0.009 C 
HETATM   19  C3  UNL     1      30.645  11.142  13.035  1.00  0.00     0.009 C 
ENDBRANCH  16  17
ENDBRANCH  15  16
ENDBRANCH  13  15
ENDBRANCH   9  13
BRANCH  12  20
HETATM   20  C9  UNL     1      32.136   7.774  17.058  1.00  0.00     0.091 C 
BRANCH  20  21
HETATM   21  C10 UNL     1      32.884   6.940  18.072  1.00  0.00     0.139 C 
BRANCH  21  22
HETATM   22  O1  UNL     1      32.390   5.639  18.029  1.00  0.00    -0.394 OA
ATOM     23  H1  UNL     1      31.671   5.567  18.645  1.00  0.00     0.210 HD
ENDBRANCH  21  22
BRANCH  21  24
HETATM   24  C11 UNL     1      32.829   7.481  19.457  1.00  0.00     0.151 C 
BRANCH  24  25
HETATM   25  N2  UNL     1      34.140   7.361  20.101  1.00  0.00    -0.201 NA
HETATM   26  C12 UNL     1      34.815   8.659  19.939  1.00  0.00     0.143 C 
BRANCH  25  27
HETATM   27  O2  UNL     1      34.910   6.451  19.507  1.00  0.00    -0.313 OA
ATOM     28  H2  UNL     1      34.458   5.625  19.382  1.00  0.00     0.237 HD
ENDBRANCH  25  27
ENDBRANCH  24  25
ENDBRANCH  21  24
ENDBRANCH  20  21
ENDBRANCH  12  20
ENDBRANCH   1   8
TORSDOF 13
ENDMDL
MODEL 5
REMARK VINA RESULT: -7.070097395      2.659      4.007
REMARK  13 active torsions:
REMARK  status: ('A' for Active; 'I' for Inactive)
REMARK    1  A    between atoms: C2_2  and  C4_4 
REMARK    2  A    between atoms: C4_4  and  C5_5 
REMARK    3  A    between atoms: C5_5  and  N1_6 
REMARK    4  A    between atoms: N1_6  and  C6_8 
REMARK    5  A    between atoms: C8_11  and  C9_12 
REMARK    6  A    between atoms: C9_12  and  C10_13 
REMARK    7  A    between atoms: C10_13  and  O1_14 
REMARK    8  A    between atoms: C10_13  and  C11_16 
REMARK    9  A    between atoms: C11_16  and  N2_17 
REMARK   10  A    between atoms: N2_17  and  O2_19 
REMARK   11  A    between atoms: N3_21  and  C13_22 
REMARK   12  A    between atoms: C14_23  and  C16_26 
REMARK   13  A    between atoms: C16_26  and  O3_27 
ROOT
HETATM    1  C13 UNL     1      33.634   7.477  15.528  1.00  0.00     0.119 C 
HETATM    2  C14 UNL     1      32.890   7.576  16.578  1.00  0.00     0.061 C 
HETATM    3  C15 UNL     1      32.341   6.414  17.184  1.00  0.00     0.098 C 
HETATM    4  N4  UNL     1      31.898   5.454  17.684  1.00  0.00    -0.192 NA
ENDROOT
BRANCH   2   5
HETATM    5  C16 UNL     1      32.576   8.879  17.196  1.00  0.00     0.215 C 
BRANCH   5   6
HETATM    6  O3  UNL     1      31.474   8.674  18.050  1.00  0.00    -0.396 OA
ATOM      7  H3  UNL     1      31.564   9.287  18.771  1.00  0.00     0.209 HD
ENDBRANCH   5   6
ENDBRANCH   2   5
BRANCH   1   8
HETATM    8  N3  UNL     1      34.231   8.622  14.852  1.00  0.00    -0.305 N 
HETATM    9  C6  UNL     1      33.538   9.237  13.901  1.00  0.00     0.151 A 
HETATM   10  S1  UNL     1      34.564  10.495  13.374  1.00  0.00    -0.064 SA
HETATM   11  C7  UNL     1      35.873  10.173  14.421  1.00  0.00     0.079 A 
HETATM   12  C8  UNL     1      35.436   9.091  15.132  1.00  0.00     0.027 A 
BRANCH   9  13
HETATM   13  N1  UNL     1      32.322   8.927  13.471  1.00  0.00    -0.370 N 
ATOM     14  H1  UNL     1      31.530   9.029  14.106  1.00  0.00     0.161 HD
BRANCH  13  15
HETATM   15  C5  UNL     1      32.093   8.457  12.152  1.00  0.00     0.122 C 
BRANCH  15  16
HETATM   16  C4  UNL     1      30.936   9.207  11.552  1.00  0.00     0.023 C 
BRANCH  16  17
HETATM   17  C2  UNL     1      31.335  10.350  10.661  1.00  0.00    -0.021 C 
HETATM   18  C1  UNL     1      32.744  10.084  10.102  1.00  0.00     0.009 C 
HETATM   19  C3  UNL     1      31.430  11.683  11.401  1.00  0.00     0.009 C 
ENDBRANCH  16  17
ENDBRANCH  15  16
ENDBRANCH  13  15
ENDBRANCH   9  13
BRANCH  12  20
HETATM   20  C9  UNL     1      36.361   8.500  16.200  1.00  0.00     0.091 C 
BRANCH  20  21
HETATM   21  C10 UNL     1      36.462   9.427  17.389  1.00  0.00     0.139 C 
BRANCH  21  22
HETATM   22  O1  UNL     1      37.770   9.894  17.479  1.00  0.00    -0.394 OA
ATOM     23  H1  UNL     1      37.785  10.806  17.214  1.00  0.00     0.210 HD
ENDBRANCH  21  22
BRANCH  21  24
HETATM   24  C11 UNL     1      36.031   8.810  18.673  1.00  0.00     0.151 C 
BRANCH  24  25
HETATM   25  N2  UNL     1      36.569   7.452  18.789  1.00  0.00    -0.201 NA
HETATM   26  C12 UNL     1      35.930   6.839  19.964  1.00  0.00     0.143 C 
BRANCH  25  27
HETATM   27  O2  UNL     1      37.881   7.449  19.022  1.00  0.00    -0.313 OA
ATOM     28  H2  UNL     1      38.146   6.718  19.569  1.00  0.00     0.237 HD
ENDBRANCH  25  27
ENDBRANCH  24  25
ENDBRANCH  21  24
ENDBRANCH  20  21
ENDBRANCH  12  20
ENDBRANCH   1   8
TORSDOF 13
ENDMDL
