MODEL 1
REMARK VINA RESULT: -7.959644198      0.000      0.000
REMARK  12 active torsions:
REMARK  status: ('A' for Active; 'I' for Inactive)
REMARK    1  A    between atoms: C2_2  and  C3_3 
REMARK    2  A    between atoms: C3_3  and  C4_4 
REMARK    3  A    between atoms: C3_3  and  C10_10 
REMARK    4  A    between atoms: C4_4  and  C5_5 
REMARK    5  A    between atoms: C5_5  and  C6_6 
REMARK    6  A    between atoms: C10_10  and  C11_11 
REMARK    7  A    between atoms: C11_11  and  O1_12 
REMARK    8  A    between atoms: O1_12  and  N1_13 
REMARK    9  A    between atoms: C13_17  and  C14_18 
REMARK   10  A    between atoms: C14_18  and  O3_20 
REMARK   11  A    between atoms: C16_22  and  O4_23 
REMARK   12  A    between atoms: C18_26  and  O5_27 
ROOT
HETATM    1  N1  UNL     1      32.309   5.726  16.969  1.00  0.00    -0.246 N 
ATOM      2  H1  UNL     1      31.963   5.200  17.772  1.00  0.00     0.196 HD
HETATM    3  C12 UNL     1      33.035   6.745  17.201  1.00  0.00     0.168 C 
HETATM    4  O2  UNL     1      33.541   7.506  16.176  1.00  0.00    -0.325 OA
HETATM    5  C13 UNL     1      34.800   8.119  16.315  1.00  0.00     0.187 C 
HETATM    6  C16 UNL     1      34.939   8.779  17.646  1.00  0.00     0.153 C 
HETATM    7  C17 UNL     1      33.743   8.597  18.556  1.00  0.00     0.074 C 
HETATM    8  C18 UNL     1      33.347   7.125  18.598  1.00  0.00     0.197 C 
ENDROOT
BRANCH   1   9
HETATM    9  O1  UNL     1      31.964   5.293  15.747  1.00  0.00    -0.279 OA
BRANCH   9  10
HETATM   10  C11 UNL     1      30.975   5.795  14.915  1.00  0.00     0.202 C 
BRANCH  10  11
HETATM   11  C10 UNL     1      31.568   6.032  13.535  1.00  0.00     0.033 C 
BRANCH  11  12
HETATM   12  C3  UNL     1      30.514   6.042  12.454  1.00  0.00    -0.013 C 
BRANCH  12  13
HETATM   13  C2  UNL     1      29.147   6.017  13.100  1.00  0.00     0.000 C 
HETATM   14  C1  UNL     1      28.065   5.622  12.124  1.00  0.00     0.005 C 
ENDBRANCH  12  13
BRANCH  12  15
HETATM   15  C4  UNL     1      30.677   7.191  11.522  1.00  0.00     0.008 C 
BRANCH  15  16
HETATM   16  C5  UNL     1      30.697   8.512  12.242  1.00  0.00     0.028 C 
BRANCH  16  17
HETATM   17  C6  UNL     1      31.129   9.622  11.334  1.00  0.00    -0.025 C 
HETATM   18  C7  UNL     1      31.122  10.859  11.791  1.00  0.00    -0.091 C 
HETATM   19  C8  UNL     1      30.700  11.166  13.177  1.00  0.00     0.042 C 
HETATM   20  C9  UNL     1      31.545  11.982  10.913  1.00  0.00     0.042 C 
ENDBRANCH  16  17
ENDBRANCH  15  16
ENDBRANCH  12  15
ENDBRANCH  11  12
ENDBRANCH  10  11
ENDBRANCH   9  10
ENDBRANCH   1   9
BRANCH   8  21
HETATM   21  O5  UNL     1      34.439   6.400  19.082  1.00  0.00    -0.387 OA
ATOM     22  H5  UNL     1      34.417   6.343  20.030  1.00  0.00     0.210 HD
ENDBRANCH   8  21
BRANCH   5  23
HETATM   23  C14 UNL     1      35.033   9.110  15.187  1.00  0.00     0.146 C 
HETATM   24  C15 UNL     1      34.125   8.865  14.009  1.00  0.00     0.042 C 
BRANCH  23  25
HETATM   25  O3  UNL     1      36.391   9.051  14.793  1.00  0.00    -0.393 OA
ATOM     26  H3  UNL     1      36.510   9.577  14.011  1.00  0.00     0.210 HD
ENDBRANCH  23  25
ENDBRANCH   5  23
BRANCH   6  27
HETATM   27  O4  UNL     1      35.226  10.127  17.448  1.00  0.00    -0.393 OA
ATOM     28  H4  UNL     1      35.625  10.472  18.238  1.00  0.00     0.210 HD
ENDBRANCH   6  27
TORSDOF 12
ENDMDL
MODEL 2
REMARK VINA RESULT: -7.848788813      1.702      4.641
REMARK  12 active torsions:
REMARK  status: ('A' for Active; 'I' for Inactive)
REMARK    1  A    between atoms: C2_2  and  C3_3 
REMARK    2  A    between atoms: C3_3  and  C4_4 
REMARK    3  A    between atoms: C3_3  and  C10_10 
REMARK    4  A    between atoms: C4_4  and  C5_5 
REMARK    5  A    between atoms: C5_5  and  C6_6 
REMARK    6  A    between atoms: C10_10  and  C11_11 
REMARK    7  A    between atoms: C11_11  and  O1_12 
REMARK    8  A    between atoms: O1_12  and  N1_13 
REMARK    9  A    between atoms: C13_17  and  C14_18 
REMARK   10  A    between atoms: C14_18  and  O3_20 
REMARK   11  A    between atoms: C16_22  and  O4_23 
REMARK   12  A    between atoms: C18_26  and  O5_27 
ROOT
HETATM    1  N1  UNL     1      34.160   9.725  14.735  1.00  0.00    -0.246 N 
ATOM      2  H1  UNL     1      34.556  10.574  15.139  1.00  0.00     0.196 HD
HETATM    3  C12 UNL     1      33.811   8.799  15.533  1.00  0.00     0.168 C 
HETATM    4  O2  UNL     1      33.268   7.625  15.069  1.00  0.00    -0.325 OA
HETATM    5  C13 UNL     1      32.294   6.955  15.832  1.00  0.00     0.187 C 
HETATM    6  C16 UNL     1      32.686   6.879  17.269  1.00  0.00     0.153 C 
HETATM    7  C17 UNL     1      33.990   7.576  17.593  1.00  0.00     0.074 C 
HETATM    8  C18 UNL     1      33.987   8.979  16.992  1.00  0.00     0.197 C 
ENDROOT
BRANCH   1   9
HETATM    9  O1  UNL     1      34.046   9.669  13.399  1.00  0.00    -0.279 OA
BRANCH   9  10
HETATM   10  C11 UNL     1      33.578  10.654  12.543  1.00  0.00     0.202 C 
BRANCH  10  11
HETATM   11  C10 UNL     1      32.067  10.750  12.683  1.00  0.00     0.033 C 
BRANCH  11  12
HETATM   12  C3  UNL     1      31.358  10.598  11.359  1.00  0.00    -0.013 C 
BRANCH  12  13
HETATM   13  C2  UNL     1      32.165  11.297  10.287  1.00  0.00     0.000 C 
HETATM   14  C1  UNL     1      31.645  12.685  10.001  1.00  0.00     0.005 C 
ENDBRANCH  12  13
BRANCH  12  15
HETATM   15  C4  UNL     1      31.092   9.173  11.026  1.00  0.00     0.008 C 
BRANCH  15  16
HETATM   16  C5  UNL     1      30.705   8.367  12.236  1.00  0.00     0.028 C 
BRANCH  16  17
HETATM   17  C6  UNL     1      29.953   7.130  11.850  1.00  0.00    -0.025 C 
HETATM   18  C7  UNL     1      28.974   6.710  12.627  1.00  0.00    -0.091 C 
HETATM   19  C8  UNL     1      28.607   7.438  13.864  1.00  0.00     0.042 C 
HETATM   20  C9  UNL     1      28.209   5.486  12.271  1.00  0.00     0.042 C 
ENDBRANCH  16  17
ENDBRANCH  15  16
ENDBRANCH  12  15
ENDBRANCH  11  12
ENDBRANCH  10  11
ENDBRANCH   9  10
ENDBRANCH   1   9
BRANCH   8  21
HETATM   21  O5  UNL     1      32.912   9.680  17.544  1.00  0.00    -0.387 OA
ATOM     22  H5  UNL     1      32.729   9.384  18.428  1.00  0.00     0.210 HD
ENDBRANCH   8  21
BRANCH   5  23
HETATM   23  C14 UNL     1      32.038   5.570  15.261  1.00  0.00     0.146 C 
HETATM   24  C15 UNL     1      32.335   5.491  13.786  1.00  0.00     0.042 C 
BRANCH  23  25
HETATM   25  O3  UNL     1      30.695   5.205  15.521  1.00  0.00    -0.393 OA
ATOM     26  H3  UNL     1      30.133   5.953  15.359  1.00  0.00     0.210 HD
ENDBRANCH  23  25
ENDBRANCH   5  23
BRANCH   6  27
HETATM   27  O4  UNL     1      32.718   5.542  17.653  1.00  0.00    -0.393 OA
ATOM     28  H4  UNL     1      31.974   5.369  18.219  1.00  0.00     0.210 HD
ENDBRANCH   6  27
TORSDOF 12
ENDMDL
MODEL 3
REMARK VINA RESULT: -7.818190836      1.683      3.981
REMARK  12 active torsions:
REMARK  status: ('A' for Active; 'I' for Inactive)
REMARK    1  A    between atoms: C2_2  and  C3_3 
REMARK    2  A    between atoms: C3_3  and  C4_4 
REMARK    3  A    between atoms: C3_3  and  C10_10 
REMARK    4  A    between atoms: C4_4  and  C5_5 
REMARK    5  A    between atoms: C5_5  and  C6_6 
REMARK    6  A    between atoms: C10_10  and  C11_11 
REMARK    7  A    between atoms: C11_11  and  O1_12 
REMARK    8  A    between atoms: O1_12  and  N1_13 
REMARK    9  A    between atoms: C13_17  and  C14_18 
REMARK   10  A    between atoms: C14_18  and  O3_20 
REMARK   11  A    between atoms: C16_22  and  O4_23 
REMARK   12  A    between atoms: C18_26  and  O5_27 
ROOT
HETATM    1  N1  UNL     1      32.781   8.517  16.169  1.00  0.00    -0.246 N 
ATOM      2  H1  UNL     1      31.823   8.207  16.003  1.00  0.00     0.196 HD
HETATM    3  C12 UNL     1      33.345   8.139  17.244  1.00  0.00     0.168 C 
HETATM    4  O2  UNL     1      34.634   8.511  17.542  1.00  0.00    -0.325 OA
HETATM    5  C13 UNL     1      35.470   7.630  18.253  1.00  0.00     0.187 C 
HETATM    6  C16 UNL     1      34.760   7.030  19.421  1.00  0.00     0.153 C 
HETATM    7  C17 UNL     1      33.310   7.446  19.544  1.00  0.00     0.074 C 
HETATM    8  C18 UNL     1      32.609   7.279  18.199  1.00  0.00     0.197 C 
ENDROOT
BRANCH   1   9
HETATM    9  O1  UNL     1      33.352   9.295  15.237  1.00  0.00    -0.279 OA
BRANCH   9  10
HETATM   10  C11 UNL     1      32.729   9.991  14.212  1.00  0.00     0.202 C 
BRANCH  10  11
HETATM   11  C10 UNL     1      31.325   9.440  14.026  1.00  0.00     0.033 C 
BRANCH  11  12
HETATM   12  C3  UNL     1      30.670   9.955  12.766  1.00  0.00    -0.013 C 
BRANCH  12  13
HETATM   13  C2  UNL     1      31.032  11.412  12.585  1.00  0.00     0.000 C 
HETATM   14  C1  UNL     1      31.431  11.725  11.163  1.00  0.00     0.005 C 
ENDBRANCH  12  13
BRANCH  12  15
HETATM   15  C4  UNL     1      31.021   9.133  11.576  1.00  0.00     0.008 C 
BRANCH  15  16
HETATM   16  C5  UNL     1      31.168   7.674  11.913  1.00  0.00     0.028 C 
BRANCH  16  17
HETATM   17  C6  UNL     1      29.934   6.905  11.551  1.00  0.00    -0.025 C 
HETATM   18  C7  UNL     1      29.288   6.253  12.498  1.00  0.00    -0.091 C 
HETATM   19  C8  UNL     1      29.757   6.271  13.903  1.00  0.00     0.042 C 
HETATM   20  C9  UNL     1      28.061   5.480  12.170  1.00  0.00     0.042 C 
ENDBRANCH  16  17
ENDBRANCH  15  16
ENDBRANCH  12  15
ENDBRANCH  11  12
ENDBRANCH  10  11
ENDBRANCH   9  10
ENDBRANCH   1   9
BRANCH   8  21
HETATM   21  O5  UNL     1      32.698   5.934  17.834  1.00  0.00    -0.387 OA
ATOM     22  H5  UNL     1      32.466   5.813  16.920  1.00  0.00     0.210 HD
ENDBRANCH   8  21
BRANCH   5  23
HETATM   23  C14 UNL     1      36.737   8.346  18.693  1.00  0.00     0.146 C 
HETATM   24  C15 UNL     1      37.106   9.480  17.773  1.00  0.00     0.042 C 
BRANCH  23  25
HETATM   25  O3  UNL     1      37.792   7.406  18.777  1.00  0.00    -0.393 OA
ATOM     26  H3  UNL     1      38.555   7.756  18.333  1.00  0.00     0.210 HD
ENDBRANCH  23  25
ENDBRANCH   5  23
BRANCH   6  27
HETATM   27  O4  UNL     1      35.474   7.327  20.578  1.00  0.00    -0.393 OA
ATOM     28  H4  UNL     1      35.207   6.725  21.263  1.00  0.00     0.210 HD
ENDBRANCH   6  27
TORSDOF 12
ENDMDL
MODEL 4
REMARK VINA RESULT: -7.775153038      1.808      4.418
REMARK  12 active torsions:
REMARK  status: ('A' for Active; 'I' for Inactive)
REMARK    1  A    between atoms: C2_2  and  C3_3 
REMARK    2  A    between atoms: C3_3  and  C4_4 
REMARK    3  A    between atoms: C3_3  and  C10_10 
REMARK    4  A    between atoms: C4_4  and  C5_5 
REMARK    5  A    between atoms: C5_5  and  C6_6 
REMARK    6  A    between atoms: C10_10  and  C11_11 
REMARK    7  A    between atoms: C11_11  and  O1_12 
REMARK    8  A    between atoms: O1_12  and  N1_13 
REMARK    9  A    between atoms: C13_17  and  C14_18 
REMARK   10  A    between atoms: C14_18  and  O3_20 
REMARK   11  A    between atoms: C16_22  and  O4_23 
REMARK   12  A    between atoms: C18_26  and  O5_27 
ROOT
HETATM    1  N1  UNL     1      35.034   9.498  14.049  1.00  0.00    -0.246 N 
ATOM      2  H1  UNL     1      35.938   9.816  13.699  1.00  0.00     0.196 HD
HETATM    3  C12 UNL     1      35.011   8.923  15.184  1.00  0.00     0.168 C 
HETATM    4  O2  UNL     1      33.835   8.467  15.728  1.00  0.00    -0.325 OA
HETATM    5  C13 UNL     1      33.651   8.497  17.122  1.00  0.00     0.187 C 
HETATM    6  C16 UNL     1      34.855   7.983  17.840  1.00  0.00     0.153 C 
HETATM    7  C17 UNL     1      36.005   7.608  16.931  1.00  0.00     0.074 C 
HETATM    8  C18 UNL     1      36.270   8.739  15.942  1.00  0.00     0.197 C 
ENDROOT
BRANCH   1   9
HETATM    9  O1  UNL     1      33.957   9.716  13.279  1.00  0.00    -0.279 OA
BRANCH   9  10
HETATM   10  C11 UNL     1      33.060  10.772  13.350  1.00  0.00     0.202 C 
BRANCH  10  11
HETATM   11  C10 UNL     1      31.651  10.213  13.455  1.00  0.00     0.033 C 
BRANCH  11  12
HETATM   12  C3  UNL     1      30.890  10.330  12.156  1.00  0.00    -0.013 C 
BRANCH  12  13
HETATM   13  C2  UNL     1      31.396  11.538  11.398  1.00  0.00     0.000 C 
HETATM   14  C1  UNL     1      31.736  11.207   9.965  1.00  0.00     0.005 C 
ENDBRANCH  12  13
BRANCH  12  15
HETATM   15  C4  UNL     1      30.966   9.084  11.347  1.00  0.00     0.008 C 
BRANCH  15  16
HETATM   16  C5  UNL     1      31.065   7.852  12.206  1.00  0.00     0.028 C 
BRANCH  16  17
HETATM   17  C6  UNL     1      30.070   6.813  11.786  1.00  0.00    -0.025 C 
HETATM   18  C7  UNL     1      29.029   6.578  12.562  1.00  0.00    -0.091 C 
HETATM   19  C8  UNL     1      28.829   7.318  13.829  1.00  0.00     0.042 C 
HETATM   20  C9  UNL     1      28.024   5.554  12.173  1.00  0.00     0.042 C 
ENDBRANCH  16  17
ENDBRANCH  15  16
ENDBRANCH  12  15
ENDBRANCH  11  12
ENDBRANCH  10  11
ENDBRANCH   9  10
ENDBRANCH   1   9
BRANCH   8  21
HETATM   21  O5  UNL     1      36.585   9.886  16.675  1.00  0.00    -0.387 OA
ATOM     22  H5  UNL     1      35.799  10.327  16.974  1.00  0.00     0.210 HD
ENDBRANCH   8  21
BRANCH   5  23
HETATM   23  C14 UNL     1      32.409   7.710  17.507  1.00  0.00     0.146 C 
HETATM   24  C15 UNL     1      31.822   6.954  16.344  1.00  0.00     0.042 C 
BRANCH  23  25
HETATM   25  O3  UNL     1      31.454   8.597  18.060  1.00  0.00    -0.393 OA
ATOM     26  H3  UNL     1      31.451   9.402  17.556  1.00  0.00     0.210 HD
ENDBRANCH  23  25
ENDBRANCH   5  23
BRANCH   6  27
HETATM   27  O4  UNL     1      34.473   6.912  18.643  1.00  0.00    -0.393 OA
ATOM     28  H4  UNL     1      35.242   6.393  18.845  1.00  0.00     0.210 HD
ENDBRANCH   6  27
TORSDOF 12
ENDMDL
MODEL 5
REMARK VINA RESULT: -7.629240574      1.937      2.691
REMARK  12 active torsions:
REMARK  status: ('A' for Active; 'I' for Inactive)
REMARK    1  A    between atoms: C2_2  and  C3_3 
REMARK    2  A    between atoms: C3_3  and  C4_4 
REMARK    3  A    between atoms: C3_3  and  C10_10 
REMARK    4  A    between atoms: C4_4  and  C5_5 
REMARK    5  A    between atoms: C5_5  and  C6_6 
REMARK    6  A    between atoms: C10_10  and  C11_11 
REMARK    7  A    between atoms: C11_11  and  O1_12 
REMARK    8  A    between atoms: O1_12  and  N1_13 
REMARK    9  A    between atoms: C13_17  and  C14_18 
REMARK   10  A    between atoms: C14_18  and  O3_20 
REMARK   11  A    between atoms: C16_22  and  O4_23 
REMARK   12  A    between atoms: C18_26  and  O5_27 
ROOT
HETATM    1  N1  UNL     1      32.384   8.670  16.914  1.00  0.00    -0.246 N 
ATOM      2  H1  UNL     1      31.418   8.344  16.935  1.00  0.00     0.196 HD
HETATM    3  C12 UNL     1      33.165   8.256  17.829  1.00  0.00     0.168 C 
HETATM    4  O2  UNL     1      34.482   8.644  17.872  1.00  0.00    -0.325 OA
HETATM    5  C13 UNL     1      35.460   7.752  18.350  1.00  0.00     0.187 C 
HETATM    6  C16 UNL     1      35.016   7.083  19.608  1.00  0.00     0.153 C 
HETATM    7  C17 UNL     1      33.618   7.458  20.049  1.00  0.00     0.074 C 
HETATM    8  C18 UNL     1      32.656   7.336  18.872  1.00  0.00     0.197 C 
ENDROOT
BRANCH   1   9
HETATM    9  O1  UNL     1      32.739   9.502  15.923  1.00  0.00    -0.279 OA
BRANCH   9  10
HETATM   10  C11 UNL     1      32.702   9.264  14.558  1.00  0.00     0.202 C 
BRANCH  10  11
HETATM   11  C10 UNL     1      32.362   7.801  14.323  1.00  0.00     0.033 C 
BRANCH  11  12
HETATM   12  C3  UNL     1      31.288   7.624  13.277  1.00  0.00    -0.013 C 
BRANCH  12  13
HETATM   13  C2  UNL     1      30.064   8.409  13.692  1.00  0.00     0.000 C 
HETATM   14  C1  UNL     1      28.857   7.521  13.878  1.00  0.00     0.005 C 
ENDBRANCH  12  13
BRANCH  12  15
HETATM   15  C4  UNL     1      31.763   7.995  11.917  1.00  0.00     0.008 C 
BRANCH  15  16
HETATM   16  C5  UNL     1      30.845   8.977  11.240  1.00  0.00     0.028 C 
BRANCH  16  17
HETATM   17  C6  UNL     1      31.615   9.965  10.417  1.00  0.00    -0.025 C 
HETATM   18  C7  UNL     1      31.701  11.213  10.834  1.00  0.00    -0.091 C 
HETATM   19  C8  UNL     1      31.054  11.651  12.093  1.00  0.00     0.042 C 
HETATM   20  C9  UNL     1      32.457  12.217  10.040  1.00  0.00     0.042 C 
ENDBRANCH  16  17
ENDBRANCH  15  16
ENDBRANCH  12  15
ENDBRANCH  11  12
ENDBRANCH  10  11
ENDBRANCH   9  10
ENDBRANCH   1   9
BRANCH   8  21
HETATM   21  O5  UNL     1      32.685   6.011  18.429  1.00  0.00    -0.387 OA
ATOM     22  H5  UNL     1      32.805   5.411  19.156  1.00  0.00     0.210 HD
ENDBRANCH   8  21
BRANCH   5  23
HETATM   23  C14 UNL     1      36.780   8.477  18.553  1.00  0.00     0.146 C 
HETATM   24  C15 UNL     1      37.076   9.455  17.446  1.00  0.00     0.042 C 
BRANCH  23  25
HETATM   25  O3  UNL     1      37.818   7.521  18.667  1.00  0.00    -0.393 OA
ATOM     26  H3  UNL     1      38.075   7.237  17.798  1.00  0.00     0.210 HD
ENDBRANCH  23  25
ENDBRANCH   5  23
BRANCH   6  27
HETATM   27  O4  UNL     1      35.950   7.343  20.606  1.00  0.00    -0.393 OA
ATOM     28  H4  UNL     1      35.841   8.241  20.899  1.00  0.00     0.210 HD
ENDBRANCH   6  27
TORSDOF 12
ENDMDL
