MODEL 1
REMARK VINA RESULT: -7.881720463      0.000      0.000
REMARK  13 active torsions:
REMARK  status: ('A' for Active; 'I' for Inactive)
REMARK    1  A    between atoms: C2_2  and  C3_3 
REMARK    2  A    between atoms: C3_3  and  C4_4 
REMARK    3  A    between atoms: C4_4  and  C5_5 
REMARK    4  A    between atoms: C5_5  and  C6_6 
REMARK    5  A    between atoms: C6_6  and  N1_7 
REMARK    6  A    between atoms: N1_7  and  C7_9 
REMARK    7  A    between atoms: C8_12  and  N3_13 
REMARK    8  A    between atoms: C10_17  and  N4_18 
REMARK    9  A    between atoms: N8_30  and  C13_31 
REMARK   10  A    between atoms: C14_33  and  C15_34 
REMARK   11  A    between atoms: C15_34  and  O2_35 
REMARK   12  A    between atoms: C16_37  and  O3_38 
REMARK   13  A    between atoms: C17_40  and  O4_41 
ROOT
HETATM    1  C7  UNL     1      41.163  31.446  21.485  1.00  0.00     0.693 A 
HETATM    2  N2  UNL     1      42.037  32.386  21.778  1.00  0.00    -0.175 N 
ATOM      3  H2  UNL     1      43.031  32.206  21.633  1.00  0.00     0.186 HD
HETATM    4  C8  UNL     1      41.646  33.581  22.265  1.00  0.00     0.132 A 
HETATM    5  C9  UNL     1      40.287  33.782  22.445  1.00  0.00     0.098 A 
HETATM    6  C10 UNL     1      39.846  34.978  22.943  1.00  0.00     0.132 A 
HETATM    7  N5  UNL     1      38.526  35.185  23.127  1.00  0.00    -0.176 N 
ATOM      8  H5  UNL     1      38.196  36.076  23.496  1.00  0.00     0.186 HD
HETATM    9  C11 UNL     1      37.648  34.218  22.824  1.00  0.00     0.679 A 
HETATM   10  N6  UNL     1      36.375  34.391  22.991  1.00  0.00    -0.234 N 
ATOM     11  H61 UNL     1      35.707  33.656  22.761  1.00  0.00     0.174 HD
ATOM     12  H62 UNL     1      36.038  35.280  23.361  1.00  0.00     0.174 HD
HETATM   13  N7  UNL     1      38.101  33.023  22.327  1.00  0.00    -0.175 N 
ATOM     14  H7  UNL     1      37.417  32.300  22.103  1.00  0.00     0.186 HD
HETATM   15  C12 UNL     1      39.387  32.762  22.123  1.00  0.00     0.164 A 
HETATM   16  N8  UNL     1      39.789  31.586  21.643  1.00  0.00    -0.111 N 
ENDROOT
BRANCH  16  17
HETATM   17  C13 UNL     1      38.915  30.550  21.309  1.00  0.00     0.175 C 
HETATM   18  O1  UNL     1      39.074  29.294  21.853  1.00  0.00    -0.326 OA
HETATM   19  C14 UNL     1      38.211  28.471  21.198  1.00  0.00     0.185 C 
HETATM   20  C16 UNL     1      37.761  29.100  19.927  1.00  0.00     0.186 C 
HETATM   21  C17 UNL     1      38.410  30.470  19.916  1.00  0.00     0.225 C 
BRANCH  19  22
HETATM   22  C15 UNL     1      37.068  28.113  22.133  1.00  0.00     0.199 C 
BRANCH  22  23
HETATM   23  O2  UNL     1      36.536  26.859  21.820  1.00  0.00    -0.398 OA
ATOM     24  H2  UNL     1      37.113  26.380  21.237  1.00  0.00     0.209 HD
ENDBRANCH  22  23
ENDBRANCH  19  22
BRANCH  20  25
HETATM   25  O3  UNL     1      36.389  29.283  19.977  1.00  0.00    -0.390 OA
ATOM     26  H3  UNL     1      35.963  28.445  19.842  1.00  0.00     0.210 HD
ENDBRANCH  20  25
BRANCH  21  27
HETATM   27  O4  UNL     1      39.268  30.545  18.877  1.00  0.00    -0.385 OA
ATOM     28  H4  UNL     1      39.925  29.872  18.749  1.00  0.00     0.210 HD
ENDBRANCH  21  27
ENDBRANCH  16  17
BRANCH   1  29
HETATM   29  N1  UNL     1      41.532  30.304  21.030  1.00  0.00    -0.205 N 
ATOM     30  H1  UNL     1      40.980  29.504  21.340  1.00  0.00     0.183 HD
BRANCH  29  31
HETATM   31  C6  UNL     1      42.600  30.010  20.158  1.00  0.00     0.079 C 
BRANCH  31  32
HETATM   32  C5  UNL     1      42.281  28.873  19.189  1.00  0.00     0.045 C 
BRANCH  32  33
HETATM   33  C4  UNL     1      43.523  28.518  18.446  1.00  0.00     0.005 C 
BRANCH  33  34
HETATM   34  C3  UNL     1      43.771  29.393  17.250  1.00  0.00     0.000 C 
BRANCH  34  35
HETATM   35  C2  UNL     1      42.566  29.536  16.370  1.00  0.00    -0.005 C 
HETATM   36  C1  UNL     1      42.599  28.415  15.348  1.00  0.00     0.005 C 
ENDBRANCH  34  35
ENDBRANCH  33  34
ENDBRANCH  32  33
ENDBRANCH  31  32
ENDBRANCH  29  31
ENDBRANCH   1  29
BRANCH   4  37
HETATM   37  N3  UNL     1      42.509  34.489  22.548  1.00  0.00    -0.384 N 
ATOM     38  H32 UNL     1      42.838  35.156  21.849  1.00  0.00     0.157 HD
ATOM     39  H31 UNL     1      42.892  34.571  23.489  1.00  0.00     0.157 HD
ENDBRANCH   4  37
BRANCH   6  40
HETATM   40  N4  UNL     1      40.729  35.884  23.216  1.00  0.00    -0.384 N 
ATOM     41  H42 UNL     1      41.700  35.805  22.912  1.00  0.00     0.157 HD
ATOM     42  H41 UNL     1      40.431  36.694  23.758  1.00  0.00     0.157 HD
ENDBRANCH   6  40
TORSDOF 13
ENDMDL
MODEL 2
REMARK VINA RESULT: -7.841487993      3.250      7.074
REMARK  13 active torsions:
REMARK  status: ('A' for Active; 'I' for Inactive)
REMARK    1  A    between atoms: C2_2  and  C3_3 
REMARK    2  A    between atoms: C3_3  and  C4_4 
REMARK    3  A    between atoms: C4_4  and  C5_5 
REMARK    4  A    between atoms: C5_5  and  C6_6 
REMARK    5  A    between atoms: C6_6  and  N1_7 
REMARK    6  A    between atoms: N1_7  and  C7_9 
REMARK    7  A    between atoms: C8_12  and  N3_13 
REMARK    8  A    between atoms: C10_17  and  N4_18 
REMARK    9  A    between atoms: N8_30  and  C13_31 
REMARK   10  A    between atoms: C14_33  and  C15_34 
REMARK   11  A    between atoms: C15_34  and  O2_35 
REMARK   12  A    between atoms: C16_37  and  O3_38 
REMARK   13  A    between atoms: C17_40  and  O4_41 
ROOT
HETATM    1  C7  UNL     1      39.967  30.317  20.283  1.00  0.00     0.693 A 
HETATM    2  N2  UNL     1      39.548  29.497  19.344  1.00  0.00    -0.175 N 
ATOM      3  H2  UNL     1      38.548  29.311  19.252  1.00  0.00     0.186 HD
HETATM    4  C8  UNL     1      40.410  28.896  18.500  1.00  0.00     0.132 A 
HETATM    5  C9  UNL     1      41.758  29.176  18.660  1.00  0.00     0.098 A 
HETATM    6  C10 UNL     1      42.670  28.583  17.829  1.00  0.00     0.132 A 
HETATM    7  N5  UNL     1      43.985  28.845  17.978  1.00  0.00    -0.176 N 
ATOM      8  H5  UNL     1      44.665  28.405  17.358  1.00  0.00     0.186 HD
HETATM    9  C11 UNL     1      44.397  29.683  18.939  1.00  0.00     0.679 A 
HETATM   10  N6  UNL     1      45.654  29.951  19.102  1.00  0.00    -0.234 N 
ATOM     11  H61 UNL     1      45.968  30.589  19.834  1.00  0.00     0.174 HD
ATOM     12  H62 UNL     1      46.340  29.514  18.487  1.00  0.00     0.174 HD
HETATM   13  N7  UNL     1      43.475  30.271  19.766  1.00  0.00    -0.175 N 
ATOM     14  H7  UNL     1      43.808  30.905  20.492  1.00  0.00     0.186 HD
HETATM   15  C12 UNL     1      42.169  30.053  19.668  1.00  0.00     0.164 A 
HETATM   16  N8  UNL     1      41.303  30.639  20.494  1.00  0.00    -0.111 N 
ENDROOT
BRANCH  16  17
HETATM   17  C13 UNL     1      41.682  31.522  21.508  1.00  0.00     0.175 C 
HETATM   18  O1  UNL     1      42.426  32.646  21.219  1.00  0.00    -0.326 OA
HETATM   19  C14 UNL     1      42.799  33.185  22.411  1.00  0.00     0.185 C 
HETATM   20  C16 UNL     1      42.644  32.186  23.502  1.00  0.00     0.186 C 
HETATM   21  C17 UNL     1      42.049  30.963  22.832  1.00  0.00     0.225 C 
BRANCH  19  22
HETATM   22  C15 UNL     1      42.005  34.461  22.642  1.00  0.00     0.199 C 
BRANCH  22  23
HETATM   23  O2  UNL     1      42.212  35.375  21.606  1.00  0.00    -0.398 OA
ATOM     24  H2  UNL     1      41.455  35.420  21.034  1.00  0.00     0.209 HD
ENDBRANCH  22  23
ENDBRANCH  19  22
BRANCH  20  25
HETATM   25  O3  UNL     1      41.718  32.660  24.417  1.00  0.00    -0.390 OA
ATOM     26  H3  UNL     1      41.742  32.110  25.191  1.00  0.00     0.210 HD
ENDBRANCH  20  25
BRANCH  21  27
HETATM   27  O4  UNL     1      42.925  29.940  22.920  1.00  0.00    -0.385 OA
ATOM     28  H4  UNL     1      42.690  29.148  23.387  1.00  0.00     0.210 HD
ENDBRANCH  21  27
ENDBRANCH  16  17
BRANCH   1  29
HETATM   29  N1  UNL     1      39.149  30.884  21.094  1.00  0.00    -0.205 N 
ATOM     30  H1  UNL     1      39.532  31.653  21.644  1.00  0.00     0.183 HD
BRANCH  29  31
HETATM   31  C6  UNL     1      37.792  30.583  21.325  1.00  0.00     0.079 C 
BRANCH  31  32
HETATM   32  C5  UNL     1      37.539  30.007  22.718  1.00  0.00     0.045 C 
BRANCH  32  33
HETATM   33  C4  UNL     1      36.799  28.722  22.574  1.00  0.00     0.005 C 
BRANCH  33  34
HETATM   34  C3  UNL     1      37.615  27.634  21.934  1.00  0.00     0.000 C 
BRANCH  34  35
HETATM   35  C2  UNL     1      36.917  26.982  20.778  1.00  0.00    -0.005 C 
HETATM   36  C1  UNL     1      35.631  27.743  20.520  1.00  0.00     0.005 C 
ENDBRANCH  34  35
ENDBRANCH  33  34
ENDBRANCH  32  33
ENDBRANCH  31  32
ENDBRANCH  29  31
ENDBRANCH   1  29
BRANCH   4  37
HETATM   37  N3  UNL     1      39.988  28.095  17.588  1.00  0.00    -0.384 N 
ATOM     38  H32 UNL     1      38.993  27.951  17.417  1.00  0.00     0.157 HD
ATOM     39  H31 UNL     1      40.644  27.578  17.003  1.00  0.00     0.157 HD
ENDBRANCH   4  37
BRANCH   6  40
HETATM   40  N4  UNL     1      42.226  27.785  16.912  1.00  0.00    -0.384 N 
ATOM     41  H42 UNL     1      41.239  27.746  16.657  1.00  0.00     0.157 HD
ATOM     42  H41 UNL     1      42.896  27.177  16.442  1.00  0.00     0.157 HD
ENDBRANCH   6  40
TORSDOF 13
ENDMDL
MODEL 3
REMARK VINA RESULT: -7.826794289      3.167      5.327
REMARK  13 active torsions:
REMARK  status: ('A' for Active; 'I' for Inactive)
REMARK    1  A    between atoms: C2_2  and  C3_3 
REMARK    2  A    between atoms: C3_3  and  C4_4 
REMARK    3  A    between atoms: C4_4  and  C5_5 
REMARK    4  A    between atoms: C5_5  and  C6_6 
REMARK    5  A    between atoms: C6_6  and  N1_7 
REMARK    6  A    between atoms: N1_7  and  C7_9 
REMARK    7  A    between atoms: C8_12  and  N3_13 
REMARK    8  A    between atoms: C10_17  and  N4_18 
REMARK    9  A    between atoms: N8_30  and  C13_31 
REMARK   10  A    between atoms: C14_33  and  C15_34 
REMARK   11  A    between atoms: C15_34  and  O2_35 
REMARK   12  A    between atoms: C16_37  and  O3_38 
REMARK   13  A    between atoms: C17_40  and  O4_41 
ROOT
HETATM    1  C7  UNL     1      38.643  29.388  20.341  1.00  0.00     0.693 A 
HETATM    2  N2  UNL     1      37.639  28.631  19.951  1.00  0.00    -0.175 N 
ATOM      3  H2  UNL     1      37.578  28.348  18.973  1.00  0.00     0.186 HD
HETATM    4  C8  UNL     1      36.689  28.224  20.817  1.00  0.00     0.132 A 
HETATM    5  C9  UNL     1      36.811  28.632  22.135  1.00  0.00     0.098 A 
HETATM    6  C10 UNL     1      35.867  28.247  23.048  1.00  0.00     0.132 A 
HETATM    7  N5  UNL     1      35.973  28.641  24.333  1.00  0.00    -0.176 N 
ATOM      8  H5  UNL     1      35.270  28.353  25.014  1.00  0.00     0.186 HD
HETATM    9  C11 UNL     1      37.001  29.412  24.715  1.00  0.00     0.679 A 
HETATM   10  N6  UNL     1      37.126  29.803  25.944  1.00  0.00    -0.234 N 
ATOM     11  H61 UNL     1      37.908  30.390  26.235  1.00  0.00     0.174 HD
ATOM     12  H62 UNL     1      36.427  29.520  26.630  1.00  0.00     0.174 HD
HETATM   13  N7  UNL     1      37.941  29.792  23.793  1.00  0.00    -0.175 N 
ATOM     14  H7  UNL     1      38.716  30.379  24.103  1.00  0.00     0.186 HD
HETATM   15  C12 UNL     1      37.891  29.435  22.515  1.00  0.00     0.164 A 
HETATM   16  N8  UNL     1      38.822  29.829  21.647  1.00  0.00    -0.111 N 
ENDROOT
BRANCH  16  17
HETATM   17  C13 UNL     1      39.912  30.628  21.996  1.00  0.00     0.175 C 
HETATM   18  O1  UNL     1      40.530  30.478  23.219  1.00  0.00    -0.326 OA
HETATM   19  C14 UNL     1      41.409  31.509  23.343  1.00  0.00     0.185 C 
HETATM   20  C16 UNL     1      41.085  32.585  22.368  1.00  0.00     0.186 C 
HETATM   21  C17 UNL     1      39.918  32.048  21.565  1.00  0.00     0.225 C 
BRANCH  19  22
HETATM   22  C15 UNL     1      42.822  30.968  23.199  1.00  0.00     0.199 C 
BRANCH  22  23
HETATM   23  O2  UNL     1      42.993  29.802  23.951  1.00  0.00    -0.398 OA
ATOM     24  H2  UNL     1      42.477  29.088  23.595  1.00  0.00     0.209 HD
ENDBRANCH  22  23
ENDBRANCH  19  22
BRANCH  20  25
HETATM   25  O3  UNL     1      42.155  32.746  21.505  1.00  0.00    -0.390 OA
ATOM     26  H3  UNL     1      41.827  32.804  20.615  1.00  0.00     0.210 HD
ENDBRANCH  20  25
BRANCH  21  27
HETATM   27  O4  UNL     1      38.837  32.827  21.777  1.00  0.00    -0.385 OA
ATOM     28  H4  UNL     1      38.883  33.552  22.389  1.00  0.00     0.210 HD
ENDBRANCH  21  27
ENDBRANCH  16  17
BRANCH   1  29
HETATM   29  N1  UNL     1      39.544  29.785  19.517  1.00  0.00    -0.205 N 
ATOM     30  H1  UNL     1      39.639  30.796  19.418  1.00  0.00     0.183 HD
BRANCH  29  31
HETATM   31  C6  UNL     1      40.419  29.008  18.732  1.00  0.00     0.079 C 
BRANCH  31  32
HETATM   32  C5  UNL     1      40.220  29.222  17.231  1.00  0.00     0.045 C 
BRANCH  32  33
HETATM   33  C4  UNL     1      41.547  29.142  16.559  1.00  0.00     0.005 C 
BRANCH  33  34
HETATM   34  C3  UNL     1      42.618  29.926  17.264  1.00  0.00     0.000 C 
BRANCH  34  35
HETATM   35  C2  UNL     1      43.951  29.239  17.249  1.00  0.00    -0.005 C 
HETATM   36  C1  UNL     1      44.497  29.250  18.664  1.00  0.00     0.005 C 
ENDBRANCH  34  35
ENDBRANCH  33  34
ENDBRANCH  32  33
ENDBRANCH  31  32
ENDBRANCH  29  31
ENDBRANCH   1  29
BRANCH   4  37
HETATM   37  N3  UNL     1      35.713  27.487  20.423  1.00  0.00    -0.384 N 
ATOM     38  H32 UNL     1      35.038  27.812  19.732  1.00  0.00     0.157 HD
ATOM     39  H31 UNL     1      35.587  26.545  20.794  1.00  0.00     0.157 HD
ENDBRANCH   4  37
BRANCH   6  40
HETATM   40  N4  UNL     1      34.895  27.499  22.635  1.00  0.00    -0.384 N 
ATOM     41  H42 UNL     1      34.872  27.109  21.692  1.00  0.00     0.157 HD
ATOM     42  H41 UNL     1      34.131  27.307  23.283  1.00  0.00     0.157 HD
ENDBRANCH   6  40
TORSDOF 13
ENDMDL
MODEL 4
REMARK VINA RESULT: -7.740789426      2.495      6.112
REMARK  13 active torsions:
REMARK  status: ('A' for Active; 'I' for Inactive)
REMARK    1  A    between atoms: C2_2  and  C3_3 
REMARK    2  A    between atoms: C3_3  and  C4_4 
REMARK    3  A    between atoms: C4_4  and  C5_5 
REMARK    4  A    between atoms: C5_5  and  C6_6 
REMARK    5  A    between atoms: C6_6  and  N1_7 
REMARK    6  A    between atoms: N1_7  and  C7_9 
REMARK    7  A    between atoms: C8_12  and  N3_13 
REMARK    8  A    between atoms: C10_17  and  N4_18 
REMARK    9  A    between atoms: N8_30  and  C13_31 
REMARK   10  A    between atoms: C14_33  and  C15_34 
REMARK   11  A    between atoms: C15_34  and  O2_35 
REMARK   12  A    between atoms: C16_37  and  O3_38 
REMARK   13  A    between atoms: C17_40  and  O4_41 
ROOT
HETATM    1  C7  UNL     1      42.197  30.548  21.503  1.00  0.00     0.693 A 
HETATM    2  N2  UNL     1      43.507  30.655  21.437  1.00  0.00    -0.175 N 
ATOM      3  H2  UNL     1      44.013  31.078  22.216  1.00  0.00     0.186 HD
HETATM    4  C8  UNL     1      44.194  30.218  20.364  1.00  0.00     0.132 A 
HETATM    5  C9  UNL     1      43.468  29.651  19.329  1.00  0.00     0.098 A 
HETATM    6  C10 UNL     1      44.124  29.198  18.216  1.00  0.00     0.132 A 
HETATM    7  N5  UNL     1      43.427  28.648  17.201  1.00  0.00    -0.176 N 
ATOM      8  H5  UNL     1      43.916  28.310  16.372  1.00  0.00     0.186 HD
HETATM    9  C11 UNL     1      42.093  28.546  17.282  1.00  0.00     0.679 A 
HETATM   10  N6  UNL     1      41.401  28.021  16.321  1.00  0.00    -0.234 N 
ATOM     11  H61 UNL     1      40.386  27.943  16.382  1.00  0.00     0.174 HD
ATOM     12  H62 UNL     1      41.882  27.681  15.489  1.00  0.00     0.174 HD
HETATM   13  N7  UNL     1      41.446  29.003  18.401  1.00  0.00    -0.175 N 
ATOM     14  H7  UNL     1      40.430  28.916  18.443  1.00  0.00     0.186 HD
HETATM   15  C12 UNL     1      42.077  29.552  19.432  1.00  0.00     0.164 A 
HETATM   16  N8  UNL     1      41.412  29.989  20.501  1.00  0.00    -0.111 N 
ENDROOT
BRANCH  16  17
HETATM   17  C13 UNL     1      40.025  29.902  20.634  1.00  0.00     0.175 C 
HETATM   18  O1  UNL     1      39.390  28.679  20.594  1.00  0.00    -0.326 OA
HETATM   19  C14 UNL     1      38.055  28.932  20.550  1.00  0.00     0.185 C 
HETATM   20  C16 UNL     1      37.808  30.343  20.148  1.00  0.00     0.186 C 
HETATM   21  C17 UNL     1      39.186  30.959  20.017  1.00  0.00     0.225 C 
BRANCH  19  22
HETATM   22  C15 UNL     1      37.443  28.570  21.893  1.00  0.00     0.199 C 
BRANCH  22  23
HETATM   23  O2  UNL     1      37.948  27.355  22.364  1.00  0.00    -0.398 OA
ATOM     24  H2  UNL     1      37.499  26.620  21.963  1.00  0.00     0.209 HD
ENDBRANCH  22  23
ENDBRANCH  19  22
BRANCH  20  25
HETATM   25  O3  UNL     1      37.149  30.994  21.177  1.00  0.00    -0.390 OA
ATOM     26  H3  UNL     1      37.639  31.773  21.412  1.00  0.00     0.210 HD
ENDBRANCH  20  25
BRANCH  21  27
HETATM   27  O4  UNL     1      39.388  31.325  18.734  1.00  0.00    -0.385 OA
ATOM     28  H4  UNL     1      39.748  32.179  18.531  1.00  0.00     0.210 HD
ENDBRANCH  21  27
ENDBRANCH  16  17
BRANCH   1  29
HETATM   29  N1  UNL     1      41.538  30.971  22.520  1.00  0.00    -0.205 N 
ATOM     30  H1  UNL     1      41.201  30.252  23.160  1.00  0.00     0.183 HD
BRANCH  29  31
HETATM   31  C6  UNL     1      41.219  32.299  22.867  1.00  0.00     0.079 C 
BRANCH  31  32
HETATM   32  C5  UNL     1      39.871  32.421  23.579  1.00  0.00     0.045 C 
BRANCH  32  33
HETATM   33  C4  UNL     1      39.382  31.052  23.908  1.00  0.00     0.005 C 
BRANCH  33  34
HETATM   34  C3  UNL     1      38.803  30.945  25.291  1.00  0.00     0.000 C 
BRANCH  34  35
HETATM   35  C2  UNL     1      37.781  29.855  25.415  1.00  0.00    -0.005 C 
HETATM   36  C1  UNL     1      36.461  30.393  24.897  1.00  0.00     0.005 C 
ENDBRANCH  34  35
ENDBRANCH  33  34
ENDBRANCH  32  33
ENDBRANCH  31  32
ENDBRANCH  29  31
ENDBRANCH   1  29
BRANCH   4  37
HETATM   37  N3  UNL     1      45.473  30.329  20.311  1.00  0.00    -0.384 N 
ATOM     38  H32 UNL     1      45.975  30.355  19.424  1.00  0.00     0.157 HD
ATOM     39  H31 UNL     1      46.027  30.397  21.165  1.00  0.00     0.157 HD
ENDBRANCH   4  37
BRANCH   6  40
HETATM   40  N4  UNL     1      45.413  29.313  18.184  1.00  0.00    -0.384 N 
ATOM     41  H42 UNL     1      46.033  28.529  18.385  1.00  0.00     0.157 HD
ATOM     42  H41 UNL     1      45.805  30.226  17.954  1.00  0.00     0.157 HD
ENDBRANCH   6  40
TORSDOF 13
ENDMDL
MODEL 5
REMARK VINA RESULT: -7.726655102      2.323      6.016
REMARK  13 active torsions:
REMARK  status: ('A' for Active; 'I' for Inactive)
REMARK    1  A    between atoms: C2_2  and  C3_3 
REMARK    2  A    between atoms: C3_3  and  C4_4 
REMARK    3  A    between atoms: C4_4  and  C5_5 
REMARK    4  A    between atoms: C5_5  and  C6_6 
REMARK    5  A    between atoms: C6_6  and  N1_7 
REMARK    6  A    between atoms: N1_7  and  C7_9 
REMARK    7  A    between atoms: C8_12  and  N3_13 
REMARK    8  A    between atoms: C10_17  and  N4_18 
REMARK    9  A    between atoms: N8_30  and  C13_31 
REMARK   10  A    between atoms: C14_33  and  C15_34 
REMARK   11  A    between atoms: C15_34  and  O2_35 
REMARK   12  A    between atoms: C16_37  and  O3_38 
REMARK   13  A    between atoms: C17_40  and  O4_41 
ROOT
HETATM    1  C7  UNL     1      42.258  30.585  21.492  1.00  0.00     0.693 A 
HETATM    2  N2  UNL     1      43.568  30.683  21.415  1.00  0.00    -0.175 N 
ATOM      3  H2  UNL     1      44.083  31.110  22.185  1.00  0.00     0.186 HD
HETATM    4  C8  UNL     1      44.244  30.232  20.339  1.00  0.00     0.132 A 
HETATM    5  C9  UNL     1      43.505  29.659  19.316  1.00  0.00     0.098 A 
HETATM    6  C10 UNL     1      44.149  29.192  18.202  1.00  0.00     0.132 A 
HETATM    7  N5  UNL     1      43.441  28.637  17.198  1.00  0.00    -0.176 N 
ATOM      8  H5  UNL     1      43.920  28.288  16.369  1.00  0.00     0.186 HD
HETATM    9  C11 UNL     1      42.107  28.543  17.291  1.00  0.00     0.679 A 
HETATM   10  N6  UNL     1      41.403  28.013  16.342  1.00  0.00    -0.234 N 
ATOM     11  H61 UNL     1      40.388  27.942  16.412  1.00  0.00     0.174 HD
ATOM     12  H62 UNL     1      41.875  27.663  15.509  1.00  0.00     0.174 HD
HETATM   13  N7  UNL     1      41.471  29.014  18.412  1.00  0.00    -0.175 N 
ATOM     14  H7  UNL     1      40.456  28.935  18.464  1.00  0.00     0.186 HD
HETATM   15  C12 UNL     1      42.115  29.569  19.432  1.00  0.00     0.164 A 
HETATM   16  N8  UNL     1      41.461  30.021  20.502  1.00  0.00    -0.111 N 
ENDROOT
BRANCH  16  17
HETATM   17  C13 UNL     1      40.075  29.943  20.648  1.00  0.00     0.175 C 
HETATM   18  O1  UNL     1      39.437  28.721  20.663  1.00  0.00    -0.326 OA
HETATM   19  C14 UNL     1      38.102  28.976  20.618  1.00  0.00     0.185 C 
HETATM   20  C16 UNL     1      37.856  30.370  20.159  1.00  0.00     0.186 C 
HETATM   21  C17 UNL     1      39.235  30.977  19.993  1.00  0.00     0.225 C 
BRANCH  19  22
HETATM   22  C15 UNL     1      37.498  28.673  21.979  1.00  0.00     0.199 C 
BRANCH  22  23
HETATM   23  O2  UNL     1      37.893  27.411  22.434  1.00  0.00    -0.398 OA
ATOM     24  H2  UNL     1      37.486  27.206  23.267  1.00  0.00     0.209 HD
ENDBRANCH  22  23
ENDBRANCH  19  22
BRANCH  20  25
HETATM   25  O3  UNL     1      37.206  31.065  21.164  1.00  0.00    -0.390 OA
ATOM     26  H3  UNL     1      37.659  30.914  21.985  1.00  0.00     0.210 HD
ENDBRANCH  20  25
BRANCH  21  27
HETATM   27  O4  UNL     1      39.429  31.288  18.695  1.00  0.00    -0.385 OA
ATOM     28  H4  UNL     1      39.366  32.189  18.404  1.00  0.00     0.210 HD
ENDBRANCH  21  27
ENDBRANCH  16  17
BRANCH   1  29
HETATM   29  N1  UNL     1      41.610  31.021  22.511  1.00  0.00    -0.205 N 
ATOM     30  H1  UNL     1      40.842  30.434  22.832  1.00  0.00     0.183 HD
BRANCH  29  31
HETATM   31  C6  UNL     1      41.823  32.207  23.243  1.00  0.00     0.079 C 
BRANCH  31  32
HETATM   32  C5  UNL     1      41.154  33.426  22.607  1.00  0.00     0.045 C 
BRANCH  32  33
HETATM   33  C4  UNL     1      39.678  33.222  22.624  1.00  0.00     0.005 C 
BRANCH  33  34
HETATM   34  C3  UNL     1      38.900  34.508  22.638  1.00  0.00     0.000 C 
BRANCH  34  35
HETATM   35  C2  UNL     1      37.423  34.297  22.782  1.00  0.00    -0.005 C 
HETATM   36  C1  UNL     1      37.202  33.292  23.896  1.00  0.00     0.005 C 
ENDBRANCH  34  35
ENDBRANCH  33  34
ENDBRANCH  32  33
ENDBRANCH  31  32
ENDBRANCH  29  31
ENDBRANCH   1  29
BRANCH   4  37
HETATM   37  N3  UNL     1      45.523  30.335  20.275  1.00  0.00    -0.384 N 
ATOM     38  H32 UNL     1      46.128  29.515  20.240  1.00  0.00     0.157 HD
ATOM     39  H31 UNL     1      45.973  31.250  20.256  1.00  0.00     0.157 HD
ENDBRANCH   4  37
BRANCH   6  40
HETATM   40  N4  UNL     1      45.438  29.299  18.158  1.00  0.00    -0.384 N 
ATOM     41  H42 UNL     1      45.906  29.997  17.580  1.00  0.00     0.157 HD
ATOM     42  H41 UNL     1      45.990  28.654  18.723  1.00  0.00     0.157 HD
ENDBRANCH   6  40
TORSDOF 13
ENDMDL
