MODEL 1
REMARK VINA RESULT: -7.267895717      0.000      0.000
REMARK  11 active torsions:
REMARK  status: ('A' for Active; 'I' for Inactive)
REMARK    1  A    between atoms: S1_2  and  C2_3 
REMARK    2  A    between atoms: C2_3  and  C3_4 
REMARK    3  A    between atoms: C5_6  and  N1_7 
REMARK       I    between atoms: N1_7  and  C6_9 
REMARK    4  A    between atoms: C7_14  and  N4_15 
REMARK    5  A    between atoms: C8_16  and  N5_17 
REMARK    6  A    between atoms: C9_22  and  C10_23 
REMARK    7  A    between atoms: C10_23  and  O1_24 
REMARK    8  A    between atoms: O1_24  and  C11_25 
REMARK    9  A    between atoms: C11_25  and  C12_26 
REMARK   10  A    between atoms: C12_26  and  O2_27 
REMARK   11  A    between atoms: C16_36  and  N9_37 
ROOT
HETATM    1  C3  UNL     1      38.027  29.356  22.621  1.00  0.00     0.031 C 
HETATM    2  C4  UNL     1      38.999  30.493  22.863  1.00  0.00     0.062 C 
HETATM    3  C5  UNL     1      38.825  31.592  21.832  1.00  0.00     0.013 C 
HETATM    4  C7  UNL     1      39.125  31.110  20.442  1.00  0.00     0.157 C 
HETATM    5  C15 UNL     1      38.045  30.036  20.281  1.00  0.00     0.065 C 
HETATM    6  C16 UNL     1      38.235  28.897  21.221  1.00  0.00     0.191 C 
ENDROOT
BRANCH   4   7
HETATM    7  N4  UNL     1      40.416  30.725  20.077  1.00  0.00    -0.154 N 
HETATM    8  C8  UNL     1      40.751  30.289  18.846  1.00  0.00     0.680 A 
HETATM    9  N6  UNL     1      41.976  29.891  18.473  1.00  0.00    -0.191 N 
HETATM   10  C9  UNL     1      43.022  29.884  19.309  1.00  0.00     0.082 A 
ATOM     11  H6  UNL     1      42.117  29.581  17.512  1.00  0.00     0.184 HD
HETATM   12  C13 UNL     1      42.712  30.327  20.583  1.00  0.00     0.119 A 
HETATM   13  N7  UNL     1      43.243  30.549  21.801  1.00  0.00    -0.294 N 
HETATM   14  C14 UNL     1      41.450  30.744  20.991  1.00  0.00     0.169 A 
HETATM   15  N8  UNL     1      42.045  30.943  22.183  1.00  0.00    -0.282 N 
ATOM     16  H7  UNL     1      44.162  30.454  22.234  1.00  0.00     0.187 HD
ATOM     17  H8  UNL     1      41.690  31.284  23.076  1.00  0.00     0.188 HD
BRANCH   8  18
HETATM   18  N5  UNL     1      39.825  30.270  17.929  1.00  0.00    -0.234 N 
ATOM     19  H52 UNL     1      38.877  30.057  18.239  1.00  0.00     0.174 HD
ATOM     20  H51 UNL     1      40.102  30.448  16.964  1.00  0.00     0.174 HD
ENDBRANCH   8  18
BRANCH  10  21
HETATM   21  C10 UNL     1      44.412  29.550  18.953  1.00  0.00     0.227 C 
BRANCH  21  22
HETATM   22  O1  UNL     1      44.741  29.691  17.686  1.00  0.00    -0.383 OA
BRANCH  22  23
HETATM   23  C11 UNL     1      44.678  28.816  16.707  1.00  0.00     0.194 C 
BRANCH  23  24
HETATM   24  C12 UNL     1      43.476  28.443  15.940  1.00  0.00     0.190 C 
BRANCH  24  25
HETATM   25  O2  UNL     1      42.829  27.402  16.697  1.00  0.00    -0.399 OA
ATOM     26  H2  UNL     1      41.898  27.505  16.540  1.00  0.00     0.209 HD
ENDBRANCH  24  25
ENDBRANCH  23  24
ENDBRANCH  22  23
ENDBRANCH  21  22
ENDBRANCH  10  21
ENDBRANCH   4   7
BRANCH   3  27
HETATM   27  N1  UNL     1      39.274  32.803  22.317  1.00  0.00    -0.336 N 
HETATM   28  C6  UNL     1      38.501  33.968  22.597  1.00  0.00     0.185 C 
HETATM   29  N2  UNL     1      39.034  35.171  22.508  1.00  0.00    -0.374 N 
HETATM   30  N3  UNL     1      37.133  33.942  22.990  1.00  0.00    -0.064 NA
ATOM     31  H22 UNL     1      40.014  35.189  22.227  1.00  0.00     0.158 HD
ATOM     32  H21 UNL     1      38.481  36.005  22.708  1.00  0.00     0.158 HD
ATOM     33  H1  UNL     1      40.276  32.872  22.496  1.00  0.00     0.168 HD
ENDBRANCH   3  27
BRANCH   6  34
HETATM   34  N9  UNL     1      37.338  27.831  20.797  1.00  0.00    -0.075 N 
ATOM     35  H93 UNL     1      36.475  27.854  21.340  1.00  0.00     0.274 HD
ATOM     36  H92 UNL     1      36.965  28.029  19.869  1.00  0.00     0.274 HD
ATOM     37  H91 UNL     1      37.750  26.899  20.824  1.00  0.00     0.274 HD
ENDBRANCH   6  34
BRANCH   1  38
HETATM   38  C2  UNL     1      36.655  29.653  23.075  1.00  0.00     0.080 C 
BRANCH  38  39
HETATM   39  S1  UNL     1      36.674  30.473  24.682  1.00  0.00    -0.173 SA
HETATM   40  C1  UNL     1      37.468  29.447  25.922  1.00  0.00     0.089 C 
ENDBRANCH  38  39
ENDBRANCH   1  38
TORSDOF 11
ENDMDL
MODEL 2
REMARK VINA RESULT: -6.930599947      2.382      4.323
REMARK  11 active torsions:
REMARK  status: ('A' for Active; 'I' for Inactive)
REMARK    1  A    between atoms: S1_2  and  C2_3 
REMARK    2  A    between atoms: C2_3  and  C3_4 
REMARK    3  A    between atoms: C5_6  and  N1_7 
REMARK       I    between atoms: N1_7  and  C6_9 
REMARK    4  A    between atoms: C7_14  and  N4_15 
REMARK    5  A    between atoms: C8_16  and  N5_17 
REMARK    6  A    between atoms: C9_22  and  C10_23 
REMARK    7  A    between atoms: C10_23  and  O1_24 
REMARK    8  A    between atoms: O1_24  and  C11_25 
REMARK    9  A    between atoms: C11_25  and  C12_26 
REMARK   10  A    between atoms: C12_26  and  O2_27 
REMARK   11  A    between atoms: C16_36  and  N9_37 
ROOT
HETATM    1  C3  UNL     1      40.300  34.098  23.011  1.00  0.00     0.031 C 
HETATM    2  C4  UNL     1      39.304  32.972  22.821  1.00  0.00     0.062 C 
HETATM    3  C5  UNL     1      39.816  31.678  23.426  1.00  0.00     0.013 C 
HETATM    4  C7  UNL     1      41.074  31.206  22.756  1.00  0.00     0.157 C 
HETATM    5  C15 UNL     1      42.016  32.368  23.079  1.00  0.00     0.065 C 
HETATM    6  C16 UNL     1      41.591  33.639  22.429  1.00  0.00     0.191 C 
ENDROOT
BRANCH   4   7
HETATM    7  N4  UNL     1      41.066  30.790  21.423  1.00  0.00    -0.154 N 
HETATM    8  C8  UNL     1      42.177  30.466  20.730  1.00  0.00     0.680 A 
HETATM    9  N6  UNL     1      42.203  30.086  19.445  1.00  0.00    -0.191 N 
HETATM   10  C9  UNL     1      41.098  29.988  18.694  1.00  0.00     0.082 A 
ATOM     11  H6  UNL     1      43.103  29.862  19.020  1.00  0.00     0.184 HD
HETATM   12  C13 UNL     1      39.939  30.314  19.377  1.00  0.00     0.119 A 
HETATM   13  N7  UNL     1      38.604  30.423  19.233  1.00  0.00    -0.294 N 
HETATM   14  C14 UNL     1      39.888  30.710  20.708  1.00  0.00     0.169 A 
HETATM   15  N8  UNL     1      38.562  30.797  20.496  1.00  0.00    -0.282 N 
ATOM     16  H7  UNL     1      37.928  30.279  18.483  1.00  0.00     0.187 HD
ATOM     17  H8  UNL     1      37.787  31.062  21.104  1.00  0.00     0.188 HD
BRANCH   8  18
HETATM   18  N5  UNL     1      43.320  30.497  21.354  1.00  0.00    -0.234 N 
ATOM     19  H52 UNL     1      43.645  31.411  21.672  1.00  0.00     0.174 HD
ATOM     20  H51 UNL     1      43.827  29.620  21.472  1.00  0.00     0.174 HD
ENDBRANCH   8  18
BRANCH  10  21
HETATM   21  C10 UNL     1      41.034  29.492  17.309  1.00  0.00     0.227 C 
BRANCH  21  22
HETATM   22  O1  UNL     1      41.915  28.572  16.976  1.00  0.00    -0.383 OA
BRANCH  22  23
HETATM   23  C11 UNL     1      43.053  28.704  16.332  1.00  0.00     0.194 C 
BRANCH  23  24
HETATM   24  C12 UNL     1      44.356  29.063  16.917  1.00  0.00     0.190 C 
BRANCH  24  25
HETATM   25  O2  UNL     1      44.303  30.482  17.161  1.00  0.00    -0.399 OA
ATOM     26  H2  UNL     1      44.092  30.582  18.081  1.00  0.00     0.209 HD
ENDBRANCH  24  25
ENDBRANCH  23  24
ENDBRANCH  22  23
ENDBRANCH  21  22
ENDBRANCH  10  21
ENDBRANCH   4   7
BRANCH   3  27
HETATM   27  N1  UNL     1      38.774  30.833  23.743  1.00  0.00    -0.336 N 
HETATM   28  C6  UNL     1      38.479  30.255  25.012  1.00  0.00     0.185 C 
HETATM   29  N2  UNL     1      37.864  29.091  25.100  1.00  0.00    -0.374 N 
HETATM   30  N3  UNL     1      38.803  30.861  26.259  1.00  0.00    -0.064 NA
ATOM     31  H22 UNL     1      37.632  28.657  24.207  1.00  0.00     0.158 HD
ATOM     32  H21 UNL     1      37.653  28.678  26.009  1.00  0.00     0.158 HD
ATOM     33  H1  UNL     1      38.141  30.592  22.979  1.00  0.00     0.168 HD
ENDBRANCH   3  27
BRANCH   6  34
HETATM   34  N9  UNL     1      42.687  34.587  22.573  1.00  0.00    -0.075 N 
ATOM     35  H93 UNL     1      42.813  35.118  21.711  1.00  0.00     0.274 HD
ATOM     36  H92 UNL     1      42.424  35.341  23.206  1.00  0.00     0.274 HD
ATOM     37  H91 UNL     1      43.570  34.168  22.864  1.00  0.00     0.274 HD
ENDBRANCH   6  34
BRANCH   1  38
HETATM   38  C2  UNL     1      40.296  34.659  24.376  1.00  0.00     0.080 C 
BRANCH  38  39
HETATM   39  S1  UNL     1      38.610  34.977  24.933  1.00  0.00    -0.173 SA
HETATM   40  C1  UNL     1      38.598  36.021  26.393  1.00  0.00     0.089 C 
ENDBRANCH  38  39
ENDBRANCH   1  38
TORSDOF 11
ENDMDL
MODEL 3
REMARK VINA RESULT: -6.911665817      1.265      2.088
REMARK  11 active torsions:
REMARK  status: ('A' for Active; 'I' for Inactive)
REMARK    1  A    between atoms: S1_2  and  C2_3 
REMARK    2  A    between atoms: C2_3  and  C3_4 
REMARK    3  A    between atoms: C5_6  and  N1_7 
REMARK       I    between atoms: N1_7  and  C6_9 
REMARK    4  A    between atoms: C7_14  and  N4_15 
REMARK    5  A    between atoms: C8_16  and  N5_17 
REMARK    6  A    between atoms: C9_22  and  C10_23 
REMARK    7  A    between atoms: C10_23  and  O1_24 
REMARK    8  A    between atoms: O1_24  and  C11_25 
REMARK    9  A    between atoms: C11_25  and  C12_26 
REMARK   10  A    between atoms: C12_26  and  O2_27 
REMARK   11  A    between atoms: C16_36  and  N9_37 
ROOT
HETATM    1  C3  UNL     1      37.895  28.989  22.587  1.00  0.00     0.031 C 
HETATM    2  C4  UNL     1      38.813  30.170  22.836  1.00  0.00     0.062 C 
HETATM    3  C5  UNL     1      38.613  31.251  21.791  1.00  0.00     0.013 C 
HETATM    4  C7  UNL     1      38.960  30.769  20.412  1.00  0.00     0.157 C 
HETATM    5  C15 UNL     1      37.931  29.649  20.240  1.00  0.00     0.065 C 
HETATM    6  C16 UNL     1      38.150  28.527  21.195  1.00  0.00     0.191 C 
ENDROOT
BRANCH   4   7
HETATM    7  N4  UNL     1      40.273  30.436  20.076  1.00  0.00    -0.154 N 
HETATM    8  C8  UNL     1      40.623  29.823  18.927  1.00  0.00     0.680 A 
HETATM    9  N6  UNL     1      41.872  29.471  18.588  1.00  0.00    -0.191 N 
HETATM   10  C9  UNL     1      42.929  29.696  19.377  1.00  0.00     0.082 A 
ATOM     11  H6  UNL     1      42.022  29.012  17.689  1.00  0.00     0.184 HD
HETATM   12  C13 UNL     1      42.604  30.325  20.567  1.00  0.00     0.119 A 
HETATM   13  N7  UNL     1      43.135  30.799  21.710  1.00  0.00    -0.294 N 
HETATM   14  C14 UNL     1      41.318  30.699  20.939  1.00  0.00     0.169 A 
HETATM   15  N8  UNL     1      41.914  31.151  22.058  1.00  0.00    -0.282 N 
ATOM     16  H7  UNL     1      44.067  30.857  22.123  1.00  0.00     0.187 HD
ATOM     17  H8  UNL     1      41.547  31.611  22.891  1.00  0.00     0.188 HD
BRANCH   8  18
HETATM   18  N5  UNL     1      39.687  29.568  18.058  1.00  0.00    -0.234 N 
ATOM     19  H52 UNL     1      39.406  30.336  17.448  1.00  0.00     0.174 HD
ATOM     20  H51 UNL     1      39.281  28.632  18.050  1.00  0.00     0.174 HD
ENDBRANCH   8  18
BRANCH  10  21
HETATM   21  C10 UNL     1      44.337  29.424  19.038  1.00  0.00     0.227 C 
BRANCH  21  22
HETATM   22  O1  UNL     1      45.178  30.426  19.184  1.00  0.00    -0.383 OA
BRANCH  22  23
HETATM   23  C11 UNL     1      46.208  30.537  19.993  1.00  0.00     0.194 C 
BRANCH  23  24
HETATM   24  C12 UNL     1      46.210  31.150  21.332  1.00  0.00     0.190 C 
BRANCH  24  25
HETATM   25  O2  UNL     1      45.873  32.536  21.135  1.00  0.00    -0.399 OA
ATOM     26  H2  UNL     1      46.055  32.970  21.960  1.00  0.00     0.209 HD
ENDBRANCH  24  25
ENDBRANCH  23  24
ENDBRANCH  22  23
ENDBRANCH  21  22
ENDBRANCH  10  21
ENDBRANCH   4   7
BRANCH   3  27
HETATM   27  N1  UNL     1      39.000  32.483  22.272  1.00  0.00    -0.336 N 
HETATM   28  C6  UNL     1      38.184  33.637  22.466  1.00  0.00     0.185 C 
HETATM   29  N2  UNL     1      38.695  34.849  22.381  1.00  0.00    -0.374 N 
HETATM   30  N3  UNL     1      36.793  33.589  22.763  1.00  0.00    -0.064 NA
ATOM     31  H22 UNL     1      39.692  34.884  22.168  1.00  0.00     0.158 HD
ATOM     32  H21 UNL     1      38.111  35.675  22.519  1.00  0.00     0.158 HD
ATOM     33  H1  UNL     1      39.985  32.581  22.518  1.00  0.00     0.168 HD
ENDBRANCH   3  27
BRANCH   6  34
HETATM   34  N9  UNL     1      37.308  27.420  20.764  1.00  0.00    -0.075 N 
ATOM     35  H93 UNL     1      37.725  26.529  21.035  1.00  0.00     0.274 HD
ATOM     36  H92 UNL     1      36.453  27.388  21.319  1.00  0.00     0.274 HD
ATOM     37  H91 UNL     1      37.088  27.421  19.769  1.00  0.00     0.274 HD
ENDBRANCH   6  34
BRANCH   1  38
HETATM   38  C2  UNL     1      36.503  29.231  23.011  1.00  0.00     0.080 C 
BRANCH  38  39
HETATM   39  S1  UNL     1      36.455  30.110  24.586  1.00  0.00    -0.173 SA
HETATM   40  C1  UNL     1      37.475  29.290  25.814  1.00  0.00     0.089 C 
ENDBRANCH  38  39
ENDBRANCH   1  38
TORSDOF 11
ENDMDL
MODEL 4
REMARK VINA RESULT: -6.899316424      4.211      6.484
REMARK  11 active torsions:
REMARK  status: ('A' for Active; 'I' for Inactive)
REMARK    1  A    between atoms: S1_2  and  C2_3 
REMARK    2  A    between atoms: C2_3  and  C3_4 
REMARK    3  A    between atoms: C5_6  and  N1_7 
REMARK       I    between atoms: N1_7  and  C6_9 
REMARK    4  A    between atoms: C7_14  and  N4_15 
REMARK    5  A    between atoms: C8_16  and  N5_17 
REMARK    6  A    between atoms: C9_22  and  C10_23 
REMARK    7  A    between atoms: C10_23  and  O1_24 
REMARK    8  A    between atoms: O1_24  and  C11_25 
REMARK    9  A    between atoms: C11_25  and  C12_26 
REMARK   10  A    between atoms: C12_26  and  O2_27 
REMARK   11  A    between atoms: C16_36  and  N9_37 
ROOT
HETATM    1  C3  UNL     1      39.157  29.446  20.752  1.00  0.00     0.031 C 
HETATM    2  C4  UNL     1      38.758  29.723  22.188  1.00  0.00     0.062 C 
HETATM    3  C5  UNL     1      37.457  30.500  22.256  1.00  0.00     0.013 C 
HETATM    4  C7  UNL     1      37.577  31.852  21.615  1.00  0.00     0.157 C 
HETATM    5  C15 UNL     1      37.896  31.451  20.173  1.00  0.00     0.065 C 
HETATM    6  C16 UNL     1      39.210  30.760  20.056  1.00  0.00     0.191 C 
ENDROOT
BRANCH   4   7
HETATM    7  N4  UNL     1      38.402  32.837  22.162  1.00  0.00    -0.154 N 
HETATM    8  C8  UNL     1      37.944  33.967  22.736  1.00  0.00     0.680 A 
HETATM    9  N6  UNL     1      38.712  34.940  23.249  1.00  0.00    -0.191 N 
HETATM   10  C9  UNL     1      40.050  34.888  23.243  1.00  0.00     0.082 A 
ATOM     11  H6  UNL     1      38.257  35.754  23.662  1.00  0.00     0.184 HD
HETATM   12  C13 UNL     1      40.553  33.737  22.659  1.00  0.00     0.119 A 
HETATM   13  N7  UNL     1      41.702  33.106  22.348  1.00  0.00    -0.294 N 
HETATM   14  C14 UNL     1      39.777  32.717  22.122  1.00  0.00     0.169 A 
HETATM   15  N8  UNL     1      40.961  32.142  21.841  1.00  0.00    -0.282 N 
ATOM     16  H7  UNL     1      42.699  33.292  22.457  1.00  0.00     0.187 HD
ATOM     17  H8  UNL     1      41.203  31.260  21.389  1.00  0.00     0.188 HD
BRANCH   8  18
HETATM   18  N5  UNL     1      36.655  34.130  22.828  1.00  0.00    -0.234 N 
ATOM     19  H52 UNL     1      36.080  33.292  22.748  1.00  0.00     0.174 HD
ATOM     20  H51 UNL     1      36.299  35.078  22.955  1.00  0.00     0.174 HD
ENDBRANCH   8  18
BRANCH  10  21
HETATM   21  C10 UNL     1      40.958  35.867  23.865  1.00  0.00     0.227 C 
BRANCH  21  22
HETATM   22  O1  UNL     1      40.401  36.760  24.655  1.00  0.00    -0.383 OA
BRANCH  22  23
HETATM   23  C11 UNL     1      40.187  36.707  25.951  1.00  0.00     0.194 C 
BRANCH  23  24
HETATM   24  C12 UNL     1      38.882  36.565  26.620  1.00  0.00     0.190 C 
BRANCH  24  25
HETATM   25  O2  UNL     1      38.399  35.253  26.272  1.00  0.00    -0.399 OA
ATOM     26  H2  UNL     1      37.453  35.293  26.352  1.00  0.00     0.209 HD
ENDBRANCH  24  25
ENDBRANCH  23  24
ENDBRANCH  22  23
ENDBRANCH  21  22
ENDBRANCH  10  21
ENDBRANCH   4   7
BRANCH   3  27
HETATM   27  N1  UNL     1      36.821  30.297  23.463  1.00  0.00    -0.336 N 
HETATM   28  C6  UNL     1      37.392  30.363  24.768  1.00  0.00     0.185 C 
HETATM   29  N2  UNL     1      36.903  29.643  25.758  1.00  0.00    -0.374 N 
HETATM   30  N3  UNL     1      38.501  31.187  25.113  1.00  0.00    -0.064 NA
ATOM     31  H22 UNL     1      36.108  29.053  25.511  1.00  0.00     0.158 HD
ATOM     32  H21 UNL     1      37.311  29.690  26.692  1.00  0.00     0.158 HD
ATOM     33  H1  UNL     1      35.827  30.075  23.416  1.00  0.00     0.168 HD
ENDBRANCH   3  27
BRANCH   6  34
HETATM   34  N9  UNL     1      39.531  30.678  18.637  1.00  0.00    -0.075 N 
ATOM     35  H93 UNL     1      40.288  30.012  18.481  1.00  0.00     0.274 HD
ATOM     36  H92 UNL     1      38.780  30.209  18.130  1.00  0.00     0.274 HD
ATOM     37  H91 UNL     1      39.750  31.573  18.202  1.00  0.00     0.274 HD
ENDBRANCH   6  34
BRANCH   1  38
HETATM   38  C2  UNL     1      38.393  28.346  20.135  1.00  0.00     0.080 C 
BRANCH  38  39
HETATM   39  S1  UNL     1      37.529  27.380  21.391  1.00  0.00    -0.173 SA
HETATM   40  C1  UNL     1      35.750  27.509  21.195  1.00  0.00     0.089 C 
ENDBRANCH  38  39
ENDBRANCH   1  38
TORSDOF 11
ENDMDL
MODEL 5
REMARK VINA RESULT: -6.809701932      2.611      4.500
REMARK  11 active torsions:
REMARK  status: ('A' for Active; 'I' for Inactive)
REMARK    1  A    between atoms: S1_2  and  C2_3 
REMARK    2  A    between atoms: C2_3  and  C3_4 
REMARK    3  A    between atoms: C5_6  and  N1_7 
REMARK       I    between atoms: N1_7  and  C6_9 
REMARK    4  A    between atoms: C7_14  and  N4_15 
REMARK    5  A    between atoms: C8_16  and  N5_17 
REMARK    6  A    between atoms: C9_22  and  C10_23 
REMARK    7  A    between atoms: C10_23  and  O1_24 
REMARK    8  A    between atoms: O1_24  and  C11_25 
REMARK    9  A    between atoms: C11_25  and  C12_26 
REMARK   10  A    between atoms: C12_26  and  O2_27 
REMARK   11  A    between atoms: C16_36  and  N9_37 
ROOT
HETATM    1  C3  UNL     1      39.470  34.195  23.796  1.00  0.00     0.031 C 
HETATM    2  C4  UNL     1      38.549  33.158  23.185  1.00  0.00     0.062 C 
HETATM    3  C5  UNL     1      38.814  31.780  23.762  1.00  0.00     0.013 C 
HETATM    4  C7  UNL     1      40.202  31.301  23.453  1.00  0.00     0.157 C 
HETATM    5  C15 UNL     1      41.033  32.363  24.177  1.00  0.00     0.065 C 
HETATM    6  C16 UNL     1      40.863  33.717  23.581  1.00  0.00     0.191 C 
ENDROOT
BRANCH   4   7
HETATM    7  N4  UNL     1      40.592  31.024  22.141  1.00  0.00    -0.154 N 
HETATM    8  C8  UNL     1      41.863  30.763  21.773  1.00  0.00     0.680 A 
HETATM    9  N6  UNL     1      42.270  30.517  20.520  1.00  0.00    -0.191 N 
HETATM   10  C9  UNL     1      41.434  30.504  19.474  1.00  0.00     0.082 A 
ATOM     11  H6  UNL     1      43.259  30.330  20.356  1.00  0.00     0.184 HD
HETATM   12  C13 UNL     1      40.119  30.769  19.818  1.00  0.00     0.119 A 
HETATM   13  N7  UNL     1      38.881  30.902  19.303  1.00  0.00    -0.294 N 
HETATM   14  C14 UNL     1      39.675  31.026  21.110  1.00  0.00     0.169 A 
HETATM   15  N8  UNL     1      38.465  31.145  20.530  1.00  0.00    -0.282 N 
ATOM     16  H7  UNL     1      38.456  30.841  18.378  1.00  0.00     0.187 HD
ATOM     17  H8  UNL     1      37.542  31.352  20.910  1.00  0.00     0.188 HD
BRANCH   8  18
HETATM   18  N5  UNL     1      42.774  30.721  22.703  1.00  0.00    -0.234 N 
ATOM     19  H52 UNL     1      43.243  31.600  22.925  1.00  0.00     0.174 HD
ATOM     20  H51 UNL     1      42.976  29.821  23.137  1.00  0.00     0.174 HD
ENDBRANCH   8  18
BRANCH  10  21
HETATM   21  C10 UNL     1      41.786  30.154  18.087  1.00  0.00     0.227 C 
BRANCH  21  22
HETATM   22  O1  UNL     1      43.017  30.426  17.711  1.00  0.00    -0.383 OA
BRANCH  22  23
HETATM   23  C11 UNL     1      44.037  29.612  17.546  1.00  0.00     0.194 C 
BRANCH  23  24
HETATM   24  C12 UNL     1      45.042  29.249  18.560  1.00  0.00     0.190 C 
BRANCH  24  25
HETATM   25  O2  UNL     1      44.628  27.975  19.089  1.00  0.00    -0.399 OA
ATOM     26  H2  UNL     1      44.225  28.159  19.930  1.00  0.00     0.209 HD
ENDBRANCH  24  25
ENDBRANCH  23  24
ENDBRANCH  22  23
ENDBRANCH  21  22
ENDBRANCH  10  21
ENDBRANCH   4   7
BRANCH   3  27
HETATM   27  N1  UNL     1      37.701  30.973  23.650  1.00  0.00    -0.336 N 
HETATM   28  C6  UNL     1      37.220  30.019  24.595  1.00  0.00     0.185 C 
HETATM   29  N2  UNL     1      36.545  28.957  24.201  1.00  0.00    -0.374 N 
HETATM   30  N3  UNL     1      37.413  30.123  26.002  1.00  0.00    -0.064 NA
ATOM     31  H22 UNL     1      36.408  28.883  23.193  1.00  0.00     0.158 HD
ATOM     32  H21 UNL     1      36.202  28.274  24.877  1.00  0.00     0.158 HD
ATOM     33  H1  UNL     1      37.159  31.070  22.791  1.00  0.00     0.168 HD
ENDBRANCH   3  27
BRANCH   6  34
HETATM   34  N9  UNL     1      41.890  34.575  24.157  1.00  0.00    -0.075 N 
ATOM     35  H93 UNL     1      41.967  35.443  23.626  1.00  0.00     0.274 HD
ATOM     36  H92 UNL     1      41.579  34.948  25.054  1.00  0.00     0.274 HD
ATOM     37  H91 UNL     1      42.804  34.134  24.251  1.00  0.00     0.274 HD
ENDBRANCH   6  34
BRANCH   1  38
HETATM   38  C2  UNL     1      39.064  34.613  25.151  1.00  0.00     0.080 C 
BRANCH  38  39
HETATM   39  S1  UNL     1      39.371  36.373  25.399  1.00  0.00    -0.173 SA
HETATM   40  C1  UNL     1      40.134  36.678  26.995  1.00  0.00     0.089 C 
ENDBRANCH  38  39
ENDBRANCH   1  38
TORSDOF 11
ENDMDL
