MODEL 1
REMARK VINA RESULT: -8.451977425      0.000      0.000
REMARK  9 active torsions:
REMARK  status: ('A' for Active; 'I' for Inactive)
REMARK    1  A    between atoms: C2_2  and  N1_3 
REMARK    2  A    between atoms: C2_2  and  C3_7 
REMARK    3  A    between atoms: C3_7  and  N2_8 
REMARK    4  A    between atoms: C3_7  and  C4_12 
REMARK       I    between atoms: C4_12  and  N3_14 
REMARK    5  A    between atoms: N3_14  and  C5_16 
REMARK    6  A    between atoms: C5_16  and  C6_17 
REMARK    7  A    between atoms: C6_17  and  C7_18 
REMARK    8  A    between atoms: C7_18  and  C8_19 
REMARK    9  A    between atoms: C8_19  and  C9_20 
ROOT
HETATM    1  C9  UNL     1      39.633  29.617  19.100  1.00  0.00     0.192 C 
HETATM    2  N4  UNL     1      38.367  29.264  19.657  1.00  0.00    -0.399 N 
ATOM      3  H4  UNL     1      37.529  29.819  19.487  1.00  0.00     0.155 HD
HETATM    4  C10 UNL     1      38.343  28.094  20.462  1.00  0.00     0.143 C 
HETATM    5  C11 UNL     1      36.870  27.724  20.688  1.00  0.00     0.251 C 
HETATM    6  N5  UNL     1      36.604  27.410  22.053  1.00  0.00    -0.072 N 
ATOM      7  H51 UNL     1      37.467  27.171  22.543  1.00  0.00     0.277 HD
ATOM      8  H52 UNL     1      36.113  26.518  22.128  1.00  0.00     0.277 HD
HETATM    9  C12 UNL     1      35.885  28.451  22.764  1.00  0.00     0.259 C 
HETATM   10  C13 UNL     1      36.303  28.540  24.211  1.00  0.00     0.259 C 
HETATM   11  N6  UNL     1      36.346  29.894  24.704  1.00  0.00    -0.074 N 
ATOM     12  H61 UNL     1      35.527  30.116  25.271  1.00  0.00     0.277 HD
ATOM     13  H62 UNL     1      36.204  30.573  23.957  1.00  0.00     0.277 HD
HETATM   14  C14 UNL     1      37.598  30.142  25.437  1.00  0.00     0.232 C 
HETATM   15  C15 UNL     1      38.761  30.128  24.489  1.00  0.00     0.027 C 
HETATM   16  C16 UNL     1      39.416  31.454  24.313  1.00  0.00     0.002 C 
HETATM   17  C17 UNL     1      38.708  32.397  23.407  1.00  0.00     0.002 C 
HETATM   18  C18 UNL     1      38.451  31.876  22.036  1.00  0.00     0.021 C 
HETATM   19  C19 UNL     1      39.662  31.697  21.192  1.00  0.00     0.139 C 
HETATM   20  N7  UNL     1      40.263  30.413  21.241  1.00  0.00    -0.339 N 
ATOM     21  H7  UNL     1      40.388  29.912  22.121  1.00  0.00     0.179 HD
HETATM   22  N8  UNL     1      40.666  29.881  20.047  1.00  0.00    -0.318 N 
ATOM     23  H8  UNL     1      41.647  29.686  19.846  1.00  0.00     0.182 HD
ENDROOT
BRANCH   1  24
HETATM   24  C8  UNL     1      40.011  28.605  18.059  1.00  0.00     0.048 C 
BRANCH  24  25
HETATM   25  C7  UNL     1      40.718  29.192  16.871  1.00  0.00     0.005 C 
BRANCH  25  26
HETATM   26  C6  UNL     1      42.067  28.501  16.661  1.00  0.00     0.020 C 
BRANCH  26  27
HETATM   27  C5  UNL     1      42.655  28.865  15.324  1.00  0.00     0.122 C 
BRANCH  27  28
HETATM   28  N3  UNL     1      42.312  27.882  14.326  1.00  0.00    -0.359 N 
HETATM   29  C4  UNL     1      42.635  27.991  12.951  1.00  0.00     0.250 C 
HETATM   30  O1  UNL     1      43.263  28.998  12.557  1.00  0.00    -0.271 OA
ATOM     31  H3  UNL     1      41.803  27.053  14.632  1.00  0.00     0.162 HD
BRANCH  29  32
HETATM   32  C3  UNL     1      42.243  26.938  11.966  1.00  0.00     0.304 C 
BRANCH  32  33
HETATM   33  C2  UNL     1      41.395  25.927  12.696  1.00  0.00     0.219 C 
HETATM   34  C1  UNL     1      40.194  25.502  11.897  1.00  0.00     0.042 C 
BRANCH  33  35
HETATM   35  N1  UNL     1      42.197  24.754  12.995  1.00  0.00    -0.073 N 
ATOM     36  H13 UNL     1      41.686  24.063  13.543  1.00  0.00     0.274 HD
ATOM     37  H12 UNL     1      42.370  24.181  12.169  1.00  0.00     0.274 HD
ATOM     38  H11 UNL     1      43.059  25.053  13.450  1.00  0.00     0.274 HD
ENDBRANCH  33  35
ENDBRANCH  32  33
BRANCH  32  39
HETATM   39  N2  UNL     1      43.435  26.365  11.416  1.00  0.00    -0.064 N 
ATOM     40  H23 UNL     1      43.744  25.563  11.966  1.00  0.00     0.275 HD
ATOM     41  H22 UNL     1      43.242  25.894  10.532  1.00  0.00     0.275 HD
ATOM     42  H21 UNL     1      44.187  27.047  11.311  1.00  0.00     0.275 HD
ENDBRANCH  32  39
ENDBRANCH  29  32
ENDBRANCH  27  28
ENDBRANCH  26  27
ENDBRANCH  25  26
ENDBRANCH  24  25
ENDBRANCH   1  24
TORSDOF 9
ENDMDL
MODEL 2
REMARK VINA RESULT: -8.313388084      1.680      3.335
REMARK  9 active torsions:
REMARK  status: ('A' for Active; 'I' for Inactive)
REMARK    1  A    between atoms: C2_2  and  N1_3 
REMARK    2  A    between atoms: C2_2  and  C3_7 
REMARK    3  A    between atoms: C3_7  and  N2_8 
REMARK    4  A    between atoms: C3_7  and  C4_12 
REMARK       I    between atoms: C4_12  and  N3_14 
REMARK    5  A    between atoms: N3_14  and  C5_16 
REMARK    6  A    between atoms: C5_16  and  C6_17 
REMARK    7  A    between atoms: C6_17  and  C7_18 
REMARK    8  A    between atoms: C7_18  and  C8_19 
REMARK    9  A    between atoms: C8_19  and  C9_20 
ROOT
HETATM    1  C9  UNL     1      42.005  29.509  18.576  1.00  0.00     0.192 C 
HETATM    2  N4  UNL     1      42.070  29.644  19.995  1.00  0.00    -0.399 N 
ATOM      3  H4  UNL     1      42.120  28.834  20.613  1.00  0.00     0.155 HD
HETATM    4  C10 UNL     1      42.062  30.972  20.497  1.00  0.00     0.143 C 
HETATM    5  C11 UNL     1      42.454  30.903  21.980  1.00  0.00     0.251 C 
HETATM    6  N5  UNL     1      41.596  31.698  22.796  1.00  0.00    -0.072 N 
ATOM      7  H51 UNL     1      41.113  32.399  22.233  1.00  0.00     0.277 HD
ATOM      8  H52 UNL     1      42.141  32.312  23.401  1.00  0.00     0.277 HD
HETATM    9  C12 UNL     1      40.646  30.924  23.574  1.00  0.00     0.259 C 
HETATM   10  C13 UNL     1      39.331  31.644  23.738  1.00  0.00     0.259 C 
HETATM   11  N6  UNL     1      38.193  30.760  23.693  1.00  0.00    -0.074 N 
ATOM     12  H61 UNL     1      37.826  30.568  24.625  1.00  0.00     0.277 HD
ATOM     13  H62 UNL     1      38.462  29.811  23.435  1.00  0.00     0.277 HD
HETATM   14  C14 UNL     1      37.153  31.295  22.799  1.00  0.00     0.232 C 
HETATM   15  C15 UNL     1      37.626  31.253  21.376  1.00  0.00     0.027 C 
HETATM   16  C16 UNL     1      36.886  30.286  20.518  1.00  0.00     0.002 C 
HETATM   17  C17 UNL     1      37.283  28.862  20.676  1.00  0.00     0.002 C 
HETATM   18  C18 UNL     1      38.730  28.587  20.457  1.00  0.00     0.021 C 
HETATM   19  C19 UNL     1      39.197  28.745  19.054  1.00  0.00     0.139 C 
HETATM   20  N7  UNL     1      39.698  30.028  18.712  1.00  0.00    -0.339 N 
ATOM     21  H7  UNL     1      39.230  30.883  19.011  1.00  0.00     0.179 HD
HETATM   22  N8  UNL     1      40.840  30.056  17.961  1.00  0.00    -0.318 N 
ATOM     23  H8  UNL     1      40.858  30.445  17.018  1.00  0.00     0.182 HD
ENDROOT
BRANCH   1  24
HETATM   24  C8  UNL     1      43.291  29.997  17.977  1.00  0.00     0.048 C 
BRANCH  24  25
HETATM   25  C7  UNL     1      44.037  28.948  17.203  1.00  0.00     0.005 C 
BRANCH  25  26
HETATM   26  C6  UNL     1      43.061  28.073  16.415  1.00  0.00     0.020 C 
BRANCH  26  27
HETATM   27  C5  UNL     1      42.752  28.683  15.075  1.00  0.00     0.122 C 
BRANCH  27  28
HETATM   28  N3  UNL     1      42.390  27.668  14.118  1.00  0.00    -0.359 N 
HETATM   29  C4  UNL     1      42.562  27.791  12.716  1.00  0.00     0.250 C 
HETATM   30  O1  UNL     1      43.063  28.843  12.261  1.00  0.00    -0.271 OA
ATOM     31  H3  UNL     1      41.984  26.803  14.473  1.00  0.00     0.162 HD
BRANCH  29  32
HETATM   32  C3  UNL     1      42.159  26.703  11.777  1.00  0.00     0.304 C 
BRANCH  32  33
HETATM   33  C2  UNL     1      41.284  25.742  12.543  1.00  0.00     0.219 C 
HETATM   34  C1  UNL     1      40.133  25.234  11.719  1.00  0.00     0.042 C 
BRANCH  33  35
HETATM   35  N1  UNL     1      42.081  24.611  12.981  1.00  0.00    -0.073 N 
ATOM     36  H13 UNL     1      41.771  23.733  12.567  1.00  0.00     0.274 HD
ATOM     37  H12 UNL     1      43.024  24.626  12.592  1.00  0.00     0.274 HD
ATOM     38  H11 UNL     1      42.080  24.584  14.000  1.00  0.00     0.274 HD
ENDBRANCH  33  35
ENDBRANCH  32  33
BRANCH  32  39
HETATM   39  N2  UNL     1      43.345  26.082  11.266  1.00  0.00    -0.064 N 
ATOM     40  H23 UNL     1      43.220  25.074  11.173  1.00  0.00     0.275 HD
ATOM     41  H22 UNL     1      43.491  26.320  10.285  1.00  0.00     0.275 HD
ATOM     42  H21 UNL     1      44.173  26.298  11.823  1.00  0.00     0.275 HD
ENDBRANCH  32  39
ENDBRANCH  29  32
ENDBRANCH  27  28
ENDBRANCH  26  27
ENDBRANCH  25  26
ENDBRANCH  24  25
ENDBRANCH   1  24
TORSDOF 9
ENDMDL
MODEL 3
REMARK VINA RESULT: -8.177047366      1.073      1.265
REMARK  9 active torsions:
REMARK  status: ('A' for Active; 'I' for Inactive)
REMARK    1  A    between atoms: C2_2  and  N1_3 
REMARK    2  A    between atoms: C2_2  and  C3_7 
REMARK    3  A    between atoms: C3_7  and  N2_8 
REMARK    4  A    between atoms: C3_7  and  C4_12 
REMARK       I    between atoms: C4_12  and  N3_14 
REMARK    5  A    between atoms: N3_14  and  C5_16 
REMARK    6  A    between atoms: C5_16  and  C6_17 
REMARK    7  A    between atoms: C6_17  and  C7_18 
REMARK    8  A    between atoms: C7_18  and  C8_19 
REMARK    9  A    between atoms: C8_19  and  C9_20 
ROOT
HETATM    1  C9  UNL     1      41.552  30.558  19.681  1.00  0.00     0.192 C 
HETATM    2  N4  UNL     1      40.218  30.050  19.664  1.00  0.00    -0.399 N 
ATOM      3  H4  UNL     1      39.440  30.590  19.285  1.00  0.00     0.155 HD
HETATM    4  C10 UNL     1      40.037  28.750  20.206  1.00  0.00     0.143 C 
HETATM    5  C11 UNL     1      38.631  28.280  19.806  1.00  0.00     0.251 C 
HETATM    6  N5  UNL     1      37.931  27.702  20.907  1.00  0.00    -0.072 N 
ATOM      7  H51 UNL     1      38.582  27.415  21.637  1.00  0.00     0.277 HD
ATOM      8  H52 UNL     1      37.547  26.792  20.651  1.00  0.00     0.277 HD
HETATM    9  C12 UNL     1      36.895  28.559  21.454  1.00  0.00     0.259 C 
HETATM   10  C13 UNL     1      36.755  28.392  22.947  1.00  0.00     0.259 C 
HETATM   11  N6  UNL     1      36.469  29.629  23.630  1.00  0.00    -0.074 N 
ATOM     12  H61 UNL     1      35.483  29.704  23.879  1.00  0.00     0.277 HD
ATOM     13  H62 UNL     1      36.530  30.430  23.001  1.00  0.00     0.277 HD
HETATM   14  C14 UNL     1      37.341  29.790  24.804  1.00  0.00     0.232 C 
HETATM   15  C15 UNL     1      38.760  30.007  24.368  1.00  0.00     0.027 C 
HETATM   16  C16 UNL     1      39.284  31.369  24.659  1.00  0.00     0.002 C 
HETATM   17  C17 UNL     1      38.848  32.434  23.718  1.00  0.00     0.002 C 
HETATM   18  C18 UNL     1      39.157  32.170  22.286  1.00  0.00     0.021 C 
HETATM   19  C19 UNL     1      40.601  32.206  21.935  1.00  0.00     0.139 C 
HETATM   20  N7  UNL     1      41.283  30.963  22.000  1.00  0.00    -0.339 N 
ATOM     21  H7  UNL     1      41.139  30.312  22.771  1.00  0.00     0.179 HD
HETATM   22  N8  UNL     1      42.142  30.684  20.973  1.00  0.00    -0.318 N 
ATOM     23  H8  UNL     1      43.145  30.574  21.122  1.00  0.00     0.182 HD
ENDROOT
BRANCH   1  24
HETATM   24  C8  UNL     1      42.386  29.777  18.708  1.00  0.00     0.048 C 
BRANCH  24  25
HETATM   25  C7  UNL     1      42.080  30.076  17.269  1.00  0.00     0.005 C 
BRANCH  25  26
HETATM   26  C6  UNL     1      41.978  28.779  16.465  1.00  0.00     0.020 C 
BRANCH  26  27
HETATM   27  C5  UNL     1      42.862  28.828  15.248  1.00  0.00     0.122 C 
BRANCH  27  28
HETATM   28  N3  UNL     1      42.440  27.863  14.265  1.00  0.00    -0.359 N 
HETATM   29  C4  UNL     1      42.702  27.967  12.876  1.00  0.00     0.250 C 
HETATM   30  O1  UNL     1      43.345  28.954  12.457  1.00  0.00    -0.271 OA
ATOM     31  H3  UNL     1      41.917  27.050  14.591  1.00  0.00     0.162 HD
BRANCH  29  32
HETATM   32  C3  UNL     1      42.228  26.934  11.907  1.00  0.00     0.304 C 
BRANCH  32  33
HETATM   33  C2  UNL     1      41.369  25.956  12.670  1.00  0.00     0.219 C 
HETATM   34  C1  UNL     1      40.174  25.503  11.877  1.00  0.00     0.042 C 
BRANCH  33  35
HETATM   35  N1  UNL     1      42.163  24.794  13.025  1.00  0.00    -0.073 N 
ATOM     36  H13 UNL     1      43.109  24.839  12.647  1.00  0.00     0.274 HD
ATOM     37  H12 UNL     1      42.407  24.777  14.015  1.00  0.00     0.274 HD
ATOM     38  H11 UNL     1      41.665  23.954  12.732  1.00  0.00     0.274 HD
ENDBRANCH  33  35
ENDBRANCH  32  33
BRANCH  32  39
HETATM   39  N2  UNL     1      43.374  26.313  11.310  1.00  0.00    -0.064 N 
ATOM     40  H23 UNL     1      43.165  25.991  10.365  1.00  0.00     0.275 HD
ATOM     41  H22 UNL     1      44.093  27.003  11.093  1.00  0.00     0.275 HD
ATOM     42  H21 UNL     1      43.752  25.556  11.880  1.00  0.00     0.275 HD
ENDBRANCH  32  39
ENDBRANCH  29  32
ENDBRANCH  27  28
ENDBRANCH  26  27
ENDBRANCH  25  26
ENDBRANCH  24  25
ENDBRANCH   1  24
TORSDOF 9
ENDMDL
MODEL 4
REMARK VINA RESULT: -8.048427770      1.426      1.870
REMARK  9 active torsions:
REMARK  status: ('A' for Active; 'I' for Inactive)
REMARK    1  A    between atoms: C2_2  and  N1_3 
REMARK    2  A    between atoms: C2_2  and  C3_7 
REMARK    3  A    between atoms: C3_7  and  N2_8 
REMARK    4  A    between atoms: C3_7  and  C4_12 
REMARK       I    between atoms: C4_12  and  N3_14 
REMARK    5  A    between atoms: N3_14  and  C5_16 
REMARK    6  A    between atoms: C5_16  and  C6_17 
REMARK    7  A    between atoms: C6_17  and  C7_18 
REMARK    8  A    between atoms: C7_18  and  C8_19 
REMARK    9  A    between atoms: C8_19  and  C9_20 
ROOT
HETATM    1  C9  UNL     1      42.027  30.384  19.764  1.00  0.00     0.192 C 
HETATM    2  N4  UNL     1      40.705  29.888  19.560  1.00  0.00    -0.399 N 
ATOM      3  H4  UNL     1      39.988  30.439  19.088  1.00  0.00     0.155 HD
HETATM    4  C10 UNL     1      40.444  28.582  20.054  1.00  0.00     0.143 C 
HETATM    5  C11 UNL     1      39.102  28.129  19.462  1.00  0.00     0.251 C 
HETATM    6  N5  UNL     1      38.256  27.542  20.449  1.00  0.00    -0.072 N 
ATOM      7  H51 UNL     1      38.802  27.239  21.256  1.00  0.00     0.277 HD
ATOM      8  H52 UNL     1      37.905  26.639  20.132  1.00  0.00     0.277 HD
HETATM    9  C12 UNL     1      37.161  28.400  20.865  1.00  0.00     0.259 C 
HETATM   10  C13 UNL     1      36.821  28.214  22.323  1.00  0.00     0.259 C 
HETATM   11  N6  UNL     1      36.453  29.445  22.978  1.00  0.00    -0.074 N 
ATOM     12  H61 UNL     1      35.443  29.525  23.094  1.00  0.00     0.277 HD
ATOM     13  H62 UNL     1      36.603  30.253  22.375  1.00  0.00     0.277 HD
HETATM   14  C14 UNL     1      37.160  29.583  24.262  1.00  0.00     0.232 C 
HETATM   15  C15 UNL     1      38.626  29.793  24.023  1.00  0.00     0.027 C 
HETATM   16  C16 UNL     1      39.115  31.147  24.403  1.00  0.00     0.002 C 
HETATM   17  C17 UNL     1      38.816  32.228  23.426  1.00  0.00     0.002 C 
HETATM   18  C18 UNL     1      39.314  31.980  22.045  1.00  0.00     0.021 C 
HETATM   19  C19 UNL     1      40.793  32.010  21.892  1.00  0.00     0.139 C 
HETATM   20  N7  UNL     1      41.451  30.761  22.031  1.00  0.00    -0.339 N 
ATOM     21  H7  UNL     1      41.201  30.101  22.766  1.00  0.00     0.179 HD
HETATM   22  N8  UNL     1      42.440  30.488  21.125  1.00  0.00    -0.318 N 
ATOM     23  H8  UNL     1      43.412  30.368  21.407  1.00  0.00     0.182 HD
ENDROOT
BRANCH   1  24
HETATM   24  C8  UNL     1      42.980  29.610  18.901  1.00  0.00     0.048 C 
BRANCH  24  25
HETATM   25  C7  UNL     1      42.954  30.012  17.455  1.00  0.00     0.005 C 
BRANCH  25  26
HETATM   26  C6  UNL     1      43.362  28.835  16.567  1.00  0.00     0.020 C 
BRANCH  26  27
HETATM   27  C5  UNL     1      42.211  28.385  15.708  1.00  0.00     0.122 C 
BRANCH  27  28
HETATM   28  N3  UNL     1      42.678  27.906  14.431  1.00  0.00    -0.359 N 
HETATM   29  C4  UNL     1      42.741  28.695  13.255  1.00  0.00     0.250 C 
HETATM   30  O1  UNL     1      42.376  29.890  13.310  1.00  0.00    -0.271 OA
ATOM     31  H3  UNL     1      42.983  26.935  14.369  1.00  0.00     0.162 HD
BRANCH  29  32
HETATM   32  C3  UNL     1      43.229  28.135  11.959  1.00  0.00     0.304 C 
BRANCH  32  33
HETATM   33  C2  UNL     1      42.948  26.653  11.970  1.00  0.00     0.219 C 
HETATM   34  C1  UNL     1      41.542  26.333  11.540  1.00  0.00     0.042 C 
BRANCH  33  35
HETATM   35  N1  UNL     1      43.874  25.982  11.077  1.00  0.00    -0.073 N 
ATOM     36  H13 UNL     1      44.360  26.631  10.460  1.00  0.00     0.274 HD
ATOM     37  H12 UNL     1      44.690  25.615  11.567  1.00  0.00     0.274 HD
ATOM     38  H11 UNL     1      43.371  25.259  10.564  1.00  0.00     0.274 HD
ENDBRANCH  33  35
ENDBRANCH  32  33
BRANCH  32  39
HETATM   39  N2  UNL     1      44.625  28.431  11.833  1.00  0.00    -0.064 N 
ATOM     40  H23 UNL     1      45.001  28.800  12.706  1.00  0.00     0.275 HD
ATOM     41  H22 UNL     1      45.177  27.576  11.764  1.00  0.00     0.275 HD
ATOM     42  H21 UNL     1      44.825  29.060  11.054  1.00  0.00     0.275 HD
ENDBRANCH  32  39
ENDBRANCH  29  32
ENDBRANCH  27  28
ENDBRANCH  26  27
ENDBRANCH  25  26
ENDBRANCH  24  25
ENDBRANCH   1  24
TORSDOF 9
ENDMDL
MODEL 5
REMARK VINA RESULT: -8.021813489      3.306      5.436
REMARK  9 active torsions:
REMARK  status: ('A' for Active; 'I' for Inactive)
REMARK    1  A    between atoms: C2_2  and  N1_3 
REMARK    2  A    between atoms: C2_2  and  C3_7 
REMARK    3  A    between atoms: C3_7  and  N2_8 
REMARK    4  A    between atoms: C3_7  and  C4_12 
REMARK       I    between atoms: C4_12  and  N3_14 
REMARK    5  A    between atoms: N3_14  and  C5_16 
REMARK    6  A    between atoms: C5_16  and  C6_17 
REMARK    7  A    between atoms: C6_17  and  C7_18 
REMARK    8  A    between atoms: C7_18  and  C8_19 
REMARK    9  A    between atoms: C8_19  and  C9_20 
ROOT
HETATM    1  C9  UNL     1      38.006  30.656  21.552  1.00  0.00     0.192 C 
HETATM    2  N4  UNL     1      39.364  30.574  21.982  1.00  0.00    -0.399 N 
ATOM      3  H4  UNL     1      39.625  30.131  22.863  1.00  0.00     0.155 HD
HETATM    4  C10 UNL     1      40.331  31.145  21.114  1.00  0.00     0.143 C 
HETATM    5  C11 UNL     1      41.711  30.675  21.594  1.00  0.00     0.251 C 
HETATM    6  N5  UNL     1      42.650  31.748  21.648  1.00  0.00    -0.072 N 
ATOM      7  H51 UNL     1      42.340  32.526  21.065  1.00  0.00     0.277 HD
ATOM      8  H52 UNL     1      43.510  31.499  21.159  1.00  0.00     0.277 HD
HETATM    9  C12 UNL     1      42.941  32.203  22.995  1.00  0.00     0.259 C 
HETATM   10  C13 UNL     1      43.195  33.689  23.047  1.00  0.00     0.259 C 
HETATM   11  N6  UNL     1      42.667  34.312  24.234  1.00  0.00    -0.074 N 
ATOM     12  H61 UNL     1      43.398  34.498  24.921  1.00  0.00     0.277 HD
ATOM     13  H62 UNL     1      42.102  33.663  24.782  1.00  0.00     0.277 HD
HETATM   14  C14 UNL     1      41.918  35.533  23.893  1.00  0.00     0.232 C 
HETATM   15  C15 UNL     1      40.662  35.177  23.153  1.00  0.00     0.027 C 
HETATM   16  C16 UNL     1      39.411  35.457  23.911  1.00  0.00     0.002 C 
HETATM   17  C17 UNL     1      39.062  34.456  24.953  1.00  0.00     0.002 C 
HETATM   18  C18 UNL     1      38.945  33.055  24.464  1.00  0.00     0.021 C 
HETATM   19  C19 UNL     1      37.784  32.793  23.573  1.00  0.00     0.139 C 
HETATM   20  N7  UNL     1      38.028  32.940  22.183  1.00  0.00    -0.339 N 
ATOM     21  H7  UNL     1      38.568  33.722  21.813  1.00  0.00     0.179 HD
HETATM   22  N8  UNL     1      37.501  31.977  21.366  1.00  0.00    -0.318 N 
ATOM     23  H8  UNL     1      36.791  32.192  20.666  1.00  0.00     0.182 HD
ENDROOT
BRANCH   1  24
HETATM   24  C8  UNL     1      37.813  29.763  20.362  1.00  0.00     0.048 C 
BRANCH  24  25
HETATM   25  C7  UNL     1      38.067  28.310  20.646  1.00  0.00     0.005 C 
BRANCH  25  26
HETATM   26  C6  UNL     1      39.073  27.740  19.645  1.00  0.00     0.020 C 
BRANCH  26  27
HETATM   27  C5  UNL     1      39.434  28.763  18.602  1.00  0.00     0.122 C 
BRANCH  27  28
HETATM   28  N3  UNL     1      40.633  28.381  17.899  1.00  0.00    -0.359 N 
HETATM   29  C4  UNL     1      41.660  29.282  17.521  1.00  0.00     0.250 C 
HETATM   30  O1  UNL     1      41.539  30.492  17.812  1.00  0.00    -0.271 OA
ATOM     31  H3  UNL     1      40.750  27.397  17.658  1.00  0.00     0.162 HD
BRANCH  29  32
HETATM   32  C3  UNL     1      42.877  28.822  16.786  1.00  0.00     0.304 C 
BRANCH  32  33
HETATM   33  C2  UNL     1      44.077  29.425  17.473  1.00  0.00     0.219 C 
HETATM   34  C1  UNL     1      44.357  28.784  18.805  1.00  0.00     0.042 C 
BRANCH  33  35
HETATM   35  N1  UNL     1      45.244  29.269  16.624  1.00  0.00    -0.073 N 
ATOM     36  H13 UNL     1      46.084  29.044  17.155  1.00  0.00     0.274 HD
ATOM     37  H12 UNL     1      45.203  28.422  16.058  1.00  0.00     0.274 HD
ATOM     38  H11 UNL     1      45.354  30.111  16.059  1.00  0.00     0.274 HD
ENDBRANCH  33  35
ENDBRANCH  32  33
BRANCH  32  39
HETATM   39  N2  UNL     1      42.761  29.228  15.417  1.00  0.00    -0.064 N 
ATOM     40  H23 UNL     1      42.237  30.100  15.337  1.00  0.00     0.275 HD
ATOM     41  H22 UNL     1      43.660  29.543  15.051  1.00  0.00     0.275 HD
ATOM     42  H21 UNL     1      42.358  28.503  14.824  1.00  0.00     0.275 HD
ENDBRANCH  32  39
ENDBRANCH  29  32
ENDBRANCH  27  28
ENDBRANCH  26  27
ENDBRANCH  25  26
ENDBRANCH  24  25
ENDBRANCH   1  24
TORSDOF 9
ENDMDL
