MODEL 1
REMARK VINA RESULT: -7.268080363      0.000      0.000
REMARK  3 active torsions:
REMARK  status: ('A' for Active; 'I' for Inactive)
REMARK    1  A    between atoms: C2_2  and  N1_4 
REMARK    2  A    between atoms: C2_2  and  C13_21 
REMARK       I    between atoms: N1_4  and  C4_6 
REMARK       I    between atoms: C4_6  and  N3_10 
REMARK    3  A    between atoms: N3_10  and  C5_12 
ROOT
HETATM    1  N1  UNL     1      21.196  43.615  23.093  1.00  0.00    -0.209 N 
ATOM      2  H1  UNL     1      20.581  44.156  22.487  1.00  0.00     0.178 HD
HETATM    3  C4  UNL     1      21.542  44.196  24.331  1.00  0.00     0.673 C 
HETATM    4  N2  UNL     1      22.699  44.816  24.342  1.00  0.00    -0.235 N 
ATOM      5  H21 UNL     1      22.949  45.236  25.237  1.00  0.00     0.174 HD
ATOM      6  H22 UNL     1      23.305  44.847  23.523  1.00  0.00     0.174 HD
HETATM    7  N3  UNL     1      20.705  44.153  25.464  1.00  0.00    -0.192 N 
ATOM      8  H3  UNL     1      19.756  44.518  25.380  1.00  0.00     0.184 HD
ENDROOT
BRANCH   1   9
HETATM    9  C2  UNL     1      21.617  42.359  22.611  1.00  0.00     0.137 C 
HETATM   10  C1  UNL     1      21.488  42.292  21.090  1.00  0.00     0.048 C 
HETATM   11  C3  UNL     1      23.150  42.230  22.840  1.00  0.00     0.048 C 
BRANCH   9  12
HETATM   12  C13 UNL     1      20.974  41.149  23.217  1.00  0.00     0.412 C 
HETATM   13  F1  UNL     1      19.761  41.338  23.786  1.00  0.00    -0.168 F 
HETATM   14  F2  UNL     1      20.834  40.125  22.278  1.00  0.00    -0.168 F 
HETATM   15  F3  UNL     1      21.797  40.596  24.209  1.00  0.00    -0.168 F 
ENDBRANCH   9  12
ENDBRANCH   1   9
BRANCH   7  16
HETATM   16  C5  UNL     1      21.120  43.621  26.721  1.00  0.00     0.050 A 
HETATM   17  C6  UNL     1      20.610  44.197  27.860  1.00  0.00     0.031 A 
HETATM   18  C7  UNL     1      21.029  43.645  29.082  1.00  0.00     0.022 A 
HETATM   19  C8  UNL     1      21.909  42.581  29.096  1.00  0.00     0.015 A 
HETATM   20  S1  UNL     1      22.624  41.669  30.349  1.00  0.00    -0.101 SA
HETATM   21  C11 UNL     1      22.420  42.005  27.969  1.00  0.00    -0.017 A 
HETATM   22  C9  UNL     1      23.549  40.586  29.415  1.00  0.00     0.051 A 
HETATM   23  C10 UNL     1      23.275  40.964  28.136  1.00  0.00     0.020 A 
HETATM   24  C12 UNL     1      22.008  42.549  26.744  1.00  0.00     0.043 A 
ENDBRANCH   7  16
TORSDOF 3
ENDMDL
MODEL 2
REMARK VINA RESULT: -7.242047343      2.398      3.497
REMARK  3 active torsions:
REMARK  status: ('A' for Active; 'I' for Inactive)
REMARK    1  A    between atoms: C2_2  and  N1_4 
REMARK    2  A    between atoms: C2_2  and  C13_21 
REMARK       I    between atoms: N1_4  and  C4_6 
REMARK       I    between atoms: C4_6  and  N3_10 
REMARK    3  A    between atoms: N3_10  and  C5_12 
ROOT
HETATM    1  N1  UNL     1      22.092  42.285  23.036  1.00  0.00    -0.209 N 
ATOM      2  H1  UNL     1      22.727  41.770  22.427  1.00  0.00     0.178 HD
HETATM    3  C4  UNL     1      21.761  41.680  24.266  1.00  0.00     0.673 C 
HETATM    4  N2  UNL     1      20.625  41.023  24.266  1.00  0.00    -0.235 N 
ATOM      5  H21 UNL     1      20.386  40.585  25.156  1.00  0.00     0.174 HD
ATOM      6  H22 UNL     1      20.023  40.980  23.444  1.00  0.00     0.174 HD
HETATM    7  N3  UNL     1      22.592  41.738  25.402  1.00  0.00    -0.192 N 
ATOM      8  H3  UNL     1      23.553  41.405  25.319  1.00  0.00     0.184 HD
ENDROOT
BRANCH   1   9
HETATM    9  C2  UNL     1      21.632  43.531  22.565  1.00  0.00     0.137 C 
HETATM   10  C1  UNL     1      21.737  43.608  21.043  1.00  0.00     0.048 C 
HETATM   11  C3  UNL     1      20.099  43.620  22.817  1.00  0.00     0.048 C 
BRANCH   9  12
HETATM   12  C13 UNL     1      22.252  44.755  23.168  1.00  0.00     0.412 C 
HETATM   13  F1  UNL     1      23.442  44.579  23.788  1.00  0.00    -0.168 F 
HETATM   14  F2  UNL     1      22.430  45.757  22.211  1.00  0.00    -0.168 F 
HETATM   15  F3  UNL     1      21.392  45.332  24.113  1.00  0.00    -0.168 F 
ENDBRANCH   9  12
ENDBRANCH   1   9
BRANCH   7  16
HETATM   16  C5  UNL     1      22.156  42.243  26.664  1.00  0.00     0.050 A 
HETATM   17  C6  UNL     1      22.617  41.619  27.798  1.00  0.00     0.031 A 
HETATM   18  C7  UNL     1      22.178  42.144  29.024  1.00  0.00     0.022 A 
HETATM   19  C8  UNL     1      21.327  43.232  29.047  1.00  0.00     0.015 A 
HETATM   20  S1  UNL     1      20.602  44.124  30.307  1.00  0.00    -0.101 SA
HETATM   21  C11 UNL     1      20.865  43.856  27.925  1.00  0.00    -0.017 A 
HETATM   22  C9  UNL     1      19.734  45.261  29.383  1.00  0.00     0.051 A 
HETATM   23  C10 UNL     1      20.034  44.914  28.100  1.00  0.00     0.020 A 
HETATM   24  C12 UNL     1      21.297  43.338  26.695  1.00  0.00     0.043 A 
ENDBRANCH   7  16
TORSDOF 3
ENDMDL
MODEL 3
REMARK VINA RESULT: -6.985913884      3.145      5.844
REMARK  3 active torsions:
REMARK  status: ('A' for Active; 'I' for Inactive)
REMARK    1  A    between atoms: C2_2  and  N1_4 
REMARK    2  A    between atoms: C2_2  and  C13_21 
REMARK       I    between atoms: N1_4  and  C4_6 
REMARK       I    between atoms: C4_6  and  N3_10 
REMARK    3  A    between atoms: N3_10  and  C5_12 
ROOT
HETATM    1  N1  UNL     1      22.490  43.338  28.366  1.00  0.00    -0.209 N 
ATOM      2  H1  UNL     1      22.989  43.951  29.009  1.00  0.00     0.178 HD
HETATM    3  C4  UNL     1      21.998  43.925  27.181  1.00  0.00     0.673 C 
HETATM    4  N2  UNL     1      20.736  44.279  27.228  1.00  0.00    -0.235 N 
ATOM      5  H21 UNL     1      20.380  44.703  26.372  1.00  0.00     0.174 HD
ATOM      6  H22 UNL     1      20.157  44.117  28.051  1.00  0.00     0.174 HD
HETATM    7  N3  UNL     1      22.798  44.150  26.043  1.00  0.00    -0.192 N 
ATOM      8  H3  UNL     1      23.648  44.704  26.149  1.00  0.00     0.184 HD
ENDROOT
BRANCH   1   9
HETATM    9  C2  UNL     1      22.360  41.988  28.749  1.00  0.00     0.137 C 
HETATM   10  C1  UNL     1      21.986  41.877  30.227  1.00  0.00     0.048 C 
HETATM   11  C3  UNL     1      21.119  41.387  28.027  1.00  0.00     0.048 C 
BRANCH   9  12
HETATM   12  C13 UNL     1      23.521  41.086  28.462  1.00  0.00     0.412 C 
HETATM   13  F1  UNL     1      24.722  41.486  28.941  1.00  0.00    -0.168 F 
HETATM   14  F2  UNL     1      23.293  39.796  28.945  1.00  0.00    -0.168 F 
HETATM   15  F3  UNL     1      23.682  40.911  27.079  1.00  0.00    -0.168 F 
ENDBRANCH   9  12
ENDBRANCH   1   9
BRANCH   7  16
HETATM   16  C5  UNL     1      22.476  43.640  24.750  1.00  0.00     0.050 A 
HETATM   17  C6  UNL     1      22.437  44.528  23.703  1.00  0.00     0.031 A 
HETATM   18  C7  UNL     1      22.128  43.994  22.440  1.00  0.00     0.022 A 
HETATM   19  C8  UNL     1      21.883  42.643  22.301  1.00  0.00     0.015 A 
HETATM   20  S1  UNL     1      21.488  41.656  20.966  1.00  0.00    -0.101 SA
HETATM   21  C11 UNL     1      21.919  41.755  23.337  1.00  0.00    -0.017 A 
HETATM   22  C9  UNL     1      21.379  40.150  21.753  1.00  0.00     0.051 A 
HETATM   23  C10 UNL     1      21.657  40.455  23.051  1.00  0.00     0.020 A 
HETATM   24  C12 UNL     1      22.227  42.278  24.601  1.00  0.00     0.043 A 
ENDBRANCH   7  16
TORSDOF 3
ENDMDL
MODEL 4
REMARK VINA RESULT: -6.980145920      3.689      6.362
REMARK  3 active torsions:
REMARK  status: ('A' for Active; 'I' for Inactive)
REMARK    1  A    between atoms: C2_2  and  N1_4 
REMARK    2  A    between atoms: C2_2  and  C13_21 
REMARK       I    between atoms: N1_4  and  C4_6 
REMARK       I    between atoms: C4_6  and  N3_10 
REMARK    3  A    between atoms: N3_10  and  C5_12 
ROOT
HETATM    1  N1  UNL     1      20.747  42.511  28.376  1.00  0.00    -0.209 N 
ATOM      2  H1  UNL     1      20.248  41.899  29.021  1.00  0.00     0.178 HD
HETATM    3  C4  UNL     1      21.239  41.921  27.193  1.00  0.00     0.673 C 
HETATM    4  N2  UNL     1      22.502  41.567  27.241  1.00  0.00    -0.235 N 
ATOM      5  H21 UNL     1      22.857  41.140  26.386  1.00  0.00     0.174 HD
ATOM      6  H22 UNL     1      23.080  41.732  28.064  1.00  0.00     0.174 HD
HETATM    7  N3  UNL     1      20.439  41.692  26.056  1.00  0.00    -0.192 N 
ATOM      8  H3  UNL     1      19.590  41.139  26.163  1.00  0.00     0.184 HD
ENDROOT
BRANCH   1   9
HETATM    9  C2  UNL     1      20.877  43.862  28.755  1.00  0.00     0.137 C 
HETATM   10  C1  UNL     1      21.241  43.977  30.235  1.00  0.00     0.048 C 
HETATM   11  C3  UNL     1      22.123  44.458  28.039  1.00  0.00     0.048 C 
BRANCH   9  12
HETATM   12  C13 UNL     1      19.719  44.765  28.458  1.00  0.00     0.412 C 
HETATM   13  F1  UNL     1      18.517  44.374  28.941  1.00  0.00    -0.168 F 
HETATM   14  F2  UNL     1      19.951  46.059  28.927  1.00  0.00    -0.168 F 
HETATM   15  F3  UNL     1      19.559  44.925  27.074  1.00  0.00    -0.168 F 
ENDBRANCH   9  12
ENDBRANCH   1   9
BRANCH   7  16
HETATM   16  C5  UNL     1      20.761  42.199  24.761  1.00  0.00     0.050 A 
HETATM   17  C6  UNL     1      20.795  41.309  23.715  1.00  0.00     0.031 A 
HETATM   18  C7  UNL     1      21.104  41.839  22.452  1.00  0.00     0.022 A 
HETATM   19  C8  UNL     1      21.355  43.190  22.309  1.00  0.00     0.015 A 
HETATM   20  S1  UNL     1      21.752  44.172  20.973  1.00  0.00    -0.101 SA
HETATM   21  C11 UNL     1      21.324  44.079  23.344  1.00  0.00    -0.017 A 
HETATM   22  C9  UNL     1      21.868  45.680  21.756  1.00  0.00     0.051 A 
HETATM   23  C10 UNL     1      21.591  45.378  23.056  1.00  0.00     0.020 A 
HETATM   24  C12 UNL     1      21.016  43.560  24.610  1.00  0.00     0.043 A 
ENDBRANCH   7  16
TORSDOF 3
ENDMDL
MODEL 5
REMARK VINA RESULT: -6.949046036      1.620      2.391
REMARK  3 active torsions:
REMARK  status: ('A' for Active; 'I' for Inactive)
REMARK    1  A    between atoms: C2_2  and  N1_4 
REMARK    2  A    between atoms: C2_2  and  C13_21 
REMARK       I    between atoms: N1_4  and  C4_6 
REMARK       I    between atoms: C4_6  and  N3_10 
REMARK    3  A    between atoms: N3_10  and  C5_12 
ROOT
HETATM    1  N1  UNL     1      20.856  43.617  24.816  1.00  0.00    -0.209 N 
ATOM      2  H1  UNL     1      20.204  44.333  24.495  1.00  0.00     0.178 HD
HETATM    3  C4  UNL     1      21.535  43.872  26.026  1.00  0.00     0.673 C 
HETATM    4  N2  UNL     1      22.740  44.372  25.884  1.00  0.00    -0.235 N 
ATOM      5  H21 UNL     1      23.231  44.556  26.759  1.00  0.00     0.174 HD
ATOM      6  H22 UNL     1      23.155  44.536  24.967  1.00  0.00     0.174 HD
HETATM    7  N3  UNL     1      20.962  43.645  27.293  1.00  0.00    -0.192 N 
ATOM      8  H3  UNL     1      20.076  44.100  27.514  1.00  0.00     0.184 HD
ENDROOT
BRANCH   1   9
HETATM    9  C2  UNL     1      20.990  42.472  24.005  1.00  0.00     0.137 C 
HETATM   10  C1  UNL     1      20.883  42.839  22.526  1.00  0.00     0.048 C 
HETATM   11  C3  UNL     1      22.448  41.945  24.132  1.00  0.00     0.048 C 
BRANCH   9  12
HETATM   12  C13 UNL     1      20.075  41.322  24.299  1.00  0.00     0.412 C 
HETATM   13  F1  UNL     1      19.967  40.960  25.598  1.00  0.00    -0.168 F 
HETATM   14  F2  UNL     1      18.783  41.571  23.831  1.00  0.00    -0.168 F 
HETATM   15  F3  UNL     1      20.480  40.177  23.598  1.00  0.00    -0.168 F 
ENDBRANCH   9  12
ENDBRANCH   1   9
BRANCH   7  16
HETATM   16  C5  UNL     1      21.562  42.809  28.282  1.00  0.00     0.050 A 
HETATM   17  C6  UNL     1      22.268  41.713  27.851  1.00  0.00     0.031 A 
HETATM   18  C7  UNL     1      22.856  40.915  28.848  1.00  0.00     0.022 A 
HETATM   19  C8  UNL     1      22.707  41.249  30.180  1.00  0.00     0.015 A 
HETATM   20  S1  UNL     1      23.259  40.545  31.632  1.00  0.00    -0.101 SA
HETATM   21  C11 UNL     1      22.006  42.337  30.614  1.00  0.00    -0.017 A 
HETATM   22  C9  UNL     1      22.590  41.642  32.749  1.00  0.00     0.051 A 
HETATM   23  C10 UNL     1      21.945  42.541  31.954  1.00  0.00     0.020 A 
HETATM   24  C12 UNL     1      21.416  43.139  29.627  1.00  0.00     0.043 A 
ENDBRANCH   7  16
TORSDOF 3
ENDMDL
