MODEL 1
REMARK VINA RESULT: -7.859587685      0.000      0.000
REMARK  2 active torsions:
REMARK  status: ('A' for Active; 'I' for Inactive)
REMARK    1  A    between atoms: C2_2  and  C4_4 
REMARK    2  A    between atoms: C9_11  and  C10_12 
ROOT
HETATM    1  C4  UNL     1      21.490  42.556  23.651  1.00  0.00     0.010 A 
HETATM    2  C5  UNL     1      21.954  42.801  24.963  1.00  0.00     0.049 A 
HETATM    3  C6  UNL     1      22.577  43.973  25.323  1.00  0.00     0.010 A 
HETATM    4  C7  UNL     1      22.757  44.954  24.356  1.00  0.00     0.149 A 
HETATM    5  F1  UNL     1      23.381  46.114  24.733  1.00  0.00    -0.203 F 
HETATM    6  C8  UNL     1      22.310  44.730  23.077  1.00  0.00     0.101 A 
HETATM    7  N1  UNL     1      22.520  45.784  22.118  1.00  0.00    -0.098 NA
HETATM    8  C9  UNL     1      21.676  43.539  22.692  1.00  0.00     0.087 A 
HETATM    9  C11 UNL     1      23.048  44.221  26.685  1.00  0.00     0.051 C 
HETATM   10  C12 UNL     1      22.389  43.470  27.779  1.00  0.00     0.013 C 
HETATM   11  C13 UNL     1      21.425  44.421  28.507  1.00  0.00     0.012 C 
HETATM   12  C14 UNL     1      21.750  42.181  27.423  1.00  0.00     0.026 C 
HETATM   13  C15 UNL     1      22.439  41.035  28.152  1.00  0.00     0.038 C 
HETATM   14  C16 UNL     1      20.321  42.176  27.903  1.00  0.00     0.038 C 
HETATM   15  N2  UNL     1      21.740  41.872  25.996  1.00  0.00    -0.380 N 
ATOM     16  H2  UNL     1      21.562  40.903  25.727  1.00  0.00     0.160 HD
ENDROOT
BRANCH   8  17
HETATM   17  C10 UNL     1      21.349  43.357  21.321  1.00  0.00     0.420 C 
HETATM   18  F2  UNL     1      22.503  43.688  20.541  1.00  0.00    -0.166 F 
HETATM   19  F3  UNL     1      20.826  42.275  20.772  1.00  0.00    -0.166 F 
HETATM   20  F4  UNL     1      20.488  44.409  20.909  1.00  0.00    -0.166 F 
ENDBRANCH   8  17
BRANCH   1  21
HETATM   21  C2  UNL     1      20.902  41.280  23.324  1.00  0.00    -0.074 C 
HETATM   22  C1  UNL     1      19.629  40.979  24.139  1.00  0.00     0.044 C 
HETATM   23  C3  UNL     1      21.634  40.080  22.901  1.00  0.00     0.044 C 
ENDBRANCH   1  21
TORSDOF 2
ENDMDL
MODEL 2
REMARK VINA RESULT: -7.758006610      1.731      3.665
REMARK  2 active torsions:
REMARK  status: ('A' for Active; 'I' for Inactive)
REMARK    1  A    between atoms: C2_2  and  C4_4 
REMARK    2  A    between atoms: C9_11  and  C10_12 
ROOT
HETATM    1  C4  UNL     1      21.713  43.402  23.537  1.00  0.00     0.010 A 
HETATM    2  C5  UNL     1      21.247  43.125  24.842  1.00  0.00     0.049 A 
HETATM    3  C6  UNL     1      20.662  41.928  25.182  1.00  0.00     0.010 A 
HETATM    4  C7  UNL     1      20.525  40.952  24.202  1.00  0.00     0.149 A 
HETATM    5  F1  UNL     1      19.939  39.768  24.561  1.00  0.00    -0.203 F 
HETATM    6  C8  UNL     1      20.975  41.207  22.930  1.00  0.00     0.101 A 
HETATM    7  N1  UNL     1      20.810  40.158  21.958  1.00  0.00    -0.098 NA
HETATM    8  C9  UNL     1      21.571  42.424  22.565  1.00  0.00     0.087 A 
HETATM    9  C11 UNL     1      20.187  41.648  26.537  1.00  0.00     0.051 C 
HETATM   10  C12 UNL     1      20.811  42.408  27.646  1.00  0.00     0.013 C 
HETATM   11  C13 UNL     1      21.800  41.482  28.371  1.00  0.00     0.012 C 
HETATM   12  C14 UNL     1      21.407  43.722  27.311  1.00  0.00     0.026 C 
HETATM   13  C15 UNL     1      20.672  44.835  28.046  1.00  0.00     0.038 C 
HETATM   14  C16 UNL     1      22.830  43.772  27.804  1.00  0.00     0.038 C 
HETATM   15  N2  UNL     1      21.419  44.049  25.887  1.00  0.00    -0.380 N 
ATOM     16  H2  UNL     1      21.565  45.026  25.631  1.00  0.00     0.160 HD
ENDROOT
BRANCH   8  17
HETATM   17  C10 UNL     1      21.903  42.634  21.200  1.00  0.00     0.420 C 
HETATM   18  F2  UNL     1      20.811  42.169  20.399  1.00  0.00    -0.166 F 
HETATM   19  F3  UNL     1      22.311  43.765  20.652  1.00  0.00    -0.166 F 
HETATM   20  F4  UNL     1      22.887  41.685  20.814  1.00  0.00    -0.166 F 
ENDBRANCH   8  17
BRANCH   1  21
HETATM   21  C2  UNL     1      22.260  44.701  23.231  1.00  0.00    -0.074 C 
HETATM   22  C1  UNL     1      23.441  45.087  24.142  1.00  0.00     0.044 C 
HETATM   23  C3  UNL     1      21.505  45.851  22.719  1.00  0.00     0.044 C 
ENDBRANCH   1  21
TORSDOF 2
ENDMDL
MODEL 3
REMARK VINA RESULT: -6.435033519      5.099      7.307
REMARK  2 active torsions:
REMARK  status: ('A' for Active; 'I' for Inactive)
REMARK    1  A    between atoms: C2_2  and  C4_4 
REMARK    2  A    between atoms: C9_11  and  C10_12 
ROOT
HETATM    1  C4  UNL     1      22.154  42.090  31.001  1.00  0.00     0.010 A 
HETATM    2  C5  UNL     1      21.502  43.255  31.462  1.00  0.00     0.049 A 
HETATM    3  C6  UNL     1      20.940  44.177  30.610  1.00  0.00     0.010 A 
HETATM    4  C7  UNL     1      21.018  43.952  29.241  1.00  0.00     0.149 A 
HETATM    5  F1  UNL     1      20.454  44.882  28.409  1.00  0.00    -0.203 F 
HETATM    6  C8  UNL     1      21.648  42.822  28.779  1.00  0.00     0.101 A 
HETATM    7  N1  UNL     1      21.694  42.639  27.351  1.00  0.00    -0.098 NA
HETATM    8  C9  UNL     1      22.229  41.874  29.634  1.00  0.00     0.087 A 
HETATM    9  C11 UNL     1      20.262  45.378  31.096  1.00  0.00     0.051 C 
HETATM   10  C12 UNL     1      19.707  45.336  32.469  1.00  0.00     0.013 C 
HETATM   11  C13 UNL     1      18.183  45.158  32.371  1.00  0.00     0.012 C 
HETATM   12  C14 UNL     1      20.327  44.382  33.419  1.00  0.00     0.026 C 
HETATM   13  C15 UNL     1      20.968  45.135  34.577  1.00  0.00     0.038 C 
HETATM   14  C16 UNL     1      19.260  43.513  34.032  1.00  0.00     0.038 C 
HETATM   15  N2  UNL     1      21.336  43.501  32.836  1.00  0.00    -0.380 N 
ATOM     16  H2  UNL     1      21.971  43.025  33.478  1.00  0.00     0.160 HD
ENDROOT
BRANCH   8  17
HETATM   17  C10 UNL     1      22.954  40.796  29.058  1.00  0.00     0.420 C 
HETATM   18  F2  UNL     1      22.212  39.591  29.278  1.00  0.00    -0.166 F 
HETATM   19  F3  UNL     1      23.416  40.728  27.821  1.00  0.00    -0.166 F 
HETATM   20  F4  UNL     1      24.086  40.516  29.869  1.00  0.00    -0.166 F 
ENDBRANCH   8  17
BRANCH   1  21
HETATM   21  C2  UNL     1      22.778  41.195  31.945  1.00  0.00    -0.074 C 
HETATM   22  C1  UNL     1      21.787  40.191  32.567  1.00  0.00     0.044 C 
HETATM   23  C3  UNL     1      23.917  41.520  32.812  1.00  0.00     0.044 C 
ENDBRANCH   1  21
TORSDOF 2
ENDMDL
MODEL 4
REMARK VINA RESULT: -6.418849555      5.072      7.405
REMARK  2 active torsions:
REMARK  status: ('A' for Active; 'I' for Inactive)
REMARK    1  A    between atoms: C2_2  and  C4_4 
REMARK    2  A    between atoms: C9_11  and  C10_12 
ROOT
HETATM    1  C4  UNL     1      21.090  43.774  31.007  1.00  0.00     0.010 A 
HETATM    2  C5  UNL     1      21.738  42.606  31.467  1.00  0.00     0.049 A 
HETATM    3  C6  UNL     1      22.290  41.678  30.616  1.00  0.00     0.010 A 
HETATM    4  C7  UNL     1      22.208  41.900  29.246  1.00  0.00     0.149 A 
HETATM    5  F1  UNL     1      22.763  40.965  28.415  1.00  0.00    -0.203 F 
HETATM    6  C8  UNL     1      21.582  43.032  28.784  1.00  0.00     0.101 A 
HETATM    7  N1  UNL     1      21.531  43.212  27.356  1.00  0.00    -0.098 NA
HETATM    8  C9  UNL     1      21.010  43.987  29.639  1.00  0.00     0.087 A 
HETATM    9  C11 UNL     1      22.964  40.475  31.102  1.00  0.00     0.051 C 
HETATM   10  C12 UNL     1      23.525  40.517  32.472  1.00  0.00     0.013 C 
HETATM   11  C13 UNL     1      25.049  40.686  32.367  1.00  0.00     0.012 C 
HETATM   12  C14 UNL     1      22.914  41.477  33.422  1.00  0.00     0.026 C 
HETATM   13  C15 UNL     1      22.275  40.730  34.585  1.00  0.00     0.038 C 
HETATM   14  C16 UNL     1      23.990  42.342  34.028  1.00  0.00     0.038 C 
HETATM   15  N2  UNL     1      21.908  42.362  32.842  1.00  0.00    -0.380 N 
ATOM     16  H2  UNL     1      21.279  42.844  33.485  1.00  0.00     0.160 HD
ENDROOT
BRANCH   8  17
HETATM   17  C10 UNL     1      20.289  45.067  29.063  1.00  0.00     0.420 C 
HETATM   18  F2  UNL     1      21.020  46.273  29.311  1.00  0.00    -0.166 F 
HETATM   19  F3  UNL     1      19.849  45.147  27.819  1.00  0.00    -0.166 F 
HETATM   20  F4  UNL     1      19.142  45.330  29.857  1.00  0.00    -0.166 F 
ENDBRANCH   8  17
BRANCH   1  21
HETATM   21  C2  UNL     1      20.476  44.674  31.950  1.00  0.00    -0.074 C 
HETATM   22  C1  UNL     1      21.486  45.632  32.612  1.00  0.00     0.044 C 
HETATM   23  C3  UNL     1      19.306  44.376  32.785  1.00  0.00     0.044 C 
ENDBRANCH   1  21
TORSDOF 2
ENDMDL
MODEL 5
REMARK VINA RESULT: -6.310713194      4.078      6.564
REMARK  2 active torsions:
REMARK  status: ('A' for Active; 'I' for Inactive)
REMARK    1  A    between atoms: C2_2  and  C4_4 
REMARK    2  A    between atoms: C9_11  and  C10_12 
ROOT
HETATM    1  C4  UNL     1      21.295  43.546  29.403  1.00  0.00     0.010 A 
HETATM    2  C5  UNL     1      21.282  43.116  30.748  1.00  0.00     0.049 A 
HETATM    3  C6  UNL     1      22.000  42.028  31.187  1.00  0.00     0.010 A 
HETATM    4  C7  UNL     1      22.769  41.324  30.268  1.00  0.00     0.149 A 
HETATM    5  F1  UNL     1      23.476  40.244  30.724  1.00  0.00    -0.203 F 
HETATM    6  C8  UNL     1      22.793  41.732  28.956  1.00  0.00     0.101 A 
HETATM    7  N1  UNL     1      23.610  40.968  28.050  1.00  0.00    -0.098 NA
HETATM    8  C9  UNL     1      22.063  42.837  28.492  1.00  0.00     0.087 A 
HETATM    9  C11 UNL     1      21.985  41.594  32.583  1.00  0.00     0.051 C 
HETATM   10  C12 UNL     1      21.652  42.611  33.608  1.00  0.00     0.013 C 
HETATM   11  C13 UNL     1      22.952  43.038  34.307  1.00  0.00     0.012 C 
HETATM   12  C14 UNL     1      20.839  43.770  33.168  1.00  0.00     0.026 C 
HETATM   13  C15 UNL     1      19.503  43.780  33.897  1.00  0.00     0.038 C 
HETATM   14  C16 UNL     1      21.532  45.050  33.558  1.00  0.00     0.038 C 
HETATM   15  N2  UNL     1      20.575  43.829  31.733  1.00  0.00    -0.380 N 
ATOM     16  H2  UNL     1      19.817  44.435  31.419  1.00  0.00     0.160 HD
ENDROOT
BRANCH   8  17
HETATM   17  C10 UNL     1      22.065  43.113  27.098  1.00  0.00     0.420 C 
HETATM   18  F2  UNL     1      22.812  44.315  26.882  1.00  0.00    -0.166 F 
HETATM   19  F3  UNL     1      22.409  42.281  26.130  1.00  0.00    -0.166 F 
HETATM   20  F4  UNL     1      20.777  43.575  26.719  1.00  0.00    -0.166 F 
ENDBRANCH   8  17
BRANCH   1  21
HETATM   21  C2  UNL     1      20.470  44.656  28.995  1.00  0.00    -0.074 C 
HETATM   22  C1  UNL     1      21.145  46.023  29.224  1.00  0.00     0.044 C 
HETATM   23  C3  UNL     1      19.004  44.702  29.050  1.00  0.00     0.044 C 
ENDBRANCH   1  21
TORSDOF 2
ENDMDL
