MODEL 1
REMARK VINA RESULT: -8.574141161      0.000      0.000
REMARK  3 active torsions:
REMARK  status: ('A' for Active; 'I' for Inactive)
REMARK    1  A    between atoms: C1_2  and  C2_5 
REMARK    2  A    between atoms: C2_5  and  N1_6 
REMARK    3  A    between atoms: N1_6  and  C3_8 
ROOT
HETATM    1  C2  UNL     1      21.473  43.342  25.440  1.00  0.00     0.204 C 
HETATM    2  C9  UNL     1      22.072  42.129  26.067  1.00  0.00     0.068 C 
HETATM    3  C10 UNL     1      21.938  41.955  27.520  1.00  0.00    -0.001 C 
HETATM    4  C11 UNL     1      23.319  41.852  28.189  1.00  0.00     0.005 C 
HETATM    5  C12 UNL     1      23.062  41.135  29.496  1.00  0.00     0.000 C 
HETATM    6  C13 UNL     1      22.151  41.928  30.392  1.00  0.00     0.001 C 
HETATM    7  C14 UNL     1      21.467  43.071  29.723  1.00  0.00     0.010 C 
HETATM    8  C15 UNL     1      21.103  42.881  28.292  1.00  0.00     0.028 C 
HETATM    9  C16 UNL     1      21.043  44.237  27.648  1.00  0.00     0.063 C 
HETATM   10  N2  UNL     1      20.680  44.134  26.296  1.00  0.00    -0.369 N 
ATOM     11  H2  UNL     1      19.858  44.622  25.940  1.00  0.00     0.161 HD
ENDROOT
BRANCH   1  12
HETATM   12  C1  UNL     1      22.656  44.246  25.010  1.00  0.00     0.431 C 
HETATM   13  F1  UNL     1      23.332  44.725  26.096  1.00  0.00    -0.167 F 
HETATM   14  F2  UNL     1      22.136  45.281  24.229  1.00  0.00    -0.167 F 
HETATM   15  F3  UNL     1      23.537  43.587  24.202  1.00  0.00    -0.167 F 
ENDBRANCH   1  12
BRANCH   1  16
HETATM   16  N1  UNL     1      20.765  43.106  24.199  1.00  0.00    -0.355 N 
ATOM     17  H1  UNL     1      19.950  43.694  24.030  1.00  0.00     0.162 HD
BRANCH  16  18
HETATM   18  C3  UNL     1      21.064  42.162  23.196  1.00  0.00     0.052 A 
HETATM   19  C4  UNL     1      21.089  40.804  23.441  1.00  0.00     0.031 A 
HETATM   20  C5  UNL     1      21.386  39.907  22.414  1.00  0.00     0.002 A 
HETATM   21  C6  UNL     1      21.656  40.366  21.144  1.00  0.00     0.002 A 
HETATM   22  C7  UNL     1      21.624  41.726  20.930  1.00  0.00     0.026 A 
HETATM   23  C8  UNL     1      21.337  42.643  21.912  1.00  0.00     0.060 A 
HETATM   24 CL1  UNL     1      21.316  44.379  21.550  1.00  0.00    -0.082 Cl
ENDBRANCH  16  18
ENDBRANCH   1  16
TORSDOF 3
ENDMDL
MODEL 2
REMARK VINA RESULT: -8.571935173      2.309      3.361
REMARK  3 active torsions:
REMARK  status: ('A' for Active; 'I' for Inactive)
REMARK    1  A    between atoms: C1_2  and  C2_5 
REMARK    2  A    between atoms: C2_5  and  N1_6 
REMARK    3  A    between atoms: N1_6  and  C3_8 
ROOT
HETATM    1  C2  UNL     1      21.769  42.502  25.423  1.00  0.00     0.204 C 
HETATM    2  C9  UNL     1      21.170  43.710  26.061  1.00  0.00     0.068 C 
HETATM    3  C10 UNL     1      21.309  43.874  27.514  1.00  0.00    -0.001 C 
HETATM    4  C11 UNL     1      19.931  43.969  28.189  1.00  0.00     0.005 C 
HETATM    5  C12 UNL     1      20.191  44.677  29.500  1.00  0.00     0.000 C 
HETATM    6  C13 UNL     1      21.107  43.880  30.388  1.00  0.00     0.001 C 
HETATM    7  C14 UNL     1      21.791  42.743  29.708  1.00  0.00     0.010 C 
HETATM    8  C15 UNL     1      22.149  42.944  28.276  1.00  0.00     0.028 C 
HETATM    9  C16 UNL     1      22.210  41.593  27.622  1.00  0.00     0.063 C 
HETATM   10  N2  UNL     1      22.567  41.707  26.271  1.00  0.00    -0.369 N 
ATOM     11  H2  UNL     1      23.389  41.223  25.908  1.00  0.00     0.161 HD
ENDROOT
BRANCH   1  12
HETATM   12  C1  UNL     1      20.587  41.600  24.990  1.00  0.00     0.431 C 
HETATM   13  F1  UNL     1      19.912  41.117  26.076  1.00  0.00    -0.167 F 
HETATM   14  F2  UNL     1      21.108  40.566  24.207  1.00  0.00    -0.167 F 
HETATM   15  F3  UNL     1      19.705  42.260  24.185  1.00  0.00    -0.167 F 
ENDBRANCH   1  12
BRANCH   1  16
HETATM   16  N1  UNL     1      22.472  42.750  24.181  1.00  0.00    -0.355 N 
ATOM     17  H1  UNL     1      23.293  42.169  24.008  1.00  0.00     0.162 HD
BRANCH  16  18
HETATM   18  C3  UNL     1      22.162  43.693  23.181  1.00  0.00     0.052 A 
HETATM   19  C4  UNL     1      22.129  45.050  23.429  1.00  0.00     0.031 A 
HETATM   20  C5  UNL     1      21.820  45.948  22.406  1.00  0.00     0.002 A 
HETATM   21  C6  UNL     1      21.547  45.489  21.136  1.00  0.00     0.002 A 
HETATM   22  C7  UNL     1      21.588  44.130  20.919  1.00  0.00     0.026 A 
HETATM   23  C8  UNL     1      21.886  43.213  21.898  1.00  0.00     0.060 A 
HETATM   24 CL1  UNL     1      21.917  41.478  21.532  1.00  0.00    -0.082 Cl
ENDBRANCH  16  18
ENDBRANCH   1  16
TORSDOF 3
ENDMDL
MODEL 3
REMARK VINA RESULT: -8.206027692      1.187      1.521
REMARK  3 active torsions:
REMARK  status: ('A' for Active; 'I' for Inactive)
REMARK    1  A    between atoms: C1_2  and  C2_5 
REMARK    2  A    between atoms: C2_5  and  N1_6 
REMARK    3  A    between atoms: N1_6  and  C3_8 
ROOT
HETATM    1  C2  UNL     1      21.611  43.375  25.531  1.00  0.00     0.204 C 
HETATM    2  C9  UNL     1      22.237  42.172  26.151  1.00  0.00     0.068 C 
HETATM    3  C10 UNL     1      22.075  41.967  27.597  1.00  0.00    -0.001 C 
HETATM    4  C11 UNL     1      23.442  41.900  28.298  1.00  0.00     0.005 C 
HETATM    5  C12 UNL     1      23.179  41.149  29.585  1.00  0.00     0.000 C 
HETATM    6  C13 UNL     1      22.220  41.893  30.473  1.00  0.00     0.001 C 
HETATM    7  C14 UNL     1      21.511  43.024  29.807  1.00  0.00     0.010 C 
HETATM    8  C15 UNL     1      21.189  42.848  28.364  1.00  0.00     0.028 C 
HETATM    9  C16 UNL     1      21.096  44.212  27.743  1.00  0.00     0.063 C 
HETATM   10  N2  UNL     1      20.770  44.122  26.381  1.00  0.00    -0.369 N 
ATOM     11  H2  UNL     1      19.940  44.588  26.014  1.00  0.00     0.161 HD
ENDROOT
BRANCH   1  12
HETATM   12  C1  UNL     1      22.771  44.327  25.146  1.00  0.00     0.431 C 
HETATM   13  F1  UNL     1      23.334  44.892  26.255  1.00  0.00    -0.167 F 
HETATM   14  F2  UNL     1      22.254  45.296  24.282  1.00  0.00    -0.167 F 
HETATM   15  F3  UNL     1      23.746  43.687  24.437  1.00  0.00    -0.167 F 
ENDBRANCH   1  12
BRANCH   1  16
HETATM   16  N1  UNL     1      20.942  43.137  24.269  1.00  0.00    -0.355 N 
ATOM     17  H1  UNL     1      20.156  43.751  24.056  1.00  0.00     0.162 HD
BRANCH  16  18
HETATM   18  C3  UNL     1      21.243  42.160  23.299  1.00  0.00     0.052 A 
HETATM   19  C4  UNL     1      22.055  42.419  22.214  1.00  0.00     0.031 A 
HETATM   20  C5  UNL     1      22.329  41.419  21.281  1.00  0.00     0.002 A 
HETATM   21  C6  UNL     1      21.791  40.159  21.432  1.00  0.00     0.002 A 
HETATM   22  C7  UNL     1      20.984  39.930  22.523  1.00  0.00     0.026 A 
HETATM   23  C8  UNL     1      20.690  40.887  23.465  1.00  0.00     0.060 A 
HETATM   24 CL1  UNL     1      19.640  40.506  24.842  1.00  0.00    -0.082 Cl
ENDBRANCH  16  18
ENDBRANCH   1  16
TORSDOF 3
ENDMDL
MODEL 4
REMARK VINA RESULT: -8.192301327      2.439      3.446
REMARK  3 active torsions:
REMARK  status: ('A' for Active; 'I' for Inactive)
REMARK    1  A    between atoms: C1_2  and  C2_5 
REMARK    2  A    between atoms: C2_5  and  N1_6 
REMARK    3  A    between atoms: N1_6  and  C3_8 
ROOT
HETATM    1  C2  UNL     1      21.643  42.479  25.568  1.00  0.00     0.204 C 
HETATM    2  C9  UNL     1      21.015  43.678  26.195  1.00  0.00     0.068 C 
HETATM    3  C10 UNL     1      21.177  43.876  27.641  1.00  0.00    -0.001 C 
HETATM    4  C11 UNL     1      19.811  43.937  28.343  1.00  0.00     0.005 C 
HETATM    5  C12 UNL     1      20.072  44.681  29.634  1.00  0.00     0.000 C 
HETATM    6  C13 UNL     1      21.033  43.934  30.518  1.00  0.00     0.001 C 
HETATM    7  C14 UNL     1      21.743  42.807  29.846  1.00  0.00     0.010 C 
HETATM    8  C15 UNL     1      22.065  42.992  28.404  1.00  0.00     0.028 C 
HETATM    9  C16 UNL     1      22.160  41.631  27.776  1.00  0.00     0.063 C 
HETATM   10  N2  UNL     1      22.486  41.729  26.415  1.00  0.00    -0.369 N 
ATOM     11  H2  UNL     1      23.316  41.266  26.045  1.00  0.00     0.161 HD
ENDROOT
BRANCH   1  12
HETATM   12  C1  UNL     1      20.485  41.527  25.179  1.00  0.00     0.431 C 
HETATM   13  F1  UNL     1      19.949  40.924  26.281  1.00  0.00    -0.167 F 
HETATM   14  F2  UNL     1      20.993  40.589  24.276  1.00  0.00    -0.167 F 
HETATM   15  F3  UNL     1      19.490  42.178  24.508  1.00  0.00    -0.167 F 
ENDBRANCH   1  12
BRANCH   1  16
HETATM   16  N1  UNL     1      22.312  42.725  24.307  1.00  0.00    -0.355 N 
ATOM     17  H1  UNL     1      23.109  42.124  24.099  1.00  0.00     0.162 HD
BRANCH  16  18
HETATM   18  C3  UNL     1      21.997  43.693  23.333  1.00  0.00     0.052 A 
HETATM   19  C4  UNL     1      21.142  43.434  22.281  1.00  0.00     0.031 A 
HETATM   20  C5  UNL     1      20.856  44.426  21.343  1.00  0.00     0.002 A 
HETATM   21  C6  UNL     1      21.424  45.677  21.456  1.00  0.00     0.002 A 
HETATM   22  C7  UNL     1      22.273  45.905  22.515  1.00  0.00     0.026 A 
HETATM   23  C8  UNL     1      22.581  44.957  23.460  1.00  0.00     0.060 A 
HETATM   24 CL1  UNL     1      23.685  45.336  24.795  1.00  0.00    -0.082 Cl
ENDBRANCH  16  18
ENDBRANCH   1  16
TORSDOF 3
ENDMDL
MODEL 5
REMARK VINA RESULT: -7.783493625      3.128      6.302
REMARK  3 active torsions:
REMARK  status: ('A' for Active; 'I' for Inactive)
REMARK    1  A    between atoms: C1_2  and  C2_5 
REMARK    2  A    between atoms: C2_5  and  N1_6 
REMARK    3  A    between atoms: N1_6  and  C3_8 
ROOT
HETATM    1  C2  UNL     1      21.336  43.314  27.818  1.00  0.00     0.204 C 
HETATM    2  C9  UNL     1      20.771  42.427  26.761  1.00  0.00     0.068 C 
HETATM    3  C10 UNL     1      21.414  42.416  25.440  1.00  0.00    -0.001 C 
HETATM    4  C11 UNL     1      20.416  42.817  24.341  1.00  0.00     0.005 C 
HETATM    5  C12 UNL     1      20.990  42.236  23.068  1.00  0.00     0.000 C 
HETATM    6  C13 UNL     1      22.330  42.836  22.742  1.00  0.00     0.001 C 
HETATM    7  C14 UNL     1      22.940  43.625  23.849  1.00  0.00     0.010 C 
HETATM    8  C15 UNL     1      22.668  43.147  25.233  1.00  0.00     0.028 C 
HETATM    9  C16 UNL     1      22.778  44.326  26.158  1.00  0.00     0.063 C 
HETATM   10  N2  UNL     1      22.556  43.942  27.488  1.00  0.00    -0.369 N 
ATOM     11  H2  UNL     1      23.262  44.113  28.204  1.00  0.00     0.161 HD
ENDROOT
BRANCH   1  12
HETATM   12  C1  UNL     1      20.316  44.462  28.024  1.00  0.00     0.431 C 
HETATM   13  F1  UNL     1      19.823  44.904  26.828  1.00  0.00    -0.167 F 
HETATM   14  F2  UNL     1      20.963  45.483  28.723  1.00  0.00    -0.167 F 
HETATM   15  F3  UNL     1      19.270  44.082  28.815  1.00  0.00    -0.167 F 
ENDBRANCH   1  12
BRANCH   1  16
HETATM   16  N1  UNL     1      21.435  42.716  29.133  1.00  0.00    -0.355 N 
ATOM     17  H1  UNL     1      20.641  42.867  29.754  1.00  0.00     0.162 HD
BRANCH  16  18
HETATM   18  C3  UNL     1      22.494  41.950  29.660  1.00  0.00     0.052 A 
HETATM   19  C4  UNL     1      23.432  41.332  28.858  1.00  0.00     0.031 A 
HETATM   20  C5  UNL     1      24.466  40.587  29.426  1.00  0.00     0.002 A 
HETATM   21  C6  UNL     1      24.564  40.461  30.794  1.00  0.00     0.002 A 
HETATM   22  C7  UNL     1      23.615  41.088  31.568  1.00  0.00     0.026 A 
HETATM   23  C8  UNL     1      22.581  41.830  31.050  1.00  0.00     0.060 A 
HETATM   24 CL1  UNL     1      21.400  42.606  32.121  1.00  0.00    -0.082 Cl
ENDBRANCH  16  18
ENDBRANCH   1  16
TORSDOF 3
ENDMDL
