MODEL 1
REMARK VINA RESULT: -6.566560846      0.000      0.000
REMARK  3 active torsions:
REMARK  status: ('A' for Active; 'I' for Inactive)
REMARK    1  A    between atoms: C4_6  and  C5_7 
REMARK    2  A    between atoms: C11_13  and  O1_14 
REMARK    3  A    between atoms: C11_13  and  C12_16 
ROOT
HETATM    1  C5  UNL     1      22.650  41.894  25.456  1.00  0.00     0.020 C 
HETATM    2  C6  UNL     1      22.300  41.741  26.666  1.00  0.00    -0.036 C 
HETATM    3  C7  UNL     1      23.277  40.819  27.443  1.00  0.00     0.037 C 
HETATM    4  C8  UNL     1      23.937  41.714  28.458  1.00  0.00     0.004 C 
HETATM    5  C9  UNL     1      22.899  42.203  29.459  1.00  0.00     0.004 C 
HETATM    6  C10 UNL     1      21.531  41.851  28.998  1.00  0.00     0.052 C 
HETATM    7  C11 UNL     1      21.249  42.221  27.537  1.00  0.00     0.179 C 
ENDROOT
BRANCH   1   8
HETATM    8  C4  UNL     1      22.105  42.635  24.294  1.00  0.00    -0.000 A 
HETATM    9  C3  UNL     1      21.242  42.056  23.397  1.00  0.00     0.085 A 
HETATM   10  S1  UNL     1      20.925  43.308  22.273  1.00  0.00    -0.082 SA
HETATM   11 CL1  UNL     1      20.622  40.388  23.358  1.00  0.00    -0.075 Cl
HETATM   12  C2  UNL     1      21.887  44.527  22.959  1.00  0.00    -0.013 A 
HETATM   13  C1  UNL     1      22.096  45.947  22.476  1.00  0.00     0.057 C 
HETATM   14  C13 UNL     1      22.434  43.926  24.052  1.00  0.00    -0.037 A 
HETATM   15  C14 UNL     1      23.380  44.714  24.952  1.00  0.00     0.050 C 
ENDBRANCH   1   8
BRANCH   7  16
HETATM   16  O1  UNL     1      20.047  41.507  27.273  1.00  0.00    -0.376 OA
ATOM     17  H1  UNL     1      19.312  41.967  27.661  1.00  0.00     0.211 HD
ENDBRANCH   7  16
BRANCH   7  18
HETATM   18  C12 UNL     1      20.893  43.663  27.552  1.00  0.00     0.422 C 
HETATM   19  F1  UNL     1      19.907  43.772  28.579  1.00  0.00    -0.167 F 
HETATM   20  F2  UNL     1      20.257  44.178  26.474  1.00  0.00    -0.167 F 
HETATM   21  F3  UNL     1      21.904  44.517  27.929  1.00  0.00    -0.167 F 
ENDBRANCH   7  18
TORSDOF 3
ENDMDL
MODEL 2
REMARK VINA RESULT: -6.504922628      2.402      3.661
REMARK  3 active torsions:
REMARK  status: ('A' for Active; 'I' for Inactive)
REMARK    1  A    between atoms: C4_6  and  C5_7 
REMARK    2  A    between atoms: C11_13  and  O1_14 
REMARK    3  A    between atoms: C11_13  and  C12_16 
ROOT
HETATM    1  C5  UNL     1      20.853  43.865  25.569  1.00  0.00     0.020 C 
HETATM    2  C6  UNL     1      21.059  44.006  26.813  1.00  0.00    -0.036 C 
HETATM    3  C7  UNL     1      20.075  45.021  27.453  1.00  0.00     0.037 C 
HETATM    4  C8  UNL     1      19.216  44.202  28.380  1.00  0.00     0.004 C 
HETATM    5  C9  UNL     1      20.071  43.641  29.507  1.00  0.00     0.004 C 
HETATM    6  C10 UNL     1      21.513  43.867  29.224  1.00  0.00     0.052 C 
HETATM    7  C11 UNL     1      21.944  43.451  27.813  1.00  0.00     0.179 C 
ENDROOT
BRANCH   1   8
HETATM    8  C4  UNL     1      21.475  43.062  24.489  1.00  0.00    -0.000 A 
HETATM    9  C3  UNL     1      22.621  43.462  23.847  1.00  0.00     0.085 A 
HETATM   10  S1  UNL     1      22.908  42.212  22.713  1.00  0.00    -0.082 SA
HETATM   11 CL1  UNL     1      23.575  44.946  24.082  1.00  0.00    -0.075 Cl
HETATM   12  C2  UNL     1      21.579  41.219  23.074  1.00  0.00    -0.013 A 
HETATM   13  C1  UNL     1      21.187  39.901  22.439  1.00  0.00     0.057 C 
HETATM   14  C13 UNL     1      20.942  41.888  24.074  1.00  0.00    -0.037 A 
HETATM   15  C14 UNL     1      19.672  41.304  24.683  1.00  0.00     0.050 C 
ENDBRANCH   1   8
BRANCH   7  16
HETATM   16  O1  UNL     1      23.228  44.055  27.702  1.00  0.00    -0.376 OA
ATOM     17  H1  UNL     1      23.496  44.392  28.549  1.00  0.00     0.211 HD
ENDBRANCH   7  16
BRANCH   7  18
HETATM   18  C12 UNL     1      22.168  41.984  27.880  1.00  0.00     0.422 C 
HETATM   19  F1  UNL     1      22.797  41.781  29.145  1.00  0.00    -0.167 F 
HETATM   20  F2  UNL     1      23.052  41.430  27.017  1.00  0.00    -0.167 F 
HETATM   21  F3  UNL     1      21.029  41.214  27.915  1.00  0.00    -0.167 F 
ENDBRANCH   7  18
TORSDOF 3
ENDMDL
MODEL 3
REMARK VINA RESULT: -6.353493518      2.910      5.098
REMARK  3 active torsions:
REMARK  status: ('A' for Active; 'I' for Inactive)
REMARK    1  A    between atoms: C4_6  and  C5_7 
REMARK    2  A    between atoms: C11_13  and  O1_14 
REMARK    3  A    between atoms: C11_13  and  C12_16 
ROOT
HETATM    1  C5  UNL     1      20.470  41.970  26.739  1.00  0.00     0.020 C 
HETATM    2  C6  UNL     1      20.975  41.986  25.575  1.00  0.00    -0.036 C 
HETATM    3  C7  UNL     1      20.090  41.235  24.546  1.00  0.00     0.037 C 
HETATM    4  C8  UNL     1      19.591  42.300  23.606  1.00  0.00     0.004 C 
HETATM    5  C9  UNL     1      20.763  42.890  22.835  1.00  0.00     0.004 C 
HETATM    6  C10 UNL     1      22.050  42.415  23.407  1.00  0.00     0.052 C 
HETATM    7  C11 UNL     1      22.143  42.548  24.931  1.00  0.00     0.179 C 
ENDROOT
BRANCH   1   8
HETATM    8  C4  UNL     1      20.872  42.503  28.062  1.00  0.00    -0.000 A 
HETATM    9  C3  UNL     1      21.723  41.822  28.898  1.00  0.00     0.085 A 
HETATM   10  S1  UNL     1      21.856  42.846  30.264  1.00  0.00    -0.082 SA
HETATM   11 CL1  UNL     1      22.483  40.230  28.665  1.00  0.00    -0.075 Cl
HETATM   12  C2  UNL     1      20.837  44.103  29.751  1.00  0.00    -0.013 A 
HETATM   13  C1  UNL     1      20.473  45.379  30.480  1.00  0.00     0.057 C 
HETATM   14  C13 UNL     1      20.416  43.693  28.522  1.00  0.00    -0.037 A 
HETATM   15  C14 UNL     1      19.465  44.572  27.718  1.00  0.00     0.050 C 
ENDBRANCH   1   8
BRANCH   7  16
HETATM   16  O1  UNL     1      23.283  41.752  25.233  1.00  0.00    -0.376 OA
ATOM     17  H1  UNL     1      23.364  41.056  24.591  1.00  0.00     0.211 HD
ENDBRANCH   7  16
BRANCH   7  18
HETATM   18  C12 UNL     1      22.529  43.959  25.186  1.00  0.00     0.422 C 
HETATM   19  F1  UNL     1      21.308  44.687  25.059  1.00  0.00    -0.167 F 
HETATM   20  F2  UNL     1      23.337  44.575  24.292  1.00  0.00    -0.167 F 
HETATM   21  F3  UNL     1      22.980  44.227  26.458  1.00  0.00    -0.167 F 
ENDBRANCH   7  18
TORSDOF 3
ENDMDL
MODEL 4
REMARK VINA RESULT: -6.345870067      3.110      5.376
REMARK  3 active torsions:
REMARK  status: ('A' for Active; 'I' for Inactive)
REMARK    1  A    between atoms: C4_6  and  C5_7 
REMARK    2  A    between atoms: C11_13  and  O1_14 
REMARK    3  A    between atoms: C11_13  and  C12_16 
ROOT
HETATM    1  C5  UNL     1      22.775  43.893  26.765  1.00  0.00     0.020 C 
HETATM    2  C6  UNL     1      22.276  43.881  25.598  1.00  0.00    -0.036 C 
HETATM    3  C7  UNL     1      23.164  44.641  24.578  1.00  0.00     0.037 C 
HETATM    4  C8  UNL     1      23.670  43.582  23.634  1.00  0.00     0.004 C 
HETATM    5  C9  UNL     1      22.503  42.994  22.854  1.00  0.00     0.004 C 
HETATM    6  C10 UNL     1      21.212  43.462  23.423  1.00  0.00     0.052 C 
HETATM    7  C11 UNL     1      21.113  43.320  24.946  1.00  0.00     0.179 C 
ENDROOT
BRANCH   1   8
HETATM    8  C4  UNL     1      22.369  43.350  28.083  1.00  0.00    -0.000 A 
HETATM    9  C3  UNL     1      21.513  44.025  28.919  1.00  0.00     0.085 A 
HETATM   10  S1  UNL     1      21.376  42.993  30.278  1.00  0.00    -0.082 SA
HETATM   11 CL1  UNL     1      20.751  45.617  28.692  1.00  0.00    -0.075 Cl
HETATM   12  C2  UNL     1      22.400  41.741  29.762  1.00  0.00    -0.013 A 
HETATM   13  C1  UNL     1      22.763  40.461  30.486  1.00  0.00     0.057 C 
HETATM   14  C13 UNL     1      22.825  42.159  28.537  1.00  0.00    -0.037 A 
HETATM   15  C14 UNL     1      23.781  41.286  27.733  1.00  0.00     0.050 C 
ENDBRANCH   1   8
BRANCH   7  16
HETATM   16  O1  UNL     1      19.969  44.112  25.247  1.00  0.00    -0.376 OA
ATOM     17  H1  UNL     1      19.585  43.817  26.065  1.00  0.00     0.211 HD
ENDBRANCH   7  16
BRANCH   7  18
HETATM   18  C12 UNL     1      20.729  41.907  25.191  1.00  0.00     0.422 C 
HETATM   19  F1  UNL     1      21.952  41.182  25.066  1.00  0.00    -0.167 F 
HETATM   20  F2  UNL     1      19.927  41.293  24.289  1.00  0.00    -0.167 F 
HETATM   21  F3  UNL     1      20.272  41.631  26.460  1.00  0.00    -0.167 F 
ENDBRANCH   7  18
TORSDOF 3
ENDMDL
MODEL 5
REMARK VINA RESULT: -6.247730677      2.911      5.352
REMARK  3 active torsions:
REMARK  status: ('A' for Active; 'I' for Inactive)
REMARK    1  A    between atoms: C4_6  and  C5_7 
REMARK    2  A    between atoms: C11_13  and  O1_14 
REMARK    3  A    between atoms: C11_13  and  C12_16 
ROOT
HETATM    1  C5  UNL     1      20.491  41.925  26.688  1.00  0.00     0.020 C 
HETATM    2  C6  UNL     1      20.989  41.978  25.522  1.00  0.00    -0.036 C 
HETATM    3  C7  UNL     1      20.113  41.234  24.480  1.00  0.00     0.037 C 
HETATM    4  C8  UNL     1      19.590  42.311  23.567  1.00  0.00     0.004 C 
HETATM    5  C9  UNL     1      20.747  42.941  22.805  1.00  0.00     0.004 C 
HETATM    6  C10 UNL     1      22.045  42.477  23.360  1.00  0.00     0.052 C 
HETATM    7  C11 UNL     1      22.143  42.576  24.886  1.00  0.00     0.179 C 
ENDROOT
BRANCH   1   8
HETATM    8  C4  UNL     1      20.889  42.436  28.021  1.00  0.00    -0.000 A 
HETATM    9  C3  UNL     1      20.476  43.658  28.489  1.00  0.00     0.085 A 
HETATM   10  S1  UNL     1      21.201  43.767  30.037  1.00  0.00    -0.082 SA
HETATM   11 CL1  UNL     1      19.467  44.882  27.683  1.00  0.00    -0.075 Cl
HETATM   12  C2  UNL     1      22.007  42.273  30.055  1.00  0.00    -0.013 A 
HETATM   13  C1  UNL     1      22.876  41.683  31.146  1.00  0.00     0.057 C 
HETATM   14  C13 UNL     1      21.689  41.723  28.849  1.00  0.00    -0.037 A 
HETATM   15  C14 UNL     1      22.235  40.348  28.480  1.00  0.00     0.050 C 
ENDBRANCH   1   8
BRANCH   7  16
HETATM   16  O1  UNL     1      23.299  41.795  25.164  1.00  0.00    -0.376 OA
ATOM     17  H1  UNL     1      24.006  42.054  24.584  1.00  0.00     0.211 HD
ENDBRANCH   7  16
BRANCH   7  18
HETATM   18  C12 UNL     1      22.504  43.988  25.172  1.00  0.00     0.422 C 
HETATM   19  F1  UNL     1      21.262  44.689  25.113  1.00  0.00    -0.167 F 
HETATM   20  F2  UNL     1      23.263  44.653  24.269  1.00  0.00    -0.167 F 
HETATM   21  F3  UNL     1      22.995  44.228  26.435  1.00  0.00    -0.167 F 
ENDBRANCH   7  18
TORSDOF 3
ENDMDL
