MODEL 1
REMARK VINA RESULT: -6.739021582      0.000      0.000
REMARK  7 active torsions:
REMARK  status: ('A' for Active; 'I' for Inactive)
REMARK    1  A    between atoms: N2_4  and  O1_5 
REMARK    2  A    between atoms: N2_4  and  N3_7 
REMARK       I    between atoms: N3_7  and  C1_9 
REMARK       I    between atoms: C1_9  and  N8_23 
REMARK    3  A    between atoms: N4_10  and  C2_12 
REMARK    4  A    between atoms: C2_12  and  C3_13 
REMARK    5  A    between atoms: C3_13  and  C4_14 
REMARK    6  A    between atoms: C4_14  and  N5_15 
REMARK       I    between atoms: N5_15  and  C5_17 
REMARK    7  A    between atoms: N7_19  and  O2_21 
ROOT
HETATM    1  N3  UNL     1      15.503  48.974 -49.110  1.00  0.00    -0.091 N 
ATOM      2  H3  UNL     1      16.410  49.286 -48.762  1.00  0.00     0.210 HD
HETATM    3  C1  UNL     1      14.967  49.635 -50.237  1.00  0.00     0.695 C 
HETATM    4  N4  UNL     1      14.623  50.880 -50.159  1.00  0.00    -0.225 N 
ATOM      5  H4  UNL     1      14.242  51.311 -51.001  1.00  0.00     0.177 HD
HETATM    6  N8  UNL     1      14.789  48.963 -51.485  1.00  0.00    -0.190 N 
HETATM    7  C6  UNL     1      14.560  47.627 -52.002  1.00  0.00     0.284 C 
HETATM    8  S1  UNL     1      13.391  48.345 -53.136  1.00  0.00     0.178 S 
HETATM    9  O3  UNL     1      12.127  48.747 -52.458  1.00  0.00    -0.225 OA
HETATM   10  O4  UNL     1      13.279  47.695 -54.454  1.00  0.00    -0.225 OA
HETATM   11  C7  UNL     1      14.766  49.421 -52.884  1.00  0.00     0.284 C 
ENDROOT
BRANCH   1  12
HETATM   12  N2  UNL     1      14.882  47.930 -48.446  1.00  0.00    -0.087 N 
HETATM   13  N1  UNL     1      15.554  47.172 -47.703  1.00  0.00    -0.303 N 
ATOM     14  H12 UNL     1      15.096  46.403 -47.214  1.00  0.00     0.181 HD
ATOM     15  H11 UNL     1      16.555  47.333 -47.598  1.00  0.00     0.181 HD
BRANCH  12  16
HETATM   16  O1  UNL     1      13.544  47.714 -48.586  1.00  0.00    -0.253 OA
ATOM     17  H1  UNL     1      13.074  47.246 -47.905  1.00  0.00     0.248 HD
ENDBRANCH  12  16
ENDBRANCH   1  12
BRANCH   4  18
HETATM   18  C2  UNL     1      14.730  51.705 -48.998  1.00  0.00     0.139 C 
BRANCH  18  19
HETATM   19  C3  UNL     1      13.360  52.075 -48.428  1.00  0.00     0.040 C 
BRANCH  19  20
HETATM   20  C4  UNL     1      12.910  50.959 -47.520  1.00  0.00     0.124 C 
BRANCH  20  21
HETATM   21  N5  UNL     1      11.869  50.156 -48.097  1.00  0.00    -0.363 N 
HETATM   22  C5  UNL     1      10.623  49.912 -47.455  1.00  0.00     0.208 C 
HETATM   23  N6  UNL     1      10.257  48.665 -46.901  1.00  0.00    -0.062 NA
HETATM   24  N7  UNL     1       9.792  50.894 -47.381  1.00  0.00    -0.241 N 
ATOM     25  H7  UNL     1      10.066  51.790 -47.784  1.00  0.00     0.197 HD
ATOM     26  H5  UNL     1      12.031  49.738 -49.014  1.00  0.00     0.162 HD
BRANCH  24  27
HETATM   27  O2  UNL     1       8.561  50.798 -46.792  1.00  0.00    -0.287 OA
ATOM     28  H2  UNL     1       8.396  51.020 -45.883  1.00  0.00     0.244 HD
ENDBRANCH  24  27
ENDBRANCH  20  21
ENDBRANCH  19  20
ENDBRANCH  18  19
ENDBRANCH   4  18
TORSDOF 7
ENDMDL
MODEL 2
REMARK VINA RESULT: -6.621126439      1.316      1.457
REMARK  7 active torsions:
REMARK  status: ('A' for Active; 'I' for Inactive)
REMARK    1  A    between atoms: N2_4  and  O1_5 
REMARK    2  A    between atoms: N2_4  and  N3_7 
REMARK       I    between atoms: N3_7  and  C1_9 
REMARK       I    between atoms: C1_9  and  N8_23 
REMARK    3  A    between atoms: N4_10  and  C2_12 
REMARK    4  A    between atoms: C2_12  and  C3_13 
REMARK    5  A    between atoms: C3_13  and  C4_14 
REMARK    6  A    between atoms: C4_14  and  N5_15 
REMARK       I    between atoms: N5_15  and  C5_17 
REMARK    7  A    between atoms: N7_19  and  O2_21 
ROOT
HETATM    1  N3  UNL     1      14.870  49.663 -49.202  1.00  0.00    -0.091 N 
ATOM      2  H3  UNL     1      15.518  50.285 -48.718  1.00  0.00     0.210 HD
HETATM    3  C1  UNL     1      14.360  50.086 -50.449  1.00  0.00     0.695 C 
HETATM    4  N4  UNL     1      13.581  51.118 -50.518  1.00  0.00    -0.225 N 
ATOM      5  H4  UNL     1      13.241  51.382 -51.442  1.00  0.00     0.177 HD
HETATM    6  N8  UNL     1      14.681  49.401 -51.661  1.00  0.00    -0.190 N 
HETATM    7  C6  UNL     1      15.054  48.077 -52.121  1.00  0.00     0.284 C 
HETATM    8  S1  UNL     1      13.947  48.321 -53.493  1.00  0.00     0.178 S 
HETATM    9  O3  UNL     1      12.518  48.227 -53.083  1.00  0.00    -0.225 OA
HETATM   10  O4  UNL     1      14.334  47.681 -54.763  1.00  0.00    -0.225 OA
HETATM   11  C7  UNL     1      14.764  49.825 -53.069  1.00  0.00     0.284 C 
ENDROOT
BRANCH   1  12
HETATM   12  N2  UNL     1      14.552  48.461 -48.593  1.00  0.00    -0.087 N 
HETATM   13  N1  UNL     1      15.325  47.972 -47.731  1.00  0.00    -0.303 N 
ATOM     14  H12 UNL     1      15.090  47.087 -47.283  1.00  0.00     0.181 HD
ATOM     15  H11 UNL     1      16.182  48.468 -47.489  1.00  0.00     0.181 HD
BRANCH  12  16
HETATM   16  O1  UNL     1      13.407  47.798 -48.917  1.00  0.00    -0.253 OA
ATOM     17  H1  UNL     1      12.567  48.196 -48.718  1.00  0.00     0.248 HD
ENDBRANCH  12  16
ENDBRANCH   1  12
BRANCH   4  18
HETATM   18  C2  UNL     1      13.157  51.919 -49.414  1.00  0.00     0.139 C 
BRANCH  18  19
HETATM   19  C3  UNL     1      11.660  52.226 -49.470  1.00  0.00     0.040 C 
BRANCH  19  20
HETATM   20  C4  UNL     1      11.001  51.580 -48.278  1.00  0.00     0.124 C 
BRANCH  20  21
HETATM   21  N5  UNL     1      11.455  50.237 -48.049  1.00  0.00    -0.363 N 
HETATM   22  C5  UNL     1      11.525  49.646 -46.756  1.00  0.00     0.208 C 
HETATM   23  N6  UNL     1      12.736  49.380 -46.081  1.00  0.00    -0.062 NA
HETATM   24  N7  UNL     1      10.412  49.343 -46.182  1.00  0.00    -0.241 N 
ATOM     25  H7  UNL     1       9.543  49.540 -46.678  1.00  0.00     0.197 HD
ATOM     26  H5  UNL     1      11.742  49.679 -48.853  1.00  0.00     0.162 HD
BRANCH  24  27
HETATM   27  O2  UNL     1      10.334  48.771 -44.942  1.00  0.00    -0.287 OA
ATOM     28  H2  UNL     1      10.119  47.857 -44.799  1.00  0.00     0.244 HD
ENDBRANCH  24  27
ENDBRANCH  20  21
ENDBRANCH  19  20
ENDBRANCH  18  19
ENDBRANCH   4  18
TORSDOF 7
ENDMDL
MODEL 3
REMARK VINA RESULT: -6.612341241      2.510      5.457
REMARK  7 active torsions:
REMARK  status: ('A' for Active; 'I' for Inactive)
REMARK    1  A    between atoms: N2_4  and  O1_5 
REMARK    2  A    between atoms: N2_4  and  N3_7 
REMARK       I    between atoms: N3_7  and  C1_9 
REMARK       I    between atoms: C1_9  and  N8_23 
REMARK    3  A    between atoms: N4_10  and  C2_12 
REMARK    4  A    between atoms: C2_12  and  C3_13 
REMARK    5  A    between atoms: C3_13  and  C4_14 
REMARK    6  A    between atoms: C4_14  and  N5_15 
REMARK       I    between atoms: N5_15  and  C5_17 
REMARK    7  A    between atoms: N7_19  and  O2_21 
ROOT
HETATM    1  N3  UNL     1      10.702  51.535 -47.691  1.00  0.00    -0.091 N 
ATOM      2  H3  UNL     1      10.507  52.498 -47.417  1.00  0.00     0.210 HD
HETATM    3  C1  UNL     1      11.959  51.257 -48.270  1.00  0.00     0.695 C 
HETATM    4  N4  UNL     1      12.270  51.756 -49.423  1.00  0.00    -0.225 N 
ATOM      5  H4  UNL     1      13.190  51.525 -49.797  1.00  0.00     0.177 HD
HETATM    6  N8  UNL     1      12.920  50.427 -47.613  1.00  0.00    -0.190 N 
HETATM    7  C6  UNL     1      12.974  49.332 -46.664  1.00  0.00     0.284 C 
HETATM    8  S1  UNL     1      14.231  48.601 -47.689  1.00  0.00     0.178 S 
HETATM    9  O3  UNL     1      13.669  48.030 -48.945  1.00  0.00    -0.225 OA
HETATM   10  O4  UNL     1      15.267  47.819 -46.990  1.00  0.00    -0.225 OA
HETATM   11  C7  UNL     1      14.389  50.357 -47.655  1.00  0.00     0.284 C 
ENDROOT
BRANCH   1  12
HETATM   12  N2  UNL     1       9.716  50.589 -47.469  1.00  0.00    -0.087 N 
HETATM   13  N1  UNL     1       8.624  50.932 -46.949  1.00  0.00    -0.303 N 
ATOM     14  H12 UNL     1       7.898  50.235 -46.786  1.00  0.00     0.181 HD
ATOM     15  H11 UNL     1       8.477  51.908 -46.694  1.00  0.00     0.181 HD
BRANCH  12  16
HETATM   16  O1  UNL     1       9.913  49.284 -47.809  1.00  0.00    -0.253 OA
ATOM     17  H1  UNL     1      10.630  48.803 -47.413  1.00  0.00     0.248 HD
ENDBRANCH  12  16
ENDBRANCH   1  12
BRANCH   4  18
HETATM   18  C2  UNL     1      11.438  52.602 -50.219  1.00  0.00     0.139 C 
BRANCH  18  19
HETATM   19  C3  UNL     1      12.151  53.084 -51.482  1.00  0.00     0.040 C 
BRANCH  19  20
HETATM   20  C4  UNL     1      13.521  52.457 -51.520  1.00  0.00     0.124 C 
BRANCH  20  21
HETATM   21  N5  UNL     1      13.659  51.482 -52.565  1.00  0.00    -0.363 N 
HETATM   22  C5  UNL     1      13.867  50.095 -52.317  1.00  0.00     0.208 C 
HETATM   23  N6  UNL     1      15.091  49.432 -52.553  1.00  0.00    -0.062 NA
HETATM   24  N7  UNL     1      12.873  49.421 -51.851  1.00  0.00    -0.241 N 
ATOM     25  H7  UNL     1      11.993  49.910 -51.685  1.00  0.00     0.197 HD
ATOM     26  H5  UNL     1      13.606  51.798 -53.534  1.00  0.00     0.162 HD
BRANCH  24  27
HETATM   27  O2  UNL     1      12.934  48.084 -51.569  1.00  0.00    -0.287 OA
ATOM     28  H2  UNL     1      12.961  47.736 -50.685  1.00  0.00     0.244 HD
ENDBRANCH  24  27
ENDBRANCH  20  21
ENDBRANCH  19  20
ENDBRANCH  18  19
ENDBRANCH   4  18
TORSDOF 7
ENDMDL
MODEL 4
REMARK VINA RESULT: -6.495674993      2.495      3.421
REMARK  7 active torsions:
REMARK  status: ('A' for Active; 'I' for Inactive)
REMARK    1  A    between atoms: N2_4  and  O1_5 
REMARK    2  A    between atoms: N2_4  and  N3_7 
REMARK       I    between atoms: N3_7  and  C1_9 
REMARK       I    between atoms: C1_9  and  N8_23 
REMARK    3  A    between atoms: N4_10  and  C2_12 
REMARK    4  A    between atoms: C2_12  and  C3_13 
REMARK    5  A    between atoms: C3_13  and  C4_14 
REMARK    6  A    between atoms: C4_14  and  N5_15 
REMARK       I    between atoms: N5_15  and  C5_17 
REMARK    7  A    between atoms: N7_19  and  O2_21 
ROOT
HETATM    1  N3  UNL     1      14.298  48.808 -51.252  1.00  0.00    -0.091 N 
ATOM      2  H3  UNL     1      15.235  48.406 -51.226  1.00  0.00     0.210 HD
HETATM    3  C1  UNL     1      14.072  50.000 -50.530  1.00  0.00     0.695 C 
HETATM    4  N4  UNL     1      14.149  50.003 -49.238  1.00  0.00    -0.225 N 
ATOM      5  H4  UNL     1      13.978  50.890 -48.764  1.00  0.00     0.177 HD
HETATM    6  N8  UNL     1      13.757  51.227 -51.190  1.00  0.00    -0.190 N 
HETATM    7  C6  UNL     1      13.135  51.701 -52.411  1.00  0.00     0.284 C 
HETATM    8  S1  UNL     1      12.331  52.950 -51.432  1.00  0.00     0.178 S 
HETATM    9  O3  UNL     1      11.230  52.388 -50.601  1.00  0.00    -0.225 OA
HETATM   10  O4  UNL     1      12.089  54.243 -52.098  1.00  0.00    -0.225 OA
HETATM   11  C7  UNL     1      13.964  52.643 -50.843  1.00  0.00     0.284 C 
ENDROOT
BRANCH   1  12
HETATM   12  N2  UNL     1      13.334  48.147 -51.994  1.00  0.00    -0.087 N 
HETATM   13  N1  UNL     1      13.653  47.154 -52.694  1.00  0.00    -0.303 N 
ATOM     14  H12 UNL     1      12.942  46.667 -53.240  1.00  0.00     0.181 HD
ATOM     15  H11 UNL     1      14.624  46.844 -52.709  1.00  0.00     0.181 HD
BRANCH  12  16
HETATM   16  O1  UNL     1      12.035  48.561 -51.974  1.00  0.00    -0.253 OA
ATOM     17  H1  UNL     1      11.454  48.303 -52.680  1.00  0.00     0.248 HD
ENDBRANCH  12  16
ENDBRANCH   1  12
BRANCH   4  18
HETATM   18  C2  UNL     1      14.452  48.875 -48.416  1.00  0.00     0.139 C 
BRANCH  18  19
HETATM   19  C3  UNL     1      14.650  49.267 -46.952  1.00  0.00     0.040 C 
BRANCH  19  20
HETATM   20  C4  UNL     1      13.292  49.423 -46.317  1.00  0.00     0.124 C 
BRANCH  20  21
HETATM   21  N5  UNL     1      12.215  49.189 -47.238  1.00  0.00    -0.363 N 
HETATM   22  C5  UNL     1      11.037  49.986 -47.279  1.00  0.00     0.208 C 
HETATM   23  N6  UNL     1       9.772  49.537 -46.840  1.00  0.00    -0.062 NA
HETATM   24  N7  UNL     1      11.145  51.181 -47.746  1.00  0.00    -0.241 N 
ATOM     25  H7  UNL     1      12.063  51.496 -48.061  1.00  0.00     0.197 HD
ATOM     26  H5  UNL     1      12.299  48.413 -47.894  1.00  0.00     0.162 HD
BRANCH  24  27
HETATM   27  O2  UNL     1      10.095  52.052 -47.844  1.00  0.00    -0.287 OA
ATOM     28  H2  UNL     1      10.069  52.894 -47.405  1.00  0.00     0.244 HD
ENDBRANCH  24  27
ENDBRANCH  20  21
ENDBRANCH  19  20
ENDBRANCH  18  19
ENDBRANCH   4  18
TORSDOF 7
ENDMDL
MODEL 5
REMARK VINA RESULT: -6.467869746      1.171      1.371
REMARK  7 active torsions:
REMARK  status: ('A' for Active; 'I' for Inactive)
REMARK    1  A    between atoms: N2_4  and  O1_5 
REMARK    2  A    between atoms: N2_4  and  N3_7 
REMARK       I    between atoms: N3_7  and  C1_9 
REMARK       I    between atoms: C1_9  and  N8_23 
REMARK    3  A    between atoms: N4_10  and  C2_12 
REMARK    4  A    between atoms: C2_12  and  C3_13 
REMARK    5  A    between atoms: C3_13  and  C4_14 
REMARK    6  A    between atoms: C4_14  and  N5_15 
REMARK       I    between atoms: N5_15  and  C5_17 
REMARK    7  A    between atoms: N7_19  and  O2_21 
ROOT
HETATM    1  N3  UNL     1      14.853  49.811 -48.954  1.00  0.00    -0.091 N 
ATOM      2  H3  UNL     1      15.670  50.304 -48.594  1.00  0.00     0.210 HD
HETATM    3  C1  UNL     1      14.327  50.229 -50.196  1.00  0.00     0.695 C 
HETATM    4  N4  UNL     1      13.800  51.404 -50.318  1.00  0.00    -0.225 N 
ATOM      5  H4  UNL     1      13.435  51.657 -51.237  1.00  0.00     0.177 HD
HETATM    6  N8  UNL     1      14.359  49.381 -51.346  1.00  0.00    -0.190 N 
HETATM    7  C6  UNL     1      14.373  47.970 -51.683  1.00  0.00     0.284 C 
HETATM    8  S1  UNL     1      13.216  48.343 -52.982  1.00  0.00     0.178 S 
HETATM    9  O3  UNL     1      11.852  48.627 -52.454  1.00  0.00    -0.225 OA
HETATM   10  O4  UNL     1      13.316  47.518 -54.200  1.00  0.00    -0.225 OA
HETATM   11  C7  UNL     1      14.392  49.644 -52.794  1.00  0.00     0.284 C 
ENDROOT
BRANCH   1  12
HETATM   12  N2  UNL     1      14.335  48.779 -48.192  1.00  0.00    -0.087 N 
HETATM   13  N1  UNL     1      15.108  48.020 -47.556  1.00  0.00    -0.303 N 
ATOM     14  H12 UNL     1      14.726  47.259 -46.994  1.00  0.00     0.181 HD
ATOM     15  H11 UNL     1      16.115  48.173 -47.609  1.00  0.00     0.181 HD
BRANCH  12  16
HETATM   16  O1  UNL     1      12.989  48.573 -48.120  1.00  0.00    -0.253 OA
ATOM     17  H1  UNL     1      12.626  47.756 -48.441  1.00  0.00     0.248 HD
ENDBRANCH  12  16
ENDBRANCH   1  12
BRANCH   4  18
HETATM   18  C2  UNL     1      13.683  52.380 -49.282  1.00  0.00     0.139 C 
BRANCH  18  19
HETATM   19  C3  UNL     1      12.727  51.931 -48.176  1.00  0.00     0.040 C 
BRANCH  19  20
HETATM   20  C4  UNL     1      11.323  51.965 -48.724  1.00  0.00     0.124 C 
BRANCH  20  21
HETATM   21  N5  UNL     1      10.327  51.709 -47.721  1.00  0.00    -0.363 N 
HETATM   22  C5  UNL     1       9.809  50.411 -47.448  1.00  0.00     0.208 C 
HETATM   23  N6  UNL     1       8.502  50.001 -47.791  1.00  0.00    -0.062 NA
HETATM   24  N7  UNL     1      10.588  49.574 -46.855  1.00  0.00    -0.241 N 
ATOM     25  H7  UNL     1      11.530  49.881 -46.612  1.00  0.00     0.197 HD
ATOM     26  H5  UNL     1       9.973  52.495 -47.177  1.00  0.00     0.162 HD
BRANCH  24  27
HETATM   27  O2  UNL     1      10.220  48.297 -46.533  1.00  0.00    -0.287 OA
ATOM     28  H2  UNL     1      10.248  47.572 -47.147  1.00  0.00     0.244 HD
ENDBRANCH  24  27
ENDBRANCH  20  21
ENDBRANCH  19  20
ENDBRANCH  18  19
ENDBRANCH   4  18
TORSDOF 7
ENDMDL
