MODEL 1
REMARK VINA RESULT: -6.241559857      0.000      0.000
REMARK  7 active torsions:
REMARK  status: ('A' for Active; 'I' for Inactive)
REMARK    1  A    between atoms: N1_2  and  C3_4 
REMARK    2  A    between atoms: C3_4  and  N2_5 
REMARK    3  A    between atoms: N2_5  and  C4_7 
REMARK    4  A    between atoms: C9_20  and  N7_21 
REMARK    5  A    between atoms: N7_21  and  C10_23 
REMARK    6  A    between atoms: C10_23  and  C11_24 
REMARK    7  A    between atoms: C11_24  and  N8_25 
ROOT
HETATM    1  C4  UNL     1      16.322  49.784 -59.429  1.00  0.00     0.679 A 
HETATM    2  N3  UNL     1      16.133  51.113 -59.471  1.00  0.00    -0.200 N 
ATOM      3  H3  UNL     1      16.256  51.679 -58.631  1.00  0.00     0.183 HD
HETATM    4  C5  UNL     1      15.780  51.683 -60.628  1.00  0.00     0.138 A 
HETATM    5  C6  UNL     1      15.607  50.937 -61.774  1.00  0.00     0.078 A 
HETATM    6  N4  UNL     1      15.265  51.224 -63.041  1.00  0.00    -0.339 N 
ATOM      7  H4  UNL     1      15.052  52.153 -63.405  1.00  0.00     0.167 HD
HETATM    8  C7  UNL     1      15.250  50.085 -63.749  1.00  0.00     0.123 A 
HETATM    9  N5  UNL     1      14.979  49.830 -65.031  1.00  0.00    -0.338 N 
ATOM     10  H5  UNL     1      14.726  50.590 -65.663  1.00  0.00     0.168 HD
HETATM   11  C8  UNL     1      15.041  48.565 -65.484  1.00  0.00     0.183 A 
HETATM   12  N6  UNL     1      15.376  47.520 -64.677  1.00  0.00    -0.338 N 
ATOM     13  H6  UNL     1      15.413  46.575 -65.060  1.00  0.00     0.168 HD
HETATM   14  C9  UNL     1      15.657  47.725 -63.384  1.00  0.00     0.122 A 
HETATM   15  C12 UNL     1      15.596  49.015 -62.909  1.00  0.00     0.082 A 
HETATM   16  C13 UNL     1      15.819  49.563 -61.661  1.00  0.00     0.095 A 
HETATM   17  N9  UNL     1      16.169  48.986 -60.522  1.00  0.00    -0.189 N 
ATOM     18  H9  UNL     1      16.320  47.978 -60.465  1.00  0.00     0.184 HD
ENDROOT
BRANCH  14  19
HETATM   19  N7  UNL     1      15.966  46.775 -62.623  1.00  0.00    -0.353 N 
ATOM     20  H7  UNL     1      15.205  46.436 -62.035  1.00  0.00     0.166 HD
BRANCH  19  21
HETATM   21  C10 UNL     1      17.187  46.101 -62.447  1.00  0.00     0.089 C 
BRANCH  21  22
HETATM   22  C11 UNL     1      17.626  45.229 -63.578  1.00  0.00     0.274 C 
BRANCH  22  23
HETATM   23  N8  UNL     1      16.892  43.964 -63.464  1.00  0.00    -0.075 N 
ATOM     24  H83 UNL     1      17.345  43.296 -62.841  1.00  0.00     0.274 HD
ATOM     25  H82 UNL     1      16.018  44.056 -62.947  1.00  0.00     0.274 HD
ATOM     26  H81 UNL     1      16.761  43.603 -64.408  1.00  0.00     0.274 HD
ENDBRANCH  22  23
ENDBRANCH  21  22
ENDBRANCH  19  21
ENDBRANCH  14  19
BRANCH   1  27
HETATM   27  N2  UNL     1      16.662  49.266 -58.297  1.00  0.00    -0.199 N 
ATOM     28  H2  UNL     1      17.225  48.415 -58.287  1.00  0.00     0.179 HD
BRANCH  27  29
HETATM   29  C3  UNL     1      16.266  49.859 -57.052  1.00  0.00     0.410 C 
BRANCH  29  30
HETATM   30  N1  UNL     1      16.196  48.911 -55.969  1.00  0.00     0.097 N 
HETATM   31  C1  UNL     1      17.361  48.060 -55.906  1.00  0.00     0.311 C 
HETATM   32  C2  UNL     1      15.021  48.061 -56.096  1.00  0.00     0.311 C 
ENDBRANCH  29  30
ENDBRANCH  27  29
ENDBRANCH   1  27
TORSDOF 7
ENDMDL
MODEL 2
REMARK VINA RESULT: -6.185409659     10.936     13.835
REMARK  7 active torsions:
REMARK  status: ('A' for Active; 'I' for Inactive)
REMARK    1  A    between atoms: N1_2  and  C3_4 
REMARK    2  A    between atoms: C3_4  and  N2_5 
REMARK    3  A    between atoms: N2_5  and  C4_7 
REMARK    4  A    between atoms: C9_20  and  N7_21 
REMARK    5  A    between atoms: N7_21  and  C10_23 
REMARK    6  A    between atoms: C10_23  and  C11_24 
REMARK    7  A    between atoms: C11_24  and  N8_25 
ROOT
HETATM    1  C4  UNL     1      15.795  48.991 -49.266  1.00  0.00     0.679 A 
HETATM    2  N3  UNL     1      16.190  49.326 -50.505  1.00  0.00    -0.200 N 
ATOM      3  H3  UNL     1      17.031  48.914 -50.909  1.00  0.00     0.183 HD
HETATM    4  C5  UNL     1      15.464  50.207 -51.202  1.00  0.00     0.138 A 
HETATM    5  C6  UNL     1      14.325  50.777 -50.676  1.00  0.00     0.078 A 
HETATM    6  N4  UNL     1      13.423  51.665 -51.126  1.00  0.00    -0.339 N 
ATOM      7  H4  UNL     1      13.437  52.116 -52.041  1.00  0.00     0.167 HD
HETATM    8  C7  UNL     1      12.501  51.859 -50.172  1.00  0.00     0.123 A 
HETATM    9  N5  UNL     1      11.412  52.630 -50.121  1.00  0.00    -0.338 N 
ATOM     10  H5  UNL     1      11.160  53.216 -50.918  1.00  0.00     0.168 HD
HETATM   11  C8  UNL     1      10.650  52.631 -49.013  1.00  0.00     0.183 A 
HETATM   12  N6  UNL     1      10.947  51.866 -47.926  1.00  0.00    -0.338 N 
ATOM     13  H6  UNL     1      10.343  51.894 -47.105  1.00  0.00     0.168 HD
HETATM   14  C9  UNL     1      12.028  51.075 -47.929  1.00  0.00     0.122 A 
HETATM   15  C12 UNL     1      12.816  51.067 -49.057  1.00  0.00     0.082 A 
HETATM   16  C13 UNL     1      13.972  50.386 -49.384  1.00  0.00     0.095 A 
HETATM   17  N9  UNL     1      14.681  49.514 -48.683  1.00  0.00    -0.189 N 
ATOM     18  H9  UNL     1      14.401  49.243 -47.740  1.00  0.00     0.184 HD
ENDROOT
BRANCH  14  19
HETATM   19  N7  UNL     1      12.320  50.363 -46.937  1.00  0.00    -0.353 N 
ATOM     20  H7  UNL     1      12.941  50.809 -46.261  1.00  0.00     0.166 HD
BRANCH  19  21
HETATM   21  C10 UNL     1      11.934  49.053 -46.603  1.00  0.00     0.089 C 
BRANCH  21  22
HETATM   22  C11 UNL     1      10.500  48.866 -46.226  1.00  0.00     0.274 C 
BRANCH  22  23
HETATM   23  N8  UNL     1      10.436  48.833 -44.761  1.00  0.00    -0.075 N 
ATOM     24  H83 UNL     1       9.723  48.194 -44.408  1.00  0.00     0.274 HD
ATOM     25  H82 UNL     1      11.243  48.377 -44.336  1.00  0.00     0.274 HD
ATOM     26  H81 UNL     1      10.306  49.792 -44.441  1.00  0.00     0.274 HD
ENDBRANCH  22  23
ENDBRANCH  21  22
ENDBRANCH  19  21
ENDBRANCH  14  19
BRANCH   1  27
HETATM   27  N2  UNL     1      16.517  48.138 -48.621  1.00  0.00    -0.199 N 
ATOM     28  H2  UNL     1      17.484  47.985 -48.908  1.00  0.00     0.179 HD
BRANCH  27  29
HETATM   29  C3  UNL     1      15.991  47.399 -47.510  1.00  0.00     0.410 C 
BRANCH  29  30
HETATM   30  N1  UNL     1      16.854  47.418 -46.356  1.00  0.00     0.097 N 
HETATM   31  C1  UNL     1      16.691  48.616 -45.566  1.00  0.00     0.311 C 
HETATM   32  C2  UNL     1      18.252  47.323 -46.750  1.00  0.00     0.311 C 
ENDBRANCH  29  30
ENDBRANCH  27  29
ENDBRANCH   1  27
TORSDOF 7
ENDMDL
MODEL 3
REMARK VINA RESULT: -6.176683825      3.334      8.485
REMARK  7 active torsions:
REMARK  status: ('A' for Active; 'I' for Inactive)
REMARK    1  A    between atoms: N1_2  and  C3_4 
REMARK    2  A    between atoms: C3_4  and  N2_5 
REMARK    3  A    between atoms: N2_5  and  C4_7 
REMARK    4  A    between atoms: C9_20  and  N7_21 
REMARK    5  A    between atoms: N7_21  and  C10_23 
REMARK    6  A    between atoms: C10_23  and  C11_24 
REMARK    7  A    between atoms: C11_24  and  N8_25 
ROOT
HETATM    1  C4  UNL     1      16.806  48.928 -57.815  1.00  0.00     0.679 A 
HETATM    2  N3  UNL     1      15.643  48.687 -57.188  1.00  0.00    -0.200 N 
ATOM      3  H3  UNL     1      14.763  48.711 -57.703  1.00  0.00     0.183 HD
HETATM    4  C5  UNL     1      15.655  48.415 -55.879  1.00  0.00     0.138 A 
HETATM    5  C6  UNL     1      16.832  48.377 -55.163  1.00  0.00     0.078 A 
HETATM    6  N4  UNL     1      17.145  48.140 -53.878  1.00  0.00    -0.339 N 
ATOM      7  H4  UNL     1      16.482  47.923 -53.134  1.00  0.00     0.167 HD
HETATM    8  C7  UNL     1      18.475  48.236 -53.737  1.00  0.00     0.123 A 
HETATM    9  N5  UNL     1      19.276  48.092 -52.679  1.00  0.00    -0.338 N 
ATOM     10  H5  UNL     1      18.884  47.864 -51.765  1.00  0.00     0.168 HD
HETATM   11  C8  UNL     1      20.605  48.249 -52.826  1.00  0.00     0.183 A 
HETATM   12  N6  UNL     1      21.172  48.552 -54.026  1.00  0.00    -0.338 N 
ATOM     13  H6  UNL     1      22.183  48.662 -54.096  1.00  0.00     0.168 HD
HETATM   14  C9  UNL     1      20.410  48.707 -55.116  1.00  0.00     0.122 A 
HETATM   15  C12 UNL     1      19.050  48.549 -54.978  1.00  0.00     0.082 A 
HETATM   16  C13 UNL     1      18.003  48.637 -55.875  1.00  0.00     0.095 A 
HETATM   17  N9  UNL     1      18.005  48.908 -57.171  1.00  0.00    -0.189 N 
ATOM     18  H9  UNL     1      18.876  49.094 -57.670  1.00  0.00     0.184 HD
ENDROOT
BRANCH  14  19
HETATM   19  N7  UNL     1      20.913  48.988 -56.232  1.00  0.00    -0.353 N 
ATOM     20  H7  UNL     1      20.521  48.469 -57.018  1.00  0.00     0.166 HD
BRANCH  19  21
HETATM   21  C10 UNL     1      21.926  49.899 -56.578  1.00  0.00     0.089 C 
BRANCH  21  22
HETATM   22  C11 UNL     1      21.722  51.311 -56.131  1.00  0.00     0.274 C 
BRANCH  22  23
HETATM   23  N8  UNL     1      22.725  51.590 -55.098  1.00  0.00    -0.075 N 
ATOM     24  H83 UNL     1      22.328  51.634 -54.159  1.00  0.00     0.274 HD
ATOM     25  H82 UNL     1      23.360  50.809 -54.937  1.00  0.00     0.274 HD
ATOM     26  H81 UNL     1      23.208  52.447 -55.367  1.00  0.00     0.274 HD
ENDBRANCH  22  23
ENDBRANCH  21  22
ENDBRANCH  19  21
ENDBRANCH  14  19
BRANCH   1  27
HETATM   27  N2  UNL     1      16.759  49.187 -59.078  1.00  0.00    -0.199 N 
ATOM     28  H2  UNL     1      15.992  49.752 -59.443  1.00  0.00     0.179 HD
BRANCH  27  29
HETATM   29  C3  UNL     1      17.760  48.698 -59.982  1.00  0.00     0.410 C 
BRANCH  29  30
HETATM   30  N1  UNL     1      17.257  48.459 -61.311  1.00  0.00     0.097 N 
HETATM   31  C1  UNL     1      17.501  47.108 -61.757  1.00  0.00     0.311 C 
HETATM   32  C2  UNL     1      17.865  49.370 -62.270  1.00  0.00     0.311 C 
ENDBRANCH  29  30
ENDBRANCH  27  29
ENDBRANCH   1  27
TORSDOF 7
ENDMDL
MODEL 4
REMARK VINA RESULT: -6.166238241      7.196     12.962
REMARK  7 active torsions:
REMARK  status: ('A' for Active; 'I' for Inactive)
REMARK    1  A    between atoms: N1_2  and  C3_4 
REMARK    2  A    between atoms: C3_4  and  N2_5 
REMARK    3  A    between atoms: N2_5  and  C4_7 
REMARK    4  A    between atoms: C9_20  and  N7_21 
REMARK    5  A    between atoms: N7_21  and  C10_23 
REMARK    6  A    between atoms: C10_23  and  C11_24 
REMARK    7  A    between atoms: C11_24  and  N8_25 
ROOT
HETATM    1  C4  UNL     1      13.834  48.644 -51.891  1.00  0.00     0.679 A 
HETATM    2  N3  UNL     1      13.084  49.654 -52.361  1.00  0.00    -0.200 N 
ATOM      3  H3  UNL     1      12.902  49.741 -53.361  1.00  0.00     0.183 HD
HETATM    4  C5  UNL     1      12.579  50.544 -51.500  1.00  0.00     0.138 A 
HETATM    5  C6  UNL     1      12.813  50.447 -50.145  1.00  0.00     0.078 A 
HETATM    6  N4  UNL     1      12.450  51.170 -49.072  1.00  0.00    -0.339 N 
ATOM      7  H4  UNL     1      11.872  52.011 -49.089  1.00  0.00     0.167 HD
HETATM    8  C7  UNL     1      12.973  50.603 -47.976  1.00  0.00     0.123 A 
HETATM    9  N5  UNL     1      12.910  50.926 -46.682  1.00  0.00    -0.338 N 
ATOM     10  H5  UNL     1      12.383  51.747 -46.384  1.00  0.00     0.168 HD
HETATM   11  C8  UNL     1      13.545  50.163 -45.775  1.00  0.00     0.183 A 
HETATM   12  N6  UNL     1      14.259  49.058 -46.128  1.00  0.00    -0.338 N 
ATOM     13  H6  UNL     1      14.726  48.505 -45.409  1.00  0.00     0.168 HD
HETATM   14  C9  UNL     1      14.351  48.692 -47.412  1.00  0.00     0.122 A 
HETATM   15  C12 UNL     1      13.706  49.466 -48.349  1.00  0.00     0.082 A 
HETATM   16  C13 UNL     1      13.600  49.375 -49.724  1.00  0.00     0.095 A 
HETATM   17  N9  UNL     1      14.106  48.486 -50.565  1.00  0.00    -0.189 N 
ATOM     18  H9  UNL     1      14.678  47.710 -50.233  1.00  0.00     0.184 HD
ENDROOT
BRANCH  14  19
HETATM   19  N7  UNL     1      15.006  47.677 -47.759  1.00  0.00    -0.353 N 
ATOM     20  H7  UNL     1      14.439  46.850 -47.946  1.00  0.00     0.166 HD
BRANCH  19  21
HETATM   21  C10 UNL     1      16.388  47.493 -47.931  1.00  0.00     0.089 C 
BRANCH  21  22
HETATM   22  C11 UNL     1      17.177  47.230 -46.690  1.00  0.00     0.274 C 
BRANCH  22  23
HETATM   23  N8  UNL     1      18.002  46.043 -46.941  1.00  0.00    -0.075 N 
ATOM     24  H83 UNL     1      18.302  45.578 -46.084  1.00  0.00     0.274 HD
ATOM     25  H82 UNL     1      17.473  45.266 -47.336  1.00  0.00     0.274 HD
ATOM     26  H81 UNL     1      18.782  46.334 -47.530  1.00  0.00     0.274 HD
ENDBRANCH  22  23
ENDBRANCH  21  22
ENDBRANCH  19  21
ENDBRANCH  14  19
BRANCH   1  27
HETATM   27  N2  UNL     1      14.306  47.803 -52.748  1.00  0.00    -0.199 N 
ATOM     28  H2  UNL     1      14.804  46.978 -52.415  1.00  0.00     0.179 HD
BRANCH  27  29
HETATM   29  C3  UNL     1      14.145  48.003 -54.160  1.00  0.00     0.410 C 
BRANCH  29  30
HETATM   30  N1  UNL     1      15.396  48.181 -54.853  1.00  0.00     0.097 N 
HETATM   31  C1  UNL     1      15.958  49.495 -54.647  1.00  0.00     0.311 C 
HETATM   32  C2  UNL     1      15.232  47.978 -56.285  1.00  0.00     0.311 C 
ENDBRANCH  29  30
ENDBRANCH  27  29
ENDBRANCH   1  27
TORSDOF 7
ENDMDL
MODEL 5
REMARK VINA RESULT: -6.136972240      1.716      1.934
REMARK  7 active torsions:
REMARK  status: ('A' for Active; 'I' for Inactive)
REMARK    1  A    between atoms: N1_2  and  C3_4 
REMARK    2  A    between atoms: C3_4  and  N2_5 
REMARK    3  A    between atoms: N2_5  and  C4_7 
REMARK    4  A    between atoms: C9_20  and  N7_21 
REMARK    5  A    between atoms: N7_21  and  C10_23 
REMARK    6  A    between atoms: C10_23  and  C11_24 
REMARK    7  A    between atoms: C11_24  and  N8_25 
ROOT
HETATM    1  C4  UNL     1      16.323  49.457 -58.075  1.00  0.00     0.679 A 
HETATM    2  N3  UNL     1      15.732  50.636 -57.825  1.00  0.00    -0.200 N 
ATOM      3  H3  UNL     1      15.422  50.869 -56.881  1.00  0.00     0.183 HD
HETATM    4  C5  UNL     1      15.555  51.501 -58.829  1.00  0.00     0.138 A 
HETATM    5  C6  UNL     1      15.965  51.207 -60.112  1.00  0.00     0.078 A 
HETATM    6  N4  UNL     1      15.921  51.858 -61.287  1.00  0.00    -0.339 N 
ATOM      7  H4  UNL     1      15.530  52.788 -61.438  1.00  0.00     0.167 HD
HETATM    8  C7  UNL     1      16.478  51.081 -62.227  1.00  0.00     0.123 A 
HETATM    9  N5  UNL     1      16.678  51.261 -63.535  1.00  0.00    -0.338 N 
ATOM     10  H5  UNL     1      16.381  52.127 -63.985  1.00  0.00     0.168 HD
HETATM   11  C8  UNL     1      17.273  50.292 -64.255  1.00  0.00     0.183 A 
HETATM   12  N6  UNL     1      17.686  49.121 -63.696  1.00  0.00    -0.338 N 
ATOM     13  H6  UNL     1      18.134  48.412 -64.276  1.00  0.00     0.168 HD
HETATM   14  C9  UNL     1      17.508  48.894 -62.389  1.00  0.00     0.122 A 
HETATM   15  C12 UNL     1      16.900  49.877 -61.642  1.00  0.00     0.082 A 
HETATM   16  C13 UNL     1      16.571  49.965 -60.304  1.00  0.00     0.095 A 
HETATM   17  N9  UNL     1      16.753  49.100 -59.317  1.00  0.00    -0.189 N 
ATOM     18  H9  UNL     1      17.200  48.197 -59.482  1.00  0.00     0.184 HD
ENDROOT
BRANCH  14  19
HETATM   19  N7  UNL     1      17.881  47.821 -61.854  1.00  0.00    -0.353 N 
ATOM     20  H7  UNL     1      18.715  47.902 -61.272  1.00  0.00     0.166 HD
BRANCH  19  21
HETATM   21  C10 UNL     1      17.339  46.526 -61.924  1.00  0.00     0.089 C 
BRANCH  21  22
HETATM   22  C11 UNL     1      17.795  45.682 -63.070  1.00  0.00     0.274 C 
BRANCH  22  23
HETATM   23  N8  UNL     1      17.011  44.443 -63.039  1.00  0.00    -0.075 N 
ATOM     24  H83 UNL     1      17.501  43.651 -63.454  1.00  0.00     0.274 HD
ATOM     25  H82 UNL     1      16.909  44.059 -62.100  1.00  0.00     0.274 HD
ATOM     26  H81 UNL     1      16.116  44.638 -63.488  1.00  0.00     0.274 HD
ENDBRANCH  22  23
ENDBRANCH  21  22
ENDBRANCH  19  21
ENDBRANCH  14  19
BRANCH   1  27
HETATM   27  N2  UNL     1      16.478  48.646 -57.084  1.00  0.00    -0.199 N 
ATOM     28  H2  UNL     1      17.420  48.363 -56.815  1.00  0.00     0.179 HD
BRANCH  27  29
HETATM   29  C3  UNL     1      15.356  48.133 -56.352  1.00  0.00     0.410 C 
BRANCH  29  30
HETATM   30  N1  UNL     1      15.236  48.695 -55.031  1.00  0.00     0.097 N 
HETATM   31  C1  UNL     1      16.455  48.571 -54.267  1.00  0.00     0.311 C 
HETATM   32  C2  UNL     1      14.167  48.049 -54.284  1.00  0.00     0.311 C 
ENDBRANCH  29  30
ENDBRANCH  27  29
ENDBRANCH   1  27
TORSDOF 7
ENDMDL
