MODEL 1
REMARK VINA RESULT: -5.664308128      0.000      0.000
REMARK  13 active torsions:
REMARK  status: ('A' for Active; 'I' for Inactive)
REMARK    1  A    between atoms: C2_2  and  O1_3 
REMARK    2  A    between atoms: O1_3  and  C3_4 
REMARK    3  A    between atoms: C3_4  and  C4_6 
REMARK    4  A    between atoms: C4_6  and  C5_8 
REMARK    5  A    between atoms: C5_8  and  O4_9 
REMARK    6  A    between atoms: O4_9  and  N1_10 
REMARK    7  A    between atoms: N1_10  and  C6_12 
REMARK    8  A    between atoms: C6_12  and  N2_14 
REMARK    9  A    between atoms: N2_14  and  N3_16 
REMARK   10  A    between atoms: N3_16  and  C7_18 
REMARK   11  A    between atoms: C7_18  and  O5_19 
REMARK   12  A    between atoms: N4_21  and  C8_23 
REMARK   13  A    between atoms: C8_23  and  O6_25 
ROOT
HETATM    1  C6  UNL     1      15.783  51.021 -60.701  1.00  0.00     0.210 C 
HETATM    2  S1  UNL     1      15.730  52.150 -61.869  1.00  0.00    -0.037 SA
ENDROOT
BRANCH   1   3
HETATM    3  N1  UNL     1      15.928  51.315 -59.334  1.00  0.00    -0.239 N 
ATOM      4  H1  UNL     1      15.267  52.007 -58.979  1.00  0.00     0.197 HD
BRANCH   3   5
HETATM    5  O4  UNL     1      16.764  50.856 -58.437  1.00  0.00    -0.270 OA
BRANCH   5   6
HETATM    6  C5  UNL     1      16.305  50.557 -57.212  1.00  0.00     0.290 C 
BRANCH   6   7
HETATM    7  C4  UNL     1      16.508  49.076 -56.902  1.00  0.00     0.249 C 
HETATM    8  O3  UNL     1      17.552  48.577 -57.365  1.00  0.00    -0.284 OA
BRANCH   7   9
HETATM    9  C3  UNL     1      15.525  48.356 -56.123  1.00  0.00     0.331 C 
HETATM   10  O2  UNL     1      14.848  47.393 -56.636  1.00  0.00    -0.256 OA
BRANCH   9  11
HETATM   11  O1  UNL     1      15.228  48.626 -54.796  1.00  0.00    -0.316 OA
BRANCH  11  12
HETATM   12  C2  UNL     1      14.023  48.104 -54.212  1.00  0.00     0.175 C 
HETATM   13  C1  UNL     1      13.688  49.020 -53.057  1.00  0.00     0.034 C 
ENDBRANCH  11  12
ENDBRANCH   9  11
ENDBRANCH   7   9
ENDBRANCH   6   7
ENDBRANCH   5   6
ENDBRANCH   3   5
ENDBRANCH   1   3
BRANCH   1  14
HETATM   14  N2  UNL     1      15.669  49.668 -61.108  1.00  0.00    -0.272 N 
ATOM     15  H2  UNL     1      15.126  49.405 -61.929  1.00  0.00     0.189 HD
BRANCH  14  16
HETATM   16  N3  UNL     1      16.350  48.685 -60.318  1.00  0.00    -0.263 N 
ATOM     17  H3  UNL     1      15.916  48.304 -59.477  1.00  0.00     0.190 HD
BRANCH  16  18
HETATM   18  C7  UNL     1      17.618  48.258 -60.719  1.00  0.00     0.237 C 
HETATM   19  N4  UNL     1      17.925  47.277 -61.613  1.00  0.00    -0.306 N 
ATOM     20  H4  UNL     1      18.925  47.136 -61.756  1.00  0.00     0.171 HD
BRANCH  18  21
HETATM   21  O5  UNL     1      18.592  48.900 -60.142  1.00  0.00    -0.331 OA
ATOM     22  H5  UNL     1      19.352  49.021 -60.700  1.00  0.00     0.221 HD
ENDBRANCH  18  21
BRANCH  19  23
HETATM   23  C8  UNL     1      17.116  46.438 -62.363  1.00  0.00     0.114 C 
HETATM   24  C9  UNL     1      17.425  45.084 -62.864  1.00  0.00     0.097 C 
BRANCH  23  25
HETATM   25  O6  UNL     1      15.906  46.860 -62.696  1.00  0.00    -0.350 OA
ATOM     26  H6  UNL     1      15.196  46.228 -62.716  1.00  0.00     0.219 HD
ENDBRANCH  23  25
ENDBRANCH  19  23
ENDBRANCH  16  18
ENDBRANCH  14  16
ENDBRANCH   1  14
TORSDOF 13
ENDMDL
MODEL 2
REMARK VINA RESULT: -5.660021317      1.330      1.597
REMARK  13 active torsions:
REMARK  status: ('A' for Active; 'I' for Inactive)
REMARK    1  A    between atoms: C2_2  and  O1_3 
REMARK    2  A    between atoms: O1_3  and  C3_4 
REMARK    3  A    between atoms: C3_4  and  C4_6 
REMARK    4  A    between atoms: C4_6  and  C5_8 
REMARK    5  A    between atoms: C5_8  and  O4_9 
REMARK    6  A    between atoms: O4_9  and  N1_10 
REMARK    7  A    between atoms: N1_10  and  C6_12 
REMARK    8  A    between atoms: C6_12  and  N2_14 
REMARK    9  A    between atoms: N2_14  and  N3_16 
REMARK   10  A    between atoms: N3_16  and  C7_18 
REMARK   11  A    between atoms: C7_18  and  O5_19 
REMARK   12  A    between atoms: N4_21  and  C8_23 
REMARK   13  A    between atoms: C8_23  and  O6_25 
ROOT
HETATM    1  C6  UNL     1      15.717  50.905 -61.056  1.00  0.00     0.210 C 
HETATM    2  S1  UNL     1      15.787  51.923 -62.320  1.00  0.00    -0.037 SA
ENDROOT
BRANCH   1   3
HETATM    3  N1  UNL     1      15.707  51.323 -59.714  1.00  0.00    -0.239 N 
ATOM      4  H1  UNL     1      16.271  52.152 -59.526  1.00  0.00     0.197 HD
BRANCH   3   5
HETATM    5  O4  UNL     1      15.098  50.833 -58.662  1.00  0.00    -0.270 OA
BRANCH   5   6
HETATM    6  C5  UNL     1      15.725  50.863 -57.476  1.00  0.00     0.290 C 
BRANCH   6   7
HETATM    7  C4  UNL     1      16.538  49.590 -57.259  1.00  0.00     0.249 C 
HETATM    8  O3  UNL     1      17.663  49.581 -57.797  1.00  0.00    -0.284 OA
BRANCH   7   9
HETATM    9  C3  UNL     1      15.990  48.504 -56.475  1.00  0.00     0.331 C 
HETATM   10  O2  UNL     1      14.775  48.120 -56.634  1.00  0.00    -0.256 OA
BRANCH   9  11
HETATM   11  O1  UNL     1      16.696  47.798 -55.514  1.00  0.00    -0.316 OA
BRANCH  11  12
HETATM   12  C2  UNL     1      17.334  48.501 -54.435  1.00  0.00     0.175 C 
HETATM   13  C1  UNL     1      18.804  48.161 -54.526  1.00  0.00     0.034 C 
ENDBRANCH  11  12
ENDBRANCH   9  11
ENDBRANCH   7   9
ENDBRANCH   6   7
ENDBRANCH   5   6
ENDBRANCH   3   5
ENDBRANCH   1   3
BRANCH   1  14
HETATM   14  N2  UNL     1      15.659  49.520 -61.348  1.00  0.00    -0.272 N 
ATOM     15  H2  UNL     1      15.126  49.167 -62.142  1.00  0.00     0.189 HD
BRANCH  14  16
HETATM   16  N3  UNL     1      16.382  48.634 -60.483  1.00  0.00    -0.263 N 
ATOM     17  H3  UNL     1      15.980  48.336 -59.594  1.00  0.00     0.190 HD
BRANCH  16  18
HETATM   18  C7  UNL     1      17.645  48.188 -60.877  1.00  0.00     0.237 C 
HETATM   19  N4  UNL     1      17.943  47.140 -61.695  1.00  0.00    -0.306 N 
ATOM     20  H4  UNL     1      18.941  46.998 -61.849  1.00  0.00     0.171 HD
BRANCH  18  21
HETATM   21  O5  UNL     1      18.624  48.885 -60.378  1.00  0.00    -0.331 OA
ATOM     22  H5  UNL     1      18.842  49.657 -60.888  1.00  0.00     0.221 HD
ENDBRANCH  18  21
BRANCH  19  23
HETATM   23  C8  UNL     1      17.127  46.234 -62.354  1.00  0.00     0.114 C 
HETATM   24  C9  UNL     1      17.528  45.133 -63.252  1.00  0.00     0.097 C 
BRANCH  23  25
HETATM   25  O6  UNL     1      15.817  46.329 -62.189  1.00  0.00    -0.350 OA
ATOM     26  H6  UNL     1      15.271  45.607 -62.478  1.00  0.00     0.219 HD
ENDBRANCH  23  25
ENDBRANCH  19  23
ENDBRANCH  16  18
ENDBRANCH  14  16
ENDBRANCH   1  14
TORSDOF 13
ENDMDL
MODEL 3
REMARK VINA RESULT: -5.601111865      7.031     10.912
REMARK  13 active torsions:
REMARK  status: ('A' for Active; 'I' for Inactive)
REMARK    1  A    between atoms: C2_2  and  O1_3 
REMARK    2  A    between atoms: O1_3  and  C3_4 
REMARK    3  A    between atoms: C3_4  and  C4_6 
REMARK    4  A    between atoms: C4_6  and  C5_8 
REMARK    5  A    between atoms: C5_8  and  O4_9 
REMARK    6  A    between atoms: O4_9  and  N1_10 
REMARK    7  A    between atoms: N1_10  and  C6_12 
REMARK    8  A    between atoms: C6_12  and  N2_14 
REMARK    9  A    between atoms: N2_14  and  N3_16 
REMARK   10  A    between atoms: N3_16  and  C7_18 
REMARK   11  A    between atoms: C7_18  and  O5_19 
REMARK   12  A    between atoms: N4_21  and  C8_23 
REMARK   13  A    between atoms: C8_23  and  O6_25 
ROOT
HETATM    1  C6  UNL     1      14.096  51.630 -50.100  1.00  0.00     0.210 C 
HETATM    2  S1  UNL     1      14.855  53.067 -50.097  1.00  0.00    -0.037 SA
ENDROOT
BRANCH   1   3
HETATM    3  N1  UNL     1      14.741  50.404 -49.857  1.00  0.00    -0.239 N 
ATOM      4  H1  UNL     1      15.675  50.491 -49.456  1.00  0.00     0.197 HD
BRANCH   3   5
HETATM    5  O4  UNL     1      14.351  49.170 -50.058  1.00  0.00    -0.270 OA
BRANCH   5   6
HETATM    6  C5  UNL     1      14.699  48.556 -51.199  1.00  0.00     0.290 C 
BRANCH   6   7
HETATM    7  C4  UNL     1      13.473  48.289 -52.068  1.00  0.00     0.249 C 
HETATM    8  O3  UNL     1      12.435  48.884 -51.718  1.00  0.00    -0.284 OA
BRANCH   7   9
HETATM    9  C3  UNL     1      13.569  47.397 -53.204  1.00  0.00     0.331 C 
HETATM   10  O2  UNL     1      13.384  46.133 -53.073  1.00  0.00    -0.256 OA
BRANCH   9  11
HETATM   11  O1  UNL     1      13.859  47.806 -54.496  1.00  0.00    -0.316 OA
BRANCH  11  12
HETATM   12  C2  UNL     1      15.207  48.158 -54.850  1.00  0.00     0.175 C 
HETATM   13  C1  UNL     1      15.263  48.132 -56.360  1.00  0.00     0.034 C 
ENDBRANCH  11  12
ENDBRANCH   9  11
ENDBRANCH   7   9
ENDBRANCH   6   7
ENDBRANCH   5   6
ENDBRANCH   3   5
ENDBRANCH   1   3
BRANCH   1  14
HETATM   14  N2  UNL     1      12.703  51.638 -50.359  1.00  0.00    -0.272 N 
ATOM     15  H2  UNL     1      12.308  52.197 -51.115  1.00  0.00     0.189 HD
BRANCH  14  16
HETATM   16  N3  UNL     1      11.873  50.828 -49.518  1.00  0.00    -0.263 N 
ATOM     17  H3  UNL     1      11.464  49.962 -49.871  1.00  0.00     0.190 HD
BRANCH  16  18
HETATM   18  C7  UNL     1      11.631  51.243 -48.207  1.00  0.00     0.237 C 
HETATM   19  N4  UNL     1      12.168  50.741 -47.060  1.00  0.00    -0.306 N 
ATOM     20  H4  UNL     1      11.849  51.204 -46.209  1.00  0.00     0.171 HD
BRANCH  18  21
HETATM   21  O5  UNL     1      10.786  52.229 -48.119  1.00  0.00    -0.331 OA
ATOM     22  H5  UNL     1      11.191  53.086 -48.187  1.00  0.00     0.221 HD
ENDBRANCH  18  21
BRANCH  19  23
HETATM   23  C8  UNL     1      13.071  49.712 -46.847  1.00  0.00     0.114 C 
HETATM   24  C9  UNL     1      14.078  49.591 -45.774  1.00  0.00     0.097 C 
BRANCH  23  25
HETATM   25  O6  UNL     1      13.068  48.686 -47.685  1.00  0.00    -0.350 OA
ATOM     26  H6  UNL     1      12.711  47.858 -47.385  1.00  0.00     0.219 HD
ENDBRANCH  23  25
ENDBRANCH  19  23
ENDBRANCH  16  18
ENDBRANCH  14  16
ENDBRANCH   1  14
TORSDOF 13
ENDMDL
MODEL 4
REMARK VINA RESULT: -5.548894672      8.478     11.020
REMARK  13 active torsions:
REMARK  status: ('A' for Active; 'I' for Inactive)
REMARK    1  A    between atoms: C2_2  and  O1_3 
REMARK    2  A    between atoms: O1_3  and  C3_4 
REMARK    3  A    between atoms: C3_4  and  C4_6 
REMARK    4  A    between atoms: C4_6  and  C5_8 
REMARK    5  A    between atoms: C5_8  and  O4_9 
REMARK    6  A    between atoms: O4_9  and  N1_10 
REMARK    7  A    between atoms: N1_10  and  C6_12 
REMARK    8  A    between atoms: C6_12  and  N2_14 
REMARK    9  A    between atoms: N2_14  and  N3_16 
REMARK   10  A    between atoms: N3_16  and  C7_18 
REMARK   11  A    between atoms: C7_18  and  O5_19 
REMARK   12  A    between atoms: N4_21  and  C8_23 
REMARK   13  A    between atoms: C8_23  and  O6_25 
ROOT
HETATM    1  C6  UNL     1      14.154  52.048 -49.042  1.00  0.00     0.210 C 
HETATM    2  S1  UNL     1      15.194  53.270 -49.298  1.00  0.00    -0.037 SA
ENDROOT
BRANCH   1   3
HETATM    3  N1  UNL     1      14.000  50.955 -49.913  1.00  0.00    -0.239 N 
ATOM      4  H1  UNL     1      14.854  50.420 -50.072  1.00  0.00     0.197 HD
BRANCH   3   5
HETATM    5  O4  UNL     1      12.951  50.505 -50.555  1.00  0.00    -0.270 OA
BRANCH   5   6
HETATM    6  C5  UNL     1      12.998  50.415 -51.894  1.00  0.00     0.290 C 
BRANCH   6   7
HETATM    7  C4  UNL     1      12.856  48.964 -52.345  1.00  0.00     0.249 C 
HETATM    8  O3  UNL     1      11.732  48.654 -52.786  1.00  0.00    -0.284 OA
BRANCH   7   9
HETATM    9  C3  UNL     1      13.981  48.060 -52.246  1.00  0.00     0.331 C 
HETATM   10  O2  UNL     1      14.088  47.046 -53.026  1.00  0.00    -0.256 OA
BRANCH   9  11
HETATM   11  O1  UNL     1      15.015  48.195 -51.332  1.00  0.00    -0.316 OA
BRANCH  11  12
HETATM   12  C2  UNL     1      16.330  48.552 -51.787  1.00  0.00     0.175 C 
HETATM   13  C1  UNL     1      17.249  47.449 -51.315  1.00  0.00     0.034 C 
ENDBRANCH  11  12
ENDBRANCH   9  11
ENDBRANCH   7   9
ENDBRANCH   6   7
ENDBRANCH   5   6
ENDBRANCH   3   5
ENDBRANCH   1   3
BRANCH   1  14
HETATM   14  N2  UNL     1      13.369  52.107 -47.863  1.00  0.00    -0.272 N 
ATOM     15  H2  UNL     1      13.229  52.984 -47.363  1.00  0.00     0.189 HD
BRANCH  14  16
HETATM   16  N3  UNL     1      12.781  50.884 -47.403  1.00  0.00    -0.263 N 
ATOM     17  H3  UNL     1      11.903  50.549 -47.800  1.00  0.00     0.190 HD
BRANCH  16  18
HETATM   18  C7  UNL     1      13.429  50.158 -46.401  1.00  0.00     0.237 C 
HETATM   19  N4  UNL     1      14.178  49.029 -46.539  1.00  0.00    -0.306 N 
ATOM     20  H4  UNL     1      14.562  48.669 -45.666  1.00  0.00     0.171 HD
BRANCH  18  21
HETATM   21  O5  UNL     1      13.270  50.656 -45.209  1.00  0.00    -0.331 OA
ATOM     22  H5  UNL     1      12.543  50.275 -44.730  1.00  0.00     0.221 HD
ENDBRANCH  18  21
BRANCH  19  23
HETATM   23  C8  UNL     1      14.511  48.284 -47.660  1.00  0.00     0.114 C 
HETATM   24  C9  UNL     1      15.727  47.481 -47.891  1.00  0.00     0.097 C 
BRANCH  23  25
HETATM   25  O6  UNL     1      13.661  48.260 -48.676  1.00  0.00    -0.350 OA
ATOM     26  H6  UNL     1      13.766  48.902 -49.368  1.00  0.00     0.219 HD
ENDBRANCH  23  25
ENDBRANCH  19  23
ENDBRANCH  16  18
ENDBRANCH  14  16
ENDBRANCH   1  14
TORSDOF 13
ENDMDL
MODEL 5
REMARK VINA RESULT: -5.541681408      2.065      2.796
REMARK  13 active torsions:
REMARK  status: ('A' for Active; 'I' for Inactive)
REMARK    1  A    between atoms: C2_2  and  O1_3 
REMARK    2  A    between atoms: O1_3  and  C3_4 
REMARK    3  A    between atoms: C3_4  and  C4_6 
REMARK    4  A    between atoms: C4_6  and  C5_8 
REMARK    5  A    between atoms: C5_8  and  O4_9 
REMARK    6  A    between atoms: O4_9  and  N1_10 
REMARK    7  A    between atoms: N1_10  and  C6_12 
REMARK    8  A    between atoms: C6_12  and  N2_14 
REMARK    9  A    between atoms: N2_14  and  N3_16 
REMARK   10  A    between atoms: N3_16  and  C7_18 
REMARK   11  A    between atoms: C7_18  and  O5_19 
REMARK   12  A    between atoms: N4_21  and  C8_23 
REMARK   13  A    between atoms: C8_23  and  O6_25 
ROOT
HETATM    1  C6  UNL     1      15.717  50.898 -59.403  1.00  0.00     0.210 C 
HETATM    2  S1  UNL     1      15.856  52.475 -59.770  1.00  0.00    -0.037 SA
ENDROOT
BRANCH   1   3
HETATM    3  N1  UNL     1      15.526  50.412 -58.097  1.00  0.00    -0.239 N 
ATOM      4  H1  UNL     1      15.366  51.137 -57.397  1.00  0.00     0.197 HD
BRANCH   3   5
HETATM    5  O4  UNL     1      15.519  49.191 -57.624  1.00  0.00    -0.270 OA
BRANCH   5   6
HETATM    6  C5  UNL     1      16.182  48.930 -56.486  1.00  0.00     0.290 C 
BRANCH   6   7
HETATM    7  C4  UNL     1      17.662  49.271 -56.631  1.00  0.00     0.249 C 
HETATM    8  O3  UNL     1      18.202  48.859 -57.677  1.00  0.00    -0.284 OA
BRANCH   7   9
HETATM    9  C3  UNL     1      18.339  50.021 -55.595  1.00  0.00     0.331 C 
HETATM   10  O2  UNL     1      18.601  51.270 -55.744  1.00  0.00    -0.256 OA
BRANCH   9  11
HETATM   11  O1  UNL     1      18.754  49.486 -54.386  1.00  0.00    -0.316 OA
BRANCH  11  12
HETATM   12  C2  UNL     1      19.321  48.166 -54.345  1.00  0.00     0.175 C 
HETATM   13  C1  UNL     1      20.811  48.346 -54.518  1.00  0.00     0.034 C 
ENDBRANCH  11  12
ENDBRANCH   9  11
ENDBRANCH   7   9
ENDBRANCH   6   7
ENDBRANCH   5   6
ENDBRANCH   3   5
ENDBRANCH   1   3
BRANCH   1  14
HETATM   14  N2  UNL     1      15.791  49.978 -60.478  1.00  0.00    -0.272 N 
ATOM     15  H2  UNL     1      15.369  50.185 -61.383  1.00  0.00     0.189 HD
BRANCH  14  16
HETATM   16  N3  UNL     1      16.484  48.746 -60.242  1.00  0.00    -0.263 N 
ATOM     17  H3  UNL     1      16.126  48.070 -59.567  1.00  0.00     0.190 HD
BRANCH  16  18
HETATM   18  C7  UNL     1      17.658  48.486 -60.952  1.00  0.00     0.237 C 
HETATM   19  N4  UNL     1      17.896  47.473 -61.831  1.00  0.00    -0.306 N 
ATOM     20  H4  UNL     1      18.831  47.480 -62.238  1.00  0.00     0.171 HD
BRANCH  18  21
HETATM   21  O5  UNL     1      18.613  49.338 -60.713  1.00  0.00    -0.331 OA
ATOM     22  H5  UNL     1      18.356  50.044 -60.131  1.00  0.00     0.221 HD
ENDBRANCH  18  21
BRANCH  19  23
HETATM   23  C8  UNL     1      17.090  46.435 -62.269  1.00  0.00     0.114 C 
HETATM   24  C9  UNL     1      17.501  45.172 -62.914  1.00  0.00     0.097 C 
BRANCH  23  25
HETATM   25  O6  UNL     1      15.779  46.544 -62.112  1.00  0.00    -0.350 OA
ATOM     26  H6  UNL     1      15.229  46.549 -62.886  1.00  0.00     0.219 HD
ENDBRANCH  23  25
ENDBRANCH  19  23
ENDBRANCH  16  18
ENDBRANCH  14  16
ENDBRANCH   1  14
TORSDOF 13
ENDMDL
