MODEL 1
REMARK VINA RESULT: -5.251717845      0.000      0.000
REMARK  3 active torsions:
REMARK  status: ('A' for Active; 'I' for Inactive)
REMARK    1  A    between atoms: N1_1  and  C1_4 
REMARK    2  A    between atoms: C2_7  and  C3_8 
REMARK       I    between atoms: C3_8  and  N3_10 
REMARK    3  A    between atoms: N3_10  and  N4_12 
ROOT
HETATM    1  C1  UNL     1      38.795  31.309  48.545  1.00  0.00     0.691 A 
HETATM    2  N2  UNL     1      39.308  30.715  49.649  1.00  0.00    -0.180 N 
ATOM      3  H2  UNL     1      40.302  30.490  49.671  1.00  0.00     0.184 HD
HETATM    4  C2  UNL     1      38.547  30.413  50.718  1.00  0.00     0.187 A 
HETATM    5  C4  UNL     1      37.203  30.749  50.619  1.00  0.00     0.293 A 
HETATM    6  O2  UNL     1      36.474  30.481  51.595  1.00  0.00    -0.264 OA
HETATM    7  N5  UNL     1      36.682  31.340  49.527  1.00  0.00    -0.250 N 
ATOM      8  H5  UNL     1      35.690  31.574  49.485  1.00  0.00     0.191 HD
HETATM    9  N6  UNL     1      37.493  31.613  48.499  1.00  0.00    -0.130 N 
ATOM     10  H6  UNL     1      37.112  32.060  47.666  1.00  0.00     0.205 HD
ENDROOT
BRANCH   4  11
HETATM   11  C3  UNL     1      39.088  29.775  51.910  1.00  0.00     0.292 C 
HETATM   12  O1  UNL     1      40.044  30.301  52.524  1.00  0.00    -0.264 OA
HETATM   13  N3  UNL     1      38.540  28.564  52.376  1.00  0.00    -0.271 N 
ATOM     14  H3  UNL     1      37.762  28.147  51.865  1.00  0.00     0.189 HD
BRANCH  13  15
HETATM   15  N4  UNL     1      39.024  27.917  53.509  1.00  0.00    -0.342 N 
ATOM     16  H42 UNL     1      39.044  28.442  54.384  1.00  0.00     0.176 HD
ATOM     17  H41 UNL     1      39.351  26.951  53.487  1.00  0.00     0.176 HD
ENDBRANCH  13  15
ENDBRANCH   4  11
BRANCH   1  18
HETATM   18  N1  UNL     1      39.538  31.598  47.517  1.00  0.00    -0.233 N 
ATOM     19  H12 UNL     1      40.550  31.513  47.607  1.00  0.00     0.174 HD
ATOM     20  H11 UNL     1      39.133  31.904  46.632  1.00  0.00     0.174 HD
ENDBRANCH   1  18
TORSDOF 3
ENDMDL
MODEL 2
REMARK VINA RESULT: -5.006259983      1.208      1.208
REMARK  3 active torsions:
REMARK  status: ('A' for Active; 'I' for Inactive)
REMARK    1  A    between atoms: N1_1  and  C1_4 
REMARK    2  A    between atoms: C2_7  and  C3_8 
REMARK       I    between atoms: C3_8  and  N3_10 
REMARK    3  A    between atoms: N3_10  and  N4_12 
ROOT
HETATM    1  C1  UNL     1      38.797  31.331  48.771  1.00  0.00     0.691 A 
HETATM    2  N2  UNL     1      39.346  30.659  49.810  1.00  0.00    -0.180 N 
ATOM      3  H2  UNL     1      40.327  30.384  49.758  1.00  0.00     0.184 HD
HETATM    4  C2  UNL     1      38.637  30.341  50.911  1.00  0.00     0.187 A 
HETATM    5  C4  UNL     1      37.309  30.746  50.914  1.00  0.00     0.293 A 
HETATM    6  O2  UNL     1      36.628  30.464  51.920  1.00  0.00    -0.264 OA
HETATM    7  N5  UNL     1      36.753  31.415  49.886  1.00  0.00    -0.250 N 
ATOM      8  H5  UNL     1      35.773  31.699  49.918  1.00  0.00     0.191 HD
HETATM    9  N6  UNL     1      37.512  31.700  48.822  1.00  0.00    -0.130 N 
ATOM     10  H6  UNL     1      37.104  32.206  48.037  1.00  0.00     0.205 HD
ENDROOT
BRANCH   4  11
HETATM   11  C3  UNL     1      39.217  29.617  52.034  1.00  0.00     0.292 C 
HETATM   12  O1  UNL     1      38.610  28.640  52.530  1.00  0.00    -0.264 OA
HETATM   13  N3  UNL     1      40.458  30.012  52.567  1.00  0.00    -0.271 N 
ATOM     14  H3  UNL     1      40.940  30.810  52.153  1.00  0.00     0.189 HD
BRANCH  13  15
HETATM   15  N4  UNL     1      41.050  29.352  53.639  1.00  0.00    -0.342 N 
ATOM     16  H42 UNL     1      40.537  29.318  54.520  1.00  0.00     0.176 HD
ATOM     17  H41 UNL     1      41.967  28.909  53.568  1.00  0.00     0.176 HD
ENDBRANCH  13  15
ENDBRANCH   4  11
BRANCH   1  18
HETATM   18  N1  UNL     1      39.489  31.635  47.712  1.00  0.00    -0.233 N 
ATOM     19  H12 UNL     1      40.458  31.931  47.831  1.00  0.00     0.174 HD
ATOM     20  H11 UNL     1      39.087  31.583  46.776  1.00  0.00     0.174 HD
ENDBRANCH   1  18
TORSDOF 3
ENDMDL
MODEL 3
REMARK VINA RESULT: -5.002490854      1.784      4.104
REMARK  3 active torsions:
REMARK  status: ('A' for Active; 'I' for Inactive)
REMARK    1  A    between atoms: N1_1  and  C1_4 
REMARK    2  A    between atoms: C2_7  and  C3_8 
REMARK       I    between atoms: C3_8  and  N3_10 
REMARK    3  A    between atoms: N3_10  and  N4_12 
ROOT
HETATM    1  C1  UNL     1      38.195  29.543  51.660  1.00  0.00     0.691 A 
HETATM    2  N2  UNL     1      39.035  30.133  50.777  1.00  0.00    -0.180 N 
ATOM      3  H2  UNL     1      40.031  29.914  50.822  1.00  0.00     0.184 HD
HETATM    4  C2  UNL     1      38.599  30.998  49.842  1.00  0.00     0.187 A 
HETATM    5  C4  UNL     1      37.232  31.248  49.840  1.00  0.00     0.293 A 
HETATM    6  O2  UNL     1      36.800  32.047  48.985  1.00  0.00    -0.264 OA
HETATM    7  N5  UNL     1      36.388  30.668  50.713  1.00  0.00    -0.250 N 
ATOM      8  H5  UNL     1      35.388  30.873  50.686  1.00  0.00     0.191 HD
HETATM    9  N6  UNL     1      36.887  29.817  51.617  1.00  0.00    -0.130 N 
ATOM     10  H6  UNL     1      36.258  29.371  52.284  1.00  0.00     0.205 HD
ENDROOT
BRANCH   4  11
HETATM   11  C3  UNL     1      39.493  31.638  48.888  1.00  0.00     0.292 C 
HETATM   12  O1  UNL     1      40.374  32.432  49.290  1.00  0.00    -0.264 OA
HETATM   13  N3  UNL     1      39.372  31.369  47.512  1.00  0.00    -0.271 N 
ATOM     14  H3  UNL     1      38.649  30.721  47.199  1.00  0.00     0.189 HD
BRANCH  13  15
HETATM   15  N4  UNL     1      40.203  31.957  46.564  1.00  0.00    -0.342 N 
ATOM     16  H42 UNL     1      40.053  31.714  45.584  1.00  0.00     0.176 HD
ATOM     17  H41 UNL     1      40.943  32.611  46.818  1.00  0.00     0.176 HD
ENDBRANCH  13  15
ENDBRANCH   4  11
BRANCH   1  18
HETATM   18  N1  UNL     1      38.625  28.708  52.560  1.00  0.00    -0.233 N 
ATOM     19  H12 UNL     1      37.991  28.426  53.306  1.00  0.00     0.174 HD
ATOM     20  H11 UNL     1      39.574  28.332  52.534  1.00  0.00     0.174 HD
ENDBRANCH   1  18
TORSDOF 3
ENDMDL
MODEL 4
REMARK VINA RESULT: -4.883392110      2.143      4.414
REMARK  3 active torsions:
REMARK  status: ('A' for Active; 'I' for Inactive)
REMARK    1  A    between atoms: N1_1  and  C1_4 
REMARK    2  A    between atoms: C2_7  and  C3_8 
REMARK       I    between atoms: C3_8  and  N3_10 
REMARK    3  A    between atoms: N3_10  and  N4_12 
ROOT
HETATM    1  C1  UNL     1      38.671  29.563  51.543  1.00  0.00     0.691 A 
HETATM    2  N2  UNL     1      37.458  29.401  50.966  1.00  0.00    -0.180 N 
ATOM      3  H2  UNL     1      36.852  28.648  51.293  1.00  0.00     0.184 HD
HETATM    4  C2  UNL     1      37.024  30.202  49.974  1.00  0.00     0.187 A 
HETATM    5  C4  UNL     1      37.900  31.205  49.579  1.00  0.00     0.293 A 
HETATM    6  O2  UNL     1      37.524  31.962  48.662  1.00  0.00    -0.264 OA
HETATM    7  N5  UNL     1      39.109  31.377  50.146  1.00  0.00    -0.250 N 
ATOM      8  H5  UNL     1      39.730  32.124  49.834  1.00  0.00     0.191 HD
HETATM    9  N6  UNL     1      39.478  30.546  51.128  1.00  0.00    -0.130 N 
ATOM     10  H6  UNL     1      40.391  30.664  51.566  1.00  0.00     0.205 HD
ENDROOT
BRANCH   4  11
HETATM   11  C3  UNL     1      35.721  30.036  49.345  1.00  0.00     0.292 C 
HETATM   12  O1  UNL     1      34.695  29.909  50.053  1.00  0.00    -0.264 OA
HETATM   13  N3  UNL     1      35.608  30.017  47.942  1.00  0.00    -0.271 N 
ATOM     14  H3  UNL     1      36.452  30.121  47.379  1.00  0.00     0.189 HD
BRANCH  13  15
HETATM   15  N4  UNL     1      34.385  29.861  47.297  1.00  0.00    -0.342 N 
ATOM     16  H42 UNL     1      33.589  30.392  47.651  1.00  0.00     0.176 HD
ATOM     17  H41 UNL     1      34.266  29.241  46.495  1.00  0.00     0.176 HD
ENDBRANCH  13  15
ENDBRANCH   4  11
BRANCH   1  18
HETATM   18  N1  UNL     1      39.082  28.786  52.502  1.00  0.00    -0.233 N 
ATOM     19  H12 UNL     1      38.956  27.779  52.400  1.00  0.00     0.174 HD
ATOM     20  H11 UNL     1      39.523  29.158  53.343  1.00  0.00     0.174 HD
ENDBRANCH   1  18
TORSDOF 3
ENDMDL
MODEL 5
REMARK VINA RESULT: -4.738904898      2.064      4.228
REMARK  3 active torsions:
REMARK  status: ('A' for Active; 'I' for Inactive)
REMARK    1  A    between atoms: N1_1  and  C1_4 
REMARK    2  A    between atoms: C2_7  and  C3_8 
REMARK       I    between atoms: C3_8  and  N3_10 
REMARK    3  A    between atoms: N3_10  and  N4_12 
ROOT
HETATM    1  C1  UNL     1      38.733  29.492  51.640  1.00  0.00     0.691 A 
HETATM    2  N2  UNL     1      39.010  30.107  50.466  1.00  0.00    -0.180 N 
ATOM      3  H2  UNL     1      39.981  30.174  50.161  1.00  0.00     0.184 HD
HETATM    4  C2  UNL     1      38.044  30.632  49.687  1.00  0.00     0.187 A 
HETATM    5  C4  UNL     1      36.746  30.503  50.164  1.00  0.00     0.293 A 
HETATM    6  O2  UNL     1      35.831  30.981  49.463  1.00  0.00    -0.264 OA
HETATM    7  N5  UNL     1      36.458  29.894  51.329  1.00  0.00    -0.250 N 
ATOM      8  H5  UNL     1      35.493  29.816  51.652  1.00  0.00     0.191 HD
HETATM    9  N6  UNL     1      37.465  29.394  52.055  1.00  0.00    -0.130 N 
ATOM     10  H6  UNL     1      37.261  28.930  52.939  1.00  0.00     0.205 HD
ENDROOT
BRANCH   4  11
HETATM   11  C3  UNL     1      38.331  31.296  48.424  1.00  0.00     0.292 C 
HETATM   12  O1  UNL     1      37.393  31.626  47.662  1.00  0.00    -0.264 OA
HETATM   13  N3  UNL     1      39.661  31.568  48.051  1.00  0.00    -0.271 N 
ATOM     14  H3  UNL     1      40.415  31.292  48.681  1.00  0.00     0.189 HD
BRANCH  13  15
HETATM   15  N4  UNL     1      39.984  32.200  46.854  1.00  0.00    -0.342 N 
ATOM     16  H42 UNL     1      39.217  32.548  46.279  1.00  0.00     0.176 HD
ATOM     17  H41 UNL     1      40.948  32.321  46.544  1.00  0.00     0.176 HD
ENDBRANCH  13  15
ENDBRANCH   4  11
BRANCH   1  18
HETATM   18  N1  UNL     1      39.671  28.987  52.385  1.00  0.00    -0.233 N 
ATOM     19  H12 UNL     1      39.403  28.407  53.180  1.00  0.00     0.174 HD
ATOM     20  H11 UNL     1      40.659  29.157  52.193  1.00  0.00     0.174 HD
ENDBRANCH   1  18
TORSDOF 3
ENDMDL
