MODEL 1
REMARK VINA RESULT: -3.741389169      0.000      0.000
REMARK  2 active torsions:
REMARK  status: ('A' for Active; 'I' for Inactive)
REMARK    1  A    between atoms: C3_7  and  N3_8 
REMARK       I    between atoms: N4_11  and  C4_12 
REMARK    2  A    between atoms: C5_15  and  N6_16 
ROOT
HETATM    1  C1  UNL     1      39.463  30.673  51.650  1.00  0.00     0.180 C 
HETATM    2  N1  UNL     1      38.684  30.897  50.436  1.00  0.00    -0.136 N 
HETATM    3  C2  UNL     1      39.193  31.547  49.374  1.00  0.00     0.354 A 
HETATM    4  O1  UNL     1      40.378  31.975  49.426  1.00  0.00    -0.245 OA
HETATM    5  N2  UNL     1      38.428  31.728  48.275  1.00  0.00    -0.140 N 
ATOM      6  H2  UNL     1      38.801  32.219  47.462  1.00  0.00     0.189 HD
HETATM    7  C3  UNL     1      37.163  31.250  48.265  1.00  0.00     0.705 A 
HETATM    8  N4  UNL     1      36.665  30.603  49.331  1.00  0.00     0.073 N 
HETATM    9  C4  UNL     1      35.340  30.112  49.300  1.00  0.00     0.370 C 
HETATM   10  N5  UNL     1      34.506  30.277  48.175  1.00  0.00    -0.038 NA
HETATM   11  O2  UNL     1      34.891  29.510  50.305  1.00  0.00    -0.249 OA
HETATM   12  C5  UNL     1      37.419  30.420  50.425  1.00  0.00     0.707 A 
ENDROOT
BRANCH   7  13
HETATM   13  N3  UNL     1      36.436  31.419  47.227  1.00  0.00    -0.233 N 
ATOM     14  H32 UNL     1      36.731  32.072  46.502  1.00  0.00     0.174 HD
ATOM     15  H31 UNL     1      35.566  30.895  47.135  1.00  0.00     0.174 HD
ENDBRANCH   7  13
BRANCH  12  16
HETATM   16  N6  UNL     1      36.940  29.789  51.470  1.00  0.00    -0.233 N 
ATOM     17  H62 UNL     1      37.132  30.126  52.414  1.00  0.00     0.174 HD
ATOM     18  H61 UNL     1      36.369  28.953  51.350  1.00  0.00     0.174 HD
ENDBRANCH  12  16
TORSDOF 2
ENDMDL
MODEL 2
REMARK VINA RESULT: -3.449860939      1.013      3.608
REMARK  2 active torsions:
REMARK  status: ('A' for Active; 'I' for Inactive)
REMARK    1  A    between atoms: C3_7  and  N3_8 
REMARK       I    between atoms: N4_11  and  C4_12 
REMARK    2  A    between atoms: C5_15  and  N6_16 
ROOT
HETATM    1  C1  UNL     1      36.817  29.782  52.004  1.00  0.00     0.180 C 
HETATM    2  N1  UNL     1      36.937  30.320  50.652  1.00  0.00    -0.136 N 
HETATM    3  C2  UNL     1      35.905  30.312  49.790  1.00  0.00     0.354 A 
HETATM    4  O1  UNL     1      34.800  29.828  50.158  1.00  0.00    -0.245 OA
HETATM    5  N2  UNL     1      36.070  30.823  48.550  1.00  0.00    -0.140 N 
ATOM      6  H2  UNL     1      35.296  30.824  47.885  1.00  0.00     0.189 HD
HETATM    7  C3  UNL     1      37.273  31.332  48.200  1.00  0.00     0.705 A 
HETATM    8  N4  UNL     1      38.297  31.333  49.070  1.00  0.00     0.073 N 
HETATM    9  C4  UNL     1      39.546  31.870  48.684  1.00  0.00     0.370 C 
HETATM   10  N5  UNL     1      39.763  32.414  47.401  1.00  0.00    -0.038 NA
HETATM   11  O2  UNL     1      40.492  31.864  49.509  1.00  0.00    -0.249 OA
HETATM   12  C5  UNL     1      38.139  30.828  50.302  1.00  0.00     0.707 A 
ENDROOT
BRANCH   7  13
HETATM   13  N3  UNL     1      37.433  31.816  47.029  1.00  0.00    -0.233 N 
ATOM     14  H32 UNL     1      36.646  32.249  46.547  1.00  0.00     0.174 HD
ATOM     15  H31 UNL     1      38.351  31.763  46.587  1.00  0.00     0.174 HD
ENDBRANCH   7  13
BRANCH  12  16
HETATM   16  N6  UNL     1      39.134  30.827  51.157  1.00  0.00    -0.233 N 
ATOM     17  H62 UNL     1      39.134  30.190  51.953  1.00  0.00     0.174 HD
ATOM     18  H61 UNL     1      39.920  31.464  51.033  1.00  0.00     0.174 HD
ENDBRANCH  12  16
TORSDOF 2
ENDMDL
MODEL 3
REMARK VINA RESULT: -3.414382680      1.884      3.614
REMARK  2 active torsions:
REMARK  status: ('A' for Active; 'I' for Inactive)
REMARK    1  A    between atoms: C3_7  and  N3_8 
REMARK       I    between atoms: N4_11  and  C4_12 
REMARK    2  A    between atoms: C5_15  and  N6_16 
ROOT
HETATM    1  C1  UNL     1      35.108  30.086  48.497  1.00  0.00     0.180 C 
HETATM    2  N1  UNL     1      36.443  30.522  48.896  1.00  0.00    -0.136 N 
HETATM    3  C2  UNL     1      37.164  31.377  48.149  1.00  0.00     0.354 A 
HETATM    4  O1  UNL     1      36.675  31.816  47.073  1.00  0.00    -0.245 OA
HETATM    5  N2  UNL     1      38.396  31.747  48.564  1.00  0.00    -0.140 N 
ATOM      6  H2  UNL     1      38.955  32.395  48.008  1.00  0.00     0.189 HD
HETATM    7  C3  UNL     1      38.878  31.250  49.725  1.00  0.00     0.705 A 
HETATM    8  N4  UNL     1      38.149  30.397  50.463  1.00  0.00     0.073 N 
HETATM    9  C4  UNL     1      38.672  29.890  51.674  1.00  0.00     0.370 C 
HETATM   10  N5  UNL     1      39.952  30.249  52.145  1.00  0.00    -0.038 NA
HETATM   11  O2  UNL     1      37.977  29.094  52.350  1.00  0.00    -0.249 OA
HETATM   12  C5  UNL     1      36.926  30.026  50.056  1.00  0.00     0.707 A 
ENDROOT
BRANCH   7  13
HETATM   13  N3  UNL     1      40.042  31.598  50.121  1.00  0.00    -0.233 N 
ATOM     14  H32 UNL     1      40.709  31.990  49.456  1.00  0.00     0.174 HD
ATOM     15  H31 UNL     1      40.293  31.481  51.103  1.00  0.00     0.174 HD
ENDBRANCH   7  13
BRANCH  12  16
HETATM   16  N6  UNL     1      36.208  29.194  50.771  1.00  0.00    -0.233 N 
ATOM     17  H62 UNL     1      36.548  28.254  50.972  1.00  0.00     0.174 HD
ATOM     18  H61 UNL     1      35.299  29.479  51.135  1.00  0.00     0.174 HD
ENDBRANCH  12  16
TORSDOF 2
ENDMDL
MODEL 4
REMARK VINA RESULT: -3.387320741      1.120      2.710
REMARK  2 active torsions:
REMARK  status: ('A' for Active; 'I' for Inactive)
REMARK    1  A    between atoms: C3_7  and  N3_8 
REMARK       I    between atoms: N4_11  and  C4_12 
REMARK    2  A    between atoms: C5_15  and  N6_16 
ROOT
HETATM    1  C1  UNL     1      39.382  32.261  47.463  1.00  0.00     0.180 C 
HETATM    2  N1  UNL     1      38.774  31.620  48.625  1.00  0.00    -0.136 N 
HETATM    3  C2  UNL     1      39.446  31.451  49.778  1.00  0.00     0.354 A 
HETATM    4  O1  UNL     1      40.637  31.857  49.860  1.00  0.00    -0.245 OA
HETATM    5  N2  UNL     1      38.835  30.851  50.823  1.00  0.00    -0.140 N 
ATOM      6  H2  UNL     1      39.333  30.716  51.704  1.00  0.00     0.189 HD
HETATM    7  C3  UNL     1      37.556  30.432  50.689  1.00  0.00     0.705 A 
HETATM    8  N4  UNL     1      36.895  30.607  49.533  1.00  0.00     0.073 N 
HETATM    9  C4  UNL     1      35.559  30.161  49.414  1.00  0.00     0.370 C 
HETATM   10  N5  UNL     1      34.881  29.531  50.479  1.00  0.00    -0.038 NA
HETATM   11  O2  UNL     1      34.955  30.331  48.327  1.00  0.00    -0.249 OA
HETATM   12  C5  UNL     1      37.496  31.201  48.492  1.00  0.00     0.707 A 
ENDROOT
BRANCH   7  13
HETATM   13  N3  UNL     1      36.975  29.865  51.675  1.00  0.00    -0.233 N 
ATOM     14  H32 UNL     1      36.644  28.904  51.585  1.00  0.00     0.174 HD
ATOM     15  H31 UNL     1      36.848  30.381  52.546  1.00  0.00     0.174 HD
ENDBRANCH   7  13
BRANCH  12  16
HETATM   16  N6  UNL     1      36.856  31.375  47.361  1.00  0.00    -0.233 N 
ATOM     17  H62 UNL     1      35.876  31.658  47.356  1.00  0.00     0.174 HD
ATOM     18  H61 UNL     1      37.333  31.229  46.471  1.00  0.00     0.174 HD
ENDBRANCH  12  16
TORSDOF 2
ENDMDL
MODEL 5
REMARK VINA RESULT: -3.060069362      1.169      4.461
REMARK  2 active torsions:
REMARK  status: ('A' for Active; 'I' for Inactive)
REMARK    1  A    between atoms: C3_7  and  N3_8 
REMARK       I    between atoms: N4_11  and  C4_12 
REMARK    2  A    between atoms: C5_15  and  N6_16 
ROOT
HETATM    1  C1  UNL     1      34.744  30.420  48.262  1.00  0.00     0.180 C 
HETATM    2  N1  UNL     1      35.920  30.505  49.123  1.00  0.00    -0.136 N 
HETATM    3  C2  UNL     1      35.913  30.038  50.384  1.00  0.00     0.354 A 
HETATM    4  O1  UNL     1      34.861  29.511  50.838  1.00  0.00    -0.245 OA
HETATM    5  N2  UNL     1      37.029  30.143  51.139  1.00  0.00    -0.140 N 
ATOM      6  H2  UNL     1      37.038  29.793  52.097  1.00  0.00     0.189 HD
HETATM    7  C3  UNL     1      38.133  30.715  50.608  1.00  0.00     0.705 A 
HETATM    8  N4  UNL     1      38.128  31.177  49.347  1.00  0.00     0.073 N 
HETATM    9  C4  UNL     1      39.294  31.772  48.812  1.00  0.00     0.370 C 
HETATM   10  N5  UNL     1      40.481  31.902  49.563  1.00  0.00    -0.038 NA
HETATM   11  O2  UNL     1      39.272  32.199  47.633  1.00  0.00    -0.249 OA
HETATM   12  C5  UNL     1      37.024  31.077  48.594  1.00  0.00     0.707 A 
ENDROOT
BRANCH   7  13
HETATM   13  N3  UNL     1      39.191  30.815  51.318  1.00  0.00    -0.233 N 
ATOM     14  H32 UNL     1      39.199  30.450  52.271  1.00  0.00     0.174 HD
ATOM     15  H31 UNL     1      40.019  31.260  50.923  1.00  0.00     0.174 HD
ENDBRANCH   7  13
BRANCH  12  16
HETATM   16  N6  UNL     1      37.012  31.526  47.361  1.00  0.00    -0.233 N 
ATOM     17  H62 UNL     1      37.056  30.881  46.573  1.00  0.00     0.174 HD
ATOM     18  H61 UNL     1      36.957  32.527  47.178  1.00  0.00     0.174 HD
ENDBRANCH  12  16
TORSDOF 2
ENDMDL
