MODEL 1
REMARK VINA RESULT: -7.024519598      0.000      0.000
REMARK  7 active torsions:
REMARK  status: ('A' for Active; 'I' for Inactive)
REMARK    1  A    between atoms: N1_1  and  C1_5 
REMARK    2  A    between atoms: C1_5  and  C2_6 
REMARK    3  A    between atoms: C2_6  and  N2_7 
REMARK    4  A    between atoms: N2_7  and  C3_9 
REMARK    5  A    between atoms: N5_16  and  C7_18 
REMARK    6  A    between atoms: C7_18  and  C8_19 
REMARK    7  A    between atoms: C8_19  and  N6_20 
REMARK       I    between atoms: N6_20  and  C9_23 
REMARK       I    between atoms: C9_23  and  N7_24 
REMARK       I    between atoms: C9_23  and  N8_28 
ROOT
HETATM    1  C3  UNL     1       4.486 -14.811   5.017  1.00  0.00     0.120 A 
HETATM    2  C4  UNL     1       4.667 -13.659   5.765  1.00  0.00     0.094 A 
HETATM    3  C5  UNL     1       4.279 -12.435   5.269  1.00  0.00     0.135 A 
HETATM    4  N3  UNL     1       4.468 -11.238   6.052  1.00  0.00    -0.082 NA
HETATM    5  N4  UNL     1       3.721 -12.401   4.044  1.00  0.00    -0.179 N 
ATOM      6  H4  UNL     1       3.427 -11.501   3.662  1.00  0.00     0.185 HD
HETATM    7  C6  UNL     1       3.538 -13.509   3.303  1.00  0.00     0.680 A 
HETATM    8  N5  UNL     1       3.003 -13.468   2.135  1.00  0.00    -0.224 N 
ATOM      9  H5  UNL     1       2.892 -14.346   1.627  1.00  0.00     0.177 HD
HETATM   10  N9  UNL     1       3.926 -14.723   3.800  1.00  0.00    -0.177 N 
ATOM     11  H9  UNL     1       3.789 -15.567   3.243  1.00  0.00     0.185 HD
ENDROOT
BRANCH   8  12
HETATM   12  C7  UNL     1       2.554 -12.265   1.508  1.00  0.00     0.165 C 
BRANCH  12  13
HETATM   13  C8  UNL     1       2.959 -12.332   0.044  1.00  0.00     0.257 C 
BRANCH  13  14
HETATM   14  N6  UNL     1       4.128 -11.580  -0.273  1.00  0.00    -0.021 N 
HETATM   15  C9  UNL     1       5.336 -12.240   0.172  1.00  0.00     0.575 C 
HETATM   16  N7  UNL     1       6.498 -11.440  -0.192  1.00  0.00    -0.026 N 
HETATM   17  N8  UNL     1       5.444 -13.506  -0.506  1.00  0.00    -0.026 N 
ATOM     18  H73 UNL     1       6.521 -11.230  -1.190  1.00  0.00     0.278 HD
ATOM     19  H72 UNL     1       6.431 -10.485   0.159  1.00  0.00     0.278 HD
ATOM     20  H71 UNL     1       7.349 -11.906   0.122  1.00  0.00     0.278 HD
ATOM     21  H83 UNL     1       4.615 -14.087  -0.385  1.00  0.00     0.278 HD
ATOM     22  H82 UNL     1       5.403 -13.411  -1.521  1.00  0.00     0.278 HD
ATOM     23  H81 UNL     1       6.296 -13.972  -0.192  1.00  0.00     0.278 HD
ATOM     24  H62 UNL     1       4.171 -11.364  -1.270  1.00  0.00     0.281 HD
ATOM     25  H61 UNL     1       4.068 -10.630   0.095  1.00  0.00     0.281 HD
ENDBRANCH  13  14
ENDBRANCH  12  13
ENDBRANCH   8  12
BRANCH   1  26
HETATM   26  N2  UNL     1       4.865 -15.944   5.522  1.00  0.00    -0.374 N 
ATOM     27  H2  UNL     1       5.372 -15.910   6.407  1.00  0.00     0.161 HD
BRANCH  26  28
HETATM   28  C2  UNL     1       4.637 -17.229   4.954  1.00  0.00     0.148 C 
BRANCH  28  29
HETATM   29  C1  UNL     1       5.774 -17.732   4.093  1.00  0.00     0.249 C 
BRANCH  29  30
HETATM   30  N1  UNL     1       5.187 -18.098   2.801  1.00  0.00    -0.078 N 
ATOM     31  H13 UNL     1       5.749 -18.770   2.279  1.00  0.00     0.274 HD
ATOM     32  H12 UNL     1       4.349 -18.672   2.886  1.00  0.00     0.274 HD
ATOM     33  H11 UNL     1       5.030 -17.225   2.297  1.00  0.00     0.274 HD
ENDBRANCH  29  30
ENDBRANCH  28  29
ENDBRANCH  26  28
ENDBRANCH   1  26
TORSDOF 7
ENDMDL
MODEL 2
REMARK VINA RESULT: -6.960493339      2.192      4.350
REMARK  7 active torsions:
REMARK  status: ('A' for Active; 'I' for Inactive)
REMARK    1  A    between atoms: N1_1  and  C1_5 
REMARK    2  A    between atoms: C1_5  and  C2_6 
REMARK    3  A    between atoms: C2_6  and  N2_7 
REMARK    4  A    between atoms: N2_7  and  C3_9 
REMARK    5  A    between atoms: N5_16  and  C7_18 
REMARK    6  A    between atoms: C7_18  and  C8_19 
REMARK    7  A    between atoms: C8_19  and  N6_20 
REMARK       I    between atoms: N6_20  and  C9_23 
REMARK       I    between atoms: C9_23  and  N7_24 
REMARK       I    between atoms: C9_23  and  N8_28 
ROOT
HETATM    1  C3  UNL     1       5.706 -16.517   2.871  1.00  0.00     0.120 A 
HETATM    2  C4  UNL     1       6.085 -16.621   1.543  1.00  0.00     0.094 A 
HETATM    3  C5  UNL     1       5.599 -15.738   0.605  1.00  0.00     0.135 A 
HETATM    4  N3  UNL     1       5.999 -15.850  -0.777  1.00  0.00    -0.082 NA
HETATM    5  N4  UNL     1       4.750 -14.781   1.024  1.00  0.00    -0.179 N 
ATOM      6  H4  UNL     1       4.381 -14.118   0.341  1.00  0.00     0.185 HD
HETATM    7  C6  UNL     1       4.370 -14.665   2.308  1.00  0.00     0.680 A 
HETATM    8  N5  UNL     1       3.561 -13.746   2.701  1.00  0.00    -0.224 N 
ATOM      9  H5  UNL     1       3.313 -13.714   3.690  1.00  0.00     0.177 HD
HETATM   10  N9  UNL     1       4.856 -15.545   3.237  1.00  0.00    -0.177 N 
ATOM     11  H9  UNL     1       4.571 -15.461   4.213  1.00  0.00     0.185 HD
ENDROOT
BRANCH   8  12
HETATM   12  C7  UNL     1       2.988 -12.767   1.831  1.00  0.00     0.165 C 
BRANCH  12  13
HETATM   13  C8  UNL     1       2.410 -11.662   2.701  1.00  0.00     0.257 C 
BRANCH  13  14
HETATM   14  N6  UNL     1       2.995 -11.576   3.999  1.00  0.00    -0.021 N 
HETATM   15  C9  UNL     1       3.393 -10.224   4.327  1.00  0.00     0.575 C 
HETATM   16  N7  UNL     1       3.966 -10.190   5.666  1.00  0.00    -0.026 N 
HETATM   17  N8  UNL     1       2.221  -9.388   4.330  1.00  0.00    -0.026 N 
ATOM     18  H73 UNL     1       3.335 -10.584   6.363  1.00  0.00     0.278 HD
ATOM     19  H72 UNL     1       4.735 -10.853   5.771  1.00  0.00     0.278 HD
ATOM     20  H71 UNL     1       4.246  -9.237   5.897  1.00  0.00     0.278 HD
ATOM     21  H83 UNL     1       1.701  -9.440   3.453  1.00  0.00     0.278 HD
ATOM     22  H82 UNL     1       1.490  -9.741   4.948  1.00  0.00     0.278 HD
ATOM     23  H81 UNL     1       2.501  -8.435   4.561  1.00  0.00     0.278 HD
ATOM     24  H62 UNL     1       2.374 -11.961   4.711  1.00  0.00     0.281 HD
ATOM     25  H61 UNL     1       3.776 -12.226   4.097  1.00  0.00     0.281 HD
ENDBRANCH  13  14
ENDBRANCH  12  13
ENDBRANCH   8  12
BRANCH   1  26
HETATM   26  N2  UNL     1       6.188 -17.369   3.722  1.00  0.00    -0.374 N 
ATOM     27  H2  UNL     1       7.152 -17.671   3.579  1.00  0.00     0.161 HD
BRANCH  26  28
HETATM   28  C2  UNL     1       5.494 -17.919   4.837  1.00  0.00     0.148 C 
BRANCH  28  29
HETATM   29  C1  UNL     1       6.143 -17.627   6.172  1.00  0.00     0.249 C 
BRANCH  29  30
HETATM   30  N1  UNL     1       5.454 -16.458   6.723  1.00  0.00    -0.078 N 
ATOM     31  H13 UNL     1       4.687 -16.128   6.137  1.00  0.00     0.274 HD
ATOM     32  H12 UNL     1       4.898 -16.670   7.552  1.00  0.00     0.274 HD
ATOM     33  H11 UNL     1       6.170 -15.749   6.887  1.00  0.00     0.274 HD
ENDBRANCH  29  30
ENDBRANCH  28  29
ENDBRANCH  26  28
ENDBRANCH   1  26
TORSDOF 7
ENDMDL
MODEL 3
REMARK VINA RESULT: -6.926268525      1.938      5.439
REMARK  7 active torsions:
REMARK  status: ('A' for Active; 'I' for Inactive)
REMARK    1  A    between atoms: N1_1  and  C1_5 
REMARK    2  A    between atoms: C1_5  and  C2_6 
REMARK    3  A    between atoms: C2_6  and  N2_7 
REMARK    4  A    between atoms: N2_7  and  C3_9 
REMARK    5  A    between atoms: N5_16  and  C7_18 
REMARK    6  A    between atoms: C7_18  and  C8_19 
REMARK    7  A    between atoms: C8_19  and  N6_20 
REMARK       I    between atoms: N6_20  and  C9_23 
REMARK       I    between atoms: C9_23  and  N7_24 
REMARK       I    between atoms: C9_23  and  N8_28 
ROOT
HETATM    1  C3  UNL     1       2.946 -12.690   2.806  1.00  0.00     0.120 A 
HETATM    2  C4  UNL     1       3.329 -11.825   3.818  1.00  0.00     0.094 A 
HETATM    3  C5  UNL     1       4.001 -12.296   4.924  1.00  0.00     0.135 A 
HETATM    4  N3  UNL     1       4.400 -11.392   5.975  1.00  0.00    -0.082 NA
HETATM    5  N4  UNL     1       4.270 -13.614   4.982  1.00  0.00    -0.179 N 
ATOM      6  H4  UNL     1       4.768 -13.979   5.794  1.00  0.00     0.185 HD
HETATM    7  C6  UNL     1       3.905 -14.468   4.009  1.00  0.00     0.680 A 
HETATM    8  N5  UNL     1       4.168 -15.726   4.071  1.00  0.00    -0.224 N 
ATOM      9  H5  UNL     1       3.863 -16.318   3.298  1.00  0.00     0.177 HD
HETATM   10  N9  UNL     1       3.237 -13.995   2.912  1.00  0.00    -0.177 N 
ATOM     11  H9  UNL     1       2.958 -14.639   2.171  1.00  0.00     0.185 HD
ENDROOT
BRANCH   8  12
HETATM   12  C7  UNL     1       4.861 -16.340   5.159  1.00  0.00     0.165 C 
BRANCH  12  13
HETATM   13  C8  UNL     1       5.191 -17.766   4.746  1.00  0.00     0.257 C 
BRANCH  13  14
HETATM   14  N6  UNL     1       4.912 -18.056   3.378  1.00  0.00    -0.021 N 
HETATM   15  C9  UNL     1       6.088 -18.507   2.667  1.00  0.00     0.575 C 
HETATM   16  N7  UNL     1       5.743 -18.805   1.283  1.00  0.00    -0.026 N 
HETATM   17  N8  UNL     1       6.555 -19.725   3.276  1.00  0.00    -0.026 N 
ATOM     18  H73 UNL     1       4.975 -19.472   1.215  1.00  0.00     0.278 HD
ATOM     19  H72 UNL     1       5.295 -18.014   0.821  1.00  0.00     0.278 HD
ATOM     20  H71 UNL     1       6.573 -19.123   0.782  1.00  0.00     0.278 HD
ATOM     21  H83 UNL     1       6.719 -19.624   4.278  1.00  0.00     0.278 HD
ATOM     22  H82 UNL     1       5.829 -20.441   3.324  1.00  0.00     0.278 HD
ATOM     23  H81 UNL     1       7.384 -20.043   2.775  1.00  0.00     0.278 HD
ATOM     24  H62 UNL     1       4.147 -18.727   3.290  1.00  0.00     0.281 HD
ATOM     25  H61 UNL     1       4.480 -17.258   2.911  1.00  0.00     0.281 HD
ENDBRANCH  13  14
ENDBRANCH  12  13
ENDBRANCH   8  12
BRANCH   1  26
HETATM   26  N2  UNL     1       2.316 -12.204   1.782  1.00  0.00    -0.374 N 
ATOM     27  H2  UNL     1       1.301 -12.129   1.854  1.00  0.00     0.161 HD
BRANCH  26  28
HETATM   28  C2  UNL     1       2.913 -11.766   0.566  1.00  0.00     0.148 C 
BRANCH  28  29
HETATM   29  C1  UNL     1       3.029 -12.845  -0.487  1.00  0.00     0.249 C 
BRANCH  29  30
HETATM   30  N1  UNL     1       1.669 -13.120  -0.955  1.00  0.00    -0.078 N 
ATOM     31  H13 UNL     1       1.565 -13.037  -1.966  1.00  0.00     0.274 HD
ATOM     32  H12 UNL     1       1.407 -14.103  -0.880  1.00  0.00     0.274 HD
ATOM     33  H11 UNL     1       1.051 -12.496  -0.433  1.00  0.00     0.274 HD
ENDBRANCH  29  30
ENDBRANCH  28  29
ENDBRANCH  26  28
ENDBRANCH   1  26
TORSDOF 7
ENDMDL
MODEL 4
REMARK VINA RESULT: -6.856589810      1.401      5.463
REMARK  7 active torsions:
REMARK  status: ('A' for Active; 'I' for Inactive)
REMARK    1  A    between atoms: N1_1  and  C1_5 
REMARK    2  A    between atoms: C1_5  and  C2_6 
REMARK    3  A    between atoms: C2_6  and  N2_7 
REMARK    4  A    between atoms: N2_7  and  C3_9 
REMARK    5  A    between atoms: N5_16  and  C7_18 
REMARK    6  A    between atoms: C7_18  and  C8_19 
REMARK    7  A    between atoms: C8_19  and  N6_20 
REMARK       I    between atoms: N6_20  and  C9_23 
REMARK       I    between atoms: C9_23  and  N7_24 
REMARK       I    between atoms: C9_23  and  N8_28 
ROOT
HETATM    1  C3  UNL     1       3.036 -12.670   2.733  1.00  0.00     0.120 A 
HETATM    2  C4  UNL     1       3.390 -11.813   3.762  1.00  0.00     0.094 A 
HETATM    3  C5  UNL     1       4.019 -12.294   4.889  1.00  0.00     0.135 A 
HETATM    4  N3  UNL     1       4.388 -11.397   5.957  1.00  0.00    -0.082 NA
HETATM    5  N4  UNL     1       4.273 -13.615   4.951  1.00  0.00    -0.179 N 
ATOM      6  H4  UNL     1       4.739 -13.987   5.779  1.00  0.00     0.185 HD
HETATM    7  C6  UNL     1       3.936 -14.462   3.962  1.00  0.00     0.680 A 
HETATM    8  N5  UNL     1       4.185 -15.722   4.028  1.00  0.00    -0.224 N 
ATOM      9  H5  UNL     1       3.903 -16.309   3.243  1.00  0.00     0.177 HD
HETATM   10  N9  UNL     1       3.311 -13.979   2.844  1.00  0.00    -0.177 N 
ATOM     11  H9  UNL     1       3.053 -14.617   2.091  1.00  0.00     0.185 HD
ENDROOT
BRANCH   8  12
HETATM   12  C7  UNL     1       4.834 -16.346   5.138  1.00  0.00     0.165 C 
BRANCH  12  13
HETATM   13  C8  UNL     1       5.267 -17.735   4.693  1.00  0.00     0.257 C 
BRANCH  13  14
HETATM   14  N6  UNL     1       4.940 -18.042   3.339  1.00  0.00    -0.021 N 
HETATM   15  C9  UNL     1       6.093 -18.497   2.592  1.00  0.00     0.575 C 
HETATM   16  N7  UNL     1       5.701 -18.813   1.225  1.00  0.00    -0.026 N 
HETATM   17  N8  UNL     1       6.585 -19.707   3.199  1.00  0.00    -0.026 N 
ATOM     18  H73 UNL     1       4.933 -19.483   1.192  1.00  0.00     0.278 HD
ATOM     19  H72 UNL     1       5.233 -18.029   0.770  1.00  0.00     0.278 HD
ATOM     20  H71 UNL     1       6.513 -19.134   0.699  1.00  0.00     0.278 HD
ATOM     21  H83 UNL     1       6.784 -19.593   4.193  1.00  0.00     0.278 HD
ATOM     22  H82 UNL     1       5.864 -20.425   3.281  1.00  0.00     0.278 HD
ATOM     23  H81 UNL     1       7.398 -20.028   2.673  1.00  0.00     0.278 HD
ATOM     24  H62 UNL     1       4.176 -18.716   3.287  1.00  0.00     0.281 HD
ATOM     25  H61 UNL     1       4.490 -17.251   2.879  1.00  0.00     0.281 HD
ENDBRANCH  13  14
ENDBRANCH  12  13
ENDBRANCH   8  12
BRANCH   1  26
HETATM   26  N2  UNL     1       2.446 -12.175   1.690  1.00  0.00    -0.374 N 
ATOM     27  H2  UNL     1       1.440 -12.019   1.755  1.00  0.00     0.161 HD
BRANCH  26  28
HETATM   28  C2  UNL     1       3.077 -11.830   0.460  1.00  0.00     0.148 C 
BRANCH  28  29
HETATM   29  C1  UNL     1       4.587 -11.878   0.508  1.00  0.00     0.249 C 
BRANCH  29  30
HETATM   30  N1  UNL     1       5.042 -10.498   0.691  1.00  0.00    -0.078 N 
ATOM     31  H13 UNL     1       5.951 -10.313   0.268  1.00  0.00     0.274 HD
ATOM     32  H12 UNL     1       4.508  -9.821   0.146  1.00  0.00     0.274 HD
ATOM     33  H11 UNL     1       5.020 -10.315   1.695  1.00  0.00     0.274 HD
ENDBRANCH  29  30
ENDBRANCH  28  29
ENDBRANCH  26  28
ENDBRANCH   1  26
TORSDOF 7
ENDMDL
MODEL 5
REMARK VINA RESULT: -6.854961377      1.825      5.184
REMARK  7 active torsions:
REMARK  status: ('A' for Active; 'I' for Inactive)
REMARK    1  A    between atoms: N1_1  and  C1_5 
REMARK    2  A    between atoms: C1_5  and  C2_6 
REMARK    3  A    between atoms: C2_6  and  N2_7 
REMARK    4  A    between atoms: N2_7  and  C3_9 
REMARK    5  A    between atoms: N5_16  and  C7_18 
REMARK    6  A    between atoms: C7_18  and  C8_19 
REMARK    7  A    between atoms: C8_19  and  N6_20 
REMARK       I    between atoms: N6_20  and  C9_23 
REMARK       I    between atoms: C9_23  and  N7_24 
REMARK       I    between atoms: C9_23  and  N8_28 
ROOT
HETATM    1  C3  UNL     1       3.922 -12.839   3.262  1.00  0.00     0.120 A 
HETATM    2  C4  UNL     1       4.004 -12.591   4.622  1.00  0.00     0.094 A 
HETATM    3  C5  UNL     1       4.400 -13.584   5.491  1.00  0.00     0.135 A 
HETATM    4  N3  UNL     1       4.486 -13.321   6.907  1.00  0.00    -0.082 NA
HETATM    5  N4  UNL     1       4.701 -14.790   4.973  1.00  0.00    -0.179 N 
ATOM      6  H4  UNL     1       4.996 -15.535   5.603  1.00  0.00     0.185 HD
HETATM    7  C6  UNL     1       4.626 -15.048   3.655  1.00  0.00     0.680 A 
HETATM    8  N5  UNL     1       4.918 -16.202   3.168  1.00  0.00    -0.224 N 
ATOM      9  H5  UNL     1       4.840 -16.330   2.159  1.00  0.00     0.177 HD
HETATM   10  N9  UNL     1       4.232 -14.058   2.795  1.00  0.00    -0.177 N 
ATOM     11  H9  UNL     1       4.173 -14.249   1.795  1.00  0.00     0.185 HD
ENDROOT
BRANCH   8  12
HETATM   12  C7  UNL     1       5.344 -17.313   3.959  1.00  0.00     0.165 C 
BRANCH  12  13
HETATM   13  C8  UNL     1       6.421 -18.047   3.175  1.00  0.00     0.257 C 
BRANCH  13  14
HETATM   14  N6  UNL     1       6.730 -17.456   1.914  1.00  0.00    -0.021 N 
HETATM   15  C9  UNL     1       6.883 -18.447   0.872  1.00  0.00     0.575 C 
HETATM   16  N7  UNL     1       7.179 -17.789  -0.394  1.00  0.00    -0.026 N 
HETATM   17  N8  UNL     1       5.637 -19.151   0.721  1.00  0.00    -0.026 N 
ATOM     18  H73 UNL     1       6.480 -17.086  -0.633  1.00  0.00     0.278 HD
ATOM     19  H72 UNL     1       7.991 -17.175  -0.326  1.00  0.00     0.278 HD
ATOM     20  H71 UNL     1       7.287 -18.489  -1.128  1.00  0.00     0.278 HD
ATOM     21  H83 UNL     1       5.306 -19.554   1.597  1.00  0.00     0.278 HD
ATOM     22  H82 UNL     1       4.851 -18.523   0.550  1.00  0.00     0.278 HD
ATOM     23  H81 UNL     1       5.744 -19.850  -0.014  1.00  0.00     0.278 HD
ATOM     24  H62 UNL     1       6.038 -16.752   1.656  1.00  0.00     0.281 HD
ATOM     25  H61 UNL     1       7.553 -16.856   1.978  1.00  0.00     0.281 HD
ENDBRANCH  13  14
ENDBRANCH  12  13
ENDBRANCH   8  12
BRANCH   1  26
HETATM   26  N2  UNL     1       3.546 -11.876   2.479  1.00  0.00    -0.374 N 
ATOM     27  H2  UNL     1       3.424 -10.955   2.901  1.00  0.00     0.161 HD
BRANCH  26  28
HETATM   28  C2  UNL     1       3.287 -11.987   1.083  1.00  0.00     0.148 C 
BRANCH  28  29
HETATM   29  C1  UNL     1       4.497 -11.737   0.210  1.00  0.00     0.249 C 
BRANCH  29  30
HETATM   30  N1  UNL     1       5.111 -10.499   0.695  1.00  0.00    -0.078 N 
ATOM     31  H13 UNL     1       4.442  -9.855   1.115  1.00  0.00     0.274 HD
ATOM     32  H12 UNL     1       5.694 -10.634   1.521  1.00  0.00     0.274 HD
ATOM     33  H11 UNL     1       5.617 -10.098  -0.095  1.00  0.00     0.274 HD
ENDBRANCH  29  30
ENDBRANCH  28  29
ENDBRANCH  26  28
ENDBRANCH   1  26
TORSDOF 7
ENDMDL
