MODEL 1
REMARK VINA RESULT: -6.913312713      0.000      0.000
REMARK  8 active torsions:
REMARK  status: ('A' for Active; 'I' for Inactive)
REMARK    1  A    between atoms: C2_2  and  N1_3 
REMARK    2  A    between atoms: N1_3  and  C3_5 
REMARK    3  A    between atoms: C3_5  and  C4_6 
REMARK    4  A    between atoms: C4_6  and  O1_7 
REMARK    5  A    between atoms: O1_7  and  C5_8 
REMARK    6  A    between atoms: C5_8  and  C6_9 
REMARK    7  A    between atoms: N5_20  and  N6_22 
REMARK    8  A    between atoms: C9_25  and  O3_26 
ROOT
HETATM    1  C6  UNL     1       3.102 -12.008   2.526  1.00  0.00     0.192 C 
HETATM    2  O2  UNL     1       2.861 -10.761   3.159  1.00  0.00    -0.311 OA
HETATM    3  C7  UNL     1       3.360 -10.364   4.389  1.00  0.00     0.232 C 
HETATM    4  N2  UNL     1       3.268  -9.118   4.685  1.00  0.00    -0.364 N 
ATOM      5  H21 UNL     1       3.635  -8.827   5.591  1.00  0.00     0.159 HD
ATOM      6  H22 UNL     1       2.827  -8.553   3.959  1.00  0.00     0.159 HD
HETATM    7  N3  UNL     1       3.985 -11.165   5.417  1.00  0.00    -0.264 N 
ATOM      8  H3  UNL     1       4.343 -10.688   6.244  1.00  0.00     0.190 HD
HETATM    9  N4  UNL     1       4.128 -12.569   5.344  1.00  0.00    -0.283 N 
ATOM     10  H4  UNL     1       4.682 -12.986   6.093  1.00  0.00     0.188 HD
HETATM   11  C8  UNL     1       3.620 -13.490   4.390  1.00  0.00     0.142 C 
HETATM   12  N5  UNL     1       4.043 -14.690   4.340  1.00  0.00    -0.292 N 
ATOM     13  H5  UNL     1       3.655 -15.323   3.640  1.00  0.00     0.187 HD
HETATM   14  C9  UNL     1       2.556 -13.106   3.379  1.00  0.00     0.219 C 
ENDROOT
BRANCH   1  15
HETATM   15  C5  UNL     1       2.553 -11.999   1.119  1.00  0.00     0.203 C 
BRANCH  15  16
HETATM   16  O1  UNL     1       2.976 -13.069   0.383  1.00  0.00    -0.387 OA
BRANCH  16  17
HETATM   17  C4  UNL     1       4.188 -12.915  -0.209  1.00  0.00     0.186 C 
BRANCH  17  18
HETATM   18  C3  UNL     1       5.039 -14.142  -0.165  1.00  0.00     0.140 C 
BRANCH  18  19
HETATM   19  N1  UNL     1       4.916 -14.855   1.092  1.00  0.00    -0.419 N 
ATOM     20  H1  UNL     1       4.270 -14.565   1.826  1.00  0.00     0.153 HD
BRANCH  19  21
HETATM   21  C2  UNL     1       5.765 -15.990   1.225  1.00  0.00     0.109 C 
HETATM   22  C1  UNL     1       6.158 -16.494  -0.150  1.00  0.00     0.026 C 
ENDBRANCH  19  21
ENDBRANCH  18  19
ENDBRANCH  17  18
ENDBRANCH  16  17
ENDBRANCH  15  16
ENDBRANCH   1  15
BRANCH  14  23
HETATM   23  O3  UNL     1       2.165 -14.238   2.671  1.00  0.00    -0.385 OA
ATOM     24  H3  UNL     1       2.346 -15.058   3.116  1.00  0.00     0.210 HD
ENDBRANCH  14  23
BRANCH  12  25
HETATM   25  N6  UNL     1       5.008 -15.159   5.203  1.00  0.00    -0.344 N 
ATOM     26  H62 UNL     1       4.823 -16.030   5.700  1.00  0.00     0.176 HD
ATOM     27  H61 UNL     1       5.886 -14.662   5.352  1.00  0.00     0.176 HD
ENDBRANCH  12  25
TORSDOF 8
ENDMDL
MODEL 2
REMARK VINA RESULT: -6.781220881      2.652      4.622
REMARK  8 active torsions:
REMARK  status: ('A' for Active; 'I' for Inactive)
REMARK    1  A    between atoms: C2_2  and  N1_3 
REMARK    2  A    between atoms: N1_3  and  C3_5 
REMARK    3  A    between atoms: C3_5  and  C4_6 
REMARK    4  A    between atoms: C4_6  and  O1_7 
REMARK    5  A    between atoms: O1_7  and  C5_8 
REMARK    6  A    between atoms: C5_8  and  C6_9 
REMARK    7  A    between atoms: N5_20  and  N6_22 
REMARK    8  A    between atoms: C9_25  and  O3_26 
ROOT
HETATM    1  C6  UNL     1       5.025 -13.744   0.815  1.00  0.00     0.192 C 
HETATM    2  O2  UNL     1       5.958 -13.000   0.044  1.00  0.00    -0.311 OA
HETATM    3  C7  UNL     1       6.151 -11.630   0.104  1.00  0.00     0.232 C 
HETATM    4  N2  UNL     1       7.207 -11.162  -0.457  1.00  0.00    -0.364 N 
ATOM      5  H21 UNL     1       7.349 -10.153  -0.414  1.00  0.00     0.159 HD
ATOM      6  H22 UNL     1       7.794 -11.874  -0.891  1.00  0.00     0.159 HD
HETATM    7  N3  UNL     1       5.320 -10.621   0.718  1.00  0.00    -0.264 N 
ATOM      8  H3  UNL     1       5.651  -9.656   0.710  1.00  0.00     0.190 HD
HETATM    9  N4  UNL     1       4.074 -10.891   1.330  1.00  0.00    -0.283 N 
ATOM     10  H4  UNL     1       3.650 -10.099   1.813  1.00  0.00     0.188 HD
HETATM   11  C8  UNL     1       3.322 -12.094   1.375  1.00  0.00     0.142 C 
HETATM   12  N5  UNL     1       2.336 -12.228   2.171  1.00  0.00    -0.292 N 
ATOM     13  H5  UNL     1       1.819 -13.107   2.175  1.00  0.00     0.187 HD
HETATM   14  C9  UNL     1       3.642 -13.284   0.490  1.00  0.00     0.219 C 
ENDROOT
BRANCH   1  15
HETATM   15  C5  UNL     1       5.239 -15.225   0.613  1.00  0.00     0.203 C 
BRANCH  15  16
HETATM   16  O1  UNL     1       4.925 -15.957   1.723  1.00  0.00    -0.387 OA
BRANCH  16  17
HETATM   17  C4  UNL     1       5.239 -15.370   2.906  1.00  0.00     0.186 C 
BRANCH  17  18
HETATM   18  C3  UNL     1       4.784 -16.143   4.100  1.00  0.00     0.140 C 
BRANCH  18  19
HETATM   19  N1  UNL     1       4.728 -15.328   5.298  1.00  0.00    -0.419 N 
ATOM     20  H1  UNL     1       4.993 -15.684   6.217  1.00  0.00     0.153 HD
BRANCH  19  21
HETATM   21  C2  UNL     1       4.276 -13.993   5.097  1.00  0.00     0.109 C 
HETATM   22  C1  UNL     1       4.627 -13.150   6.307  1.00  0.00     0.026 C 
ENDBRANCH  19  21
ENDBRANCH  18  19
ENDBRANCH  17  18
ENDBRANCH  16  17
ENDBRANCH  15  16
ENDBRANCH   1  15
BRANCH  14  23
HETATM   23  O3  UNL     1       2.663 -14.259   0.659  1.00  0.00    -0.385 OA
ATOM     24  H3  UNL     1       2.086 -14.108   1.399  1.00  0.00     0.210 HD
ENDBRANCH  14  23
BRANCH  12  25
HETATM   25  N6  UNL     1       1.947 -11.220   3.024  1.00  0.00    -0.344 N 
ATOM     26  H62 UNL     1       2.626 -10.492   3.245  1.00  0.00     0.176 HD
ATOM     27  H61 UNL     1       1.013 -11.189   3.432  1.00  0.00     0.176 HD
ENDBRANCH  12  25
TORSDOF 8
ENDMDL
MODEL 3
REMARK VINA RESULT: -6.738718018      2.343      3.993
REMARK  8 active torsions:
REMARK  status: ('A' for Active; 'I' for Inactive)
REMARK    1  A    between atoms: C2_2  and  N1_3 
REMARK    2  A    between atoms: N1_3  and  C3_5 
REMARK    3  A    between atoms: C3_5  and  C4_6 
REMARK    4  A    between atoms: C4_6  and  O1_7 
REMARK    5  A    between atoms: O1_7  and  C5_8 
REMARK    6  A    between atoms: C5_8  and  C6_9 
REMARK    7  A    between atoms: N5_20  and  N6_22 
REMARK    8  A    between atoms: C9_25  and  O3_26 
ROOT
HETATM    1  C6  UNL     1       4.391 -13.470   2.887  1.00  0.00     0.192 C 
HETATM    2  O2  UNL     1       3.705 -13.830   1.698  1.00  0.00    -0.311 OA
HETATM    3  C7  UNL     1       2.907 -12.992   0.935  1.00  0.00     0.232 C 
HETATM    4  N2  UNL     1       2.586 -13.398  -0.239  1.00  0.00    -0.364 N 
ATOM      5  H21 UNL     1       1.998 -12.781  -0.801  1.00  0.00     0.159 HD
ATOM      6  H22 UNL     1       2.966 -14.314  -0.478  1.00  0.00     0.159 HD
HETATM    7  N3  UNL     1       2.369 -11.695   1.273  1.00  0.00    -0.264 N 
ATOM      8  H3  UNL     1       1.842 -11.193   0.558  1.00  0.00     0.190 HD
HETATM    9  N4  UNL     1       2.530 -11.078   2.535  1.00  0.00    -0.283 N 
ATOM     10  H4  UNL     1       2.186 -10.120   2.595  1.00  0.00     0.188 HD
HETATM   11  C8  UNL     1       3.096 -11.589   3.734  1.00  0.00     0.142 C 
HETATM   12  N5  UNL     1       3.379 -10.821   4.710  1.00  0.00    -0.292 N 
ATOM     13  H5  UNL     1       3.784 -11.223   5.555  1.00  0.00     0.187 HD
HETATM   14  C9  UNL     1       3.397 -13.063   3.925  1.00  0.00     0.219 C 
ENDROOT
BRANCH   1  15
HETATM   15  C5  UNL     1       5.306 -14.589   3.325  1.00  0.00     0.203 C 
BRANCH  15  16
HETATM   16  O1  UNL     1       4.633 -15.608   3.940  1.00  0.00    -0.387 OA
BRANCH  16  17
HETATM   17  C4  UNL     1       5.090 -16.853   3.651  1.00  0.00     0.186 C 
BRANCH  17  18
HETATM   18  C3  UNL     1       5.510 -17.024   2.228  1.00  0.00     0.140 C 
BRANCH  18  19
HETATM   19  N1  UNL     1       5.513 -18.415   1.815  1.00  0.00    -0.419 N 
ATOM     20  H1  UNL     1       5.124 -19.159   2.394  1.00  0.00     0.153 HD
BRANCH  19  21
HETATM   21  C2  UNL     1       6.101 -18.663   0.543  1.00  0.00     0.109 C 
HETATM   22  C1  UNL     1       6.618 -17.363  -0.040  1.00  0.00     0.026 C 
ENDBRANCH  19  21
ENDBRANCH  18  19
ENDBRANCH  17  18
ENDBRANCH  16  17
ENDBRANCH  15  16
ENDBRANCH   1  15
BRANCH  14  23
HETATM   23  O3  UNL     1       3.817 -13.280   5.234  1.00  0.00    -0.385 OA
ATOM     24  H3  UNL     1       3.271 -12.867   5.892  1.00  0.00     0.210 HD
ENDBRANCH  14  23
BRANCH  12  25
HETATM   25  N6  UNL     1       3.152  -9.464   4.658  1.00  0.00    -0.344 N 
ATOM     26  H62 UNL     1       2.926  -8.982   5.528  1.00  0.00     0.176 HD
ATOM     27  H61 UNL     1       3.205  -8.940   3.784  1.00  0.00     0.176 HD
ENDBRANCH  12  25
TORSDOF 8
ENDMDL
MODEL 4
REMARK VINA RESULT: -6.663933071      2.721      4.219
REMARK  8 active torsions:
REMARK  status: ('A' for Active; 'I' for Inactive)
REMARK    1  A    between atoms: C2_2  and  N1_3 
REMARK    2  A    between atoms: N1_3  and  C3_5 
REMARK    3  A    between atoms: C3_5  and  C4_6 
REMARK    4  A    between atoms: C4_6  and  O1_7 
REMARK    5  A    between atoms: O1_7  and  C5_8 
REMARK    6  A    between atoms: C5_8  and  C6_9 
REMARK    7  A    between atoms: N5_20  and  N6_22 
REMARK    8  A    between atoms: C9_25  and  O3_26 
ROOT
HETATM    1  C6  UNL     1       4.447 -13.418   2.629  1.00  0.00     0.192 C 
HETATM    2  O2  UNL     1       3.726 -13.729   1.447  1.00  0.00    -0.311 OA
HETATM    3  C7  UNL     1       2.869 -12.875   0.770  1.00  0.00     0.232 C 
HETATM    4  N2  UNL     1       2.514 -13.221  -0.414  1.00  0.00    -0.364 N 
ATOM      5  H21 UNL     1       1.883 -12.593  -0.912  1.00  0.00     0.159 HD
ATOM      6  H22 UNL     1       2.915 -14.105  -0.725  1.00  0.00     0.159 HD
HETATM    7  N3  UNL     1       2.301 -11.622   1.210  1.00  0.00    -0.264 N 
ATOM      8  H3  UNL     1       1.727 -11.098   0.548  1.00  0.00     0.190 HD
HETATM    9  N4  UNL     1       2.492 -11.079   2.501  1.00  0.00    -0.283 N 
ATOM     10  H4  UNL     1       2.118 -10.139   2.633  1.00  0.00     0.188 HD
HETATM   11  C8  UNL     1       3.123 -11.641   3.642  1.00  0.00     0.142 C 
HETATM   12  N5  UNL     1       3.420 -10.924   4.652  1.00  0.00    -0.292 N 
ATOM     13  H5  UNL     1       3.873 -11.362   5.454  1.00  0.00     0.187 HD
HETATM   14  C9  UNL     1       3.483 -13.112   3.728  1.00  0.00     0.219 C 
ENDROOT
BRANCH   1  15
HETATM   15  C5  UNL     1       5.417 -14.527   2.960  1.00  0.00     0.203 C 
BRANCH  15  16
HETATM   16  O1  UNL     1       5.899 -15.153   1.845  1.00  0.00    -0.387 OA
BRANCH  16  17
HETATM   17  C4  UNL     1       6.041 -16.498   1.959  1.00  0.00     0.186 C 
BRANCH  17  18
HETATM   18  C3  UNL     1       5.082 -17.125   2.918  1.00  0.00     0.140 C 
BRANCH  18  19
HETATM   19  N1  UNL     1       5.549 -18.406   3.411  1.00  0.00    -0.419 N 
ATOM     20  H1  UNL     1       5.729 -19.199   2.793  1.00  0.00     0.153 HD
BRANCH  19  21
HETATM   21  C2  UNL     1       5.739 -18.476   4.820  1.00  0.00     0.109 C 
HETATM   22  C1  UNL     1       5.148 -17.243   5.473  1.00  0.00     0.026 C 
ENDBRANCH  19  21
ENDBRANCH  18  19
ENDBRANCH  17  18
ENDBRANCH  16  17
ENDBRANCH  15  16
ENDBRANCH   1  15
BRANCH  14  23
HETATM   23  O3  UNL     1       3.964 -13.393   5.004  1.00  0.00    -0.385 OA
ATOM     24  H3  UNL     1       3.711 -12.759   5.664  1.00  0.00     0.210 HD
ENDBRANCH  14  23
BRANCH  12  25
HETATM   25  N6  UNL     1       3.145  -9.575   4.695  1.00  0.00    -0.344 N 
ATOM     26  H62 UNL     1       3.834  -8.934   4.302  1.00  0.00     0.176 HD
ATOM     27  H61 UNL     1       2.283  -9.212   5.103  1.00  0.00     0.176 HD
ENDBRANCH  12  25
TORSDOF 8
ENDMDL
MODEL 5
REMARK VINA RESULT: -6.617552187      2.847      4.202
REMARK  8 active torsions:
REMARK  status: ('A' for Active; 'I' for Inactive)
REMARK    1  A    between atoms: C2_2  and  N1_3 
REMARK    2  A    between atoms: N1_3  and  C3_5 
REMARK    3  A    between atoms: C3_5  and  C4_6 
REMARK    4  A    between atoms: C4_6  and  O1_7 
REMARK    5  A    between atoms: O1_7  and  C5_8 
REMARK    6  A    between atoms: C5_8  and  C6_9 
REMARK    7  A    between atoms: N5_20  and  N6_22 
REMARK    8  A    between atoms: C9_25  and  O3_26 
ROOT
HETATM    1  C6  UNL     1       4.275 -13.652   2.386  1.00  0.00     0.192 C 
HETATM    2  O2  UNL     1       4.304 -12.651   3.394  1.00  0.00    -0.311 OA
HETATM    3  C7  UNL     1       3.393 -11.618   3.539  1.00  0.00     0.232 C 
HETATM    4  N2  UNL     1       3.413 -10.971   4.648  1.00  0.00    -0.364 N 
ATOM      5  H21 UNL     1       2.742 -10.210   4.755  1.00  0.00     0.159 HD
ATOM      6  H22 UNL     1       4.115 -11.305   5.308  1.00  0.00     0.159 HD
HETATM    7  N3  UNL     1       2.398 -11.146   2.604  1.00  0.00    -0.264 N 
ATOM      8  H3  UNL     1       1.772 -10.400   2.907  1.00  0.00     0.190 HD
HETATM    9  N4  UNL     1       2.241 -11.656   1.295  1.00  0.00    -0.283 N 
ATOM     10  H4  UNL     1       1.432 -11.300   0.787  1.00  0.00     0.188 HD
HETATM   11  C8  UNL     1       3.038 -12.587   0.577  1.00  0.00     0.142 C 
HETATM   12  N5  UNL     1       2.622 -13.118  -0.503  1.00  0.00    -0.292 N 
ATOM     13  H5  UNL     1       3.221 -13.783  -0.991  1.00  0.00     0.187 HD
HETATM   14  C9  UNL     1       4.418 -13.005   1.048  1.00  0.00     0.219 C 
ENDROOT
BRANCH   1  15
HETATM   15  C5  UNL     1       5.314 -14.711   2.667  1.00  0.00     0.203 C 
BRANCH  15  16
HETATM   16  O1  UNL     1       5.003 -15.915   2.100  1.00  0.00    -0.387 OA
BRANCH  16  17
HETATM   17  C4  UNL     1       6.067 -16.715   1.835  1.00  0.00     0.186 C 
BRANCH  17  18
HETATM   18  C3  UNL     1       5.915 -18.108   2.352  1.00  0.00     0.140 C 
BRANCH  18  19
HETATM   19  N1  UNL     1       4.977 -18.190   3.455  1.00  0.00    -0.419 N 
ATOM     20  H1  UNL     1       3.967 -18.212   3.316  1.00  0.00     0.153 HD
BRANCH  19  21
HETATM   21  C2  UNL     1       5.572 -18.237   4.748  1.00  0.00     0.109 C 
HETATM   22  C1  UNL     1       5.066 -17.077   5.582  1.00  0.00     0.026 C 
ENDBRANCH  19  21
ENDBRANCH  18  19
ENDBRANCH  17  18
ENDBRANCH  16  17
ENDBRANCH  15  16
ENDBRANCH   1  15
BRANCH  14  23
HETATM   23  O3  UNL     1       5.006 -13.818   0.082  1.00  0.00    -0.385 OA
ATOM     24  H3  UNL     1       4.619 -14.683   0.013  1.00  0.00     0.210 HD
ENDBRANCH  14  23
BRANCH  12  25
HETATM   25  N6  UNL     1       1.386 -12.819  -1.032  1.00  0.00    -0.344 N 
ATOM     26  H62 UNL     1       1.147 -13.214  -1.942  1.00  0.00     0.176 HD
ATOM     27  H61 UNL     1       0.719 -12.223  -0.542  1.00  0.00     0.176 HD
ENDBRANCH  12  25
TORSDOF 8
ENDMDL
