MODEL 1
REMARK VINA RESULT: -6.943282096      0.000      0.000
REMARK  9 active torsions:
REMARK  status: ('A' for Active; 'I' for Inactive)
REMARK    1  A    between atoms: N1_1  and  C1_5 
REMARK    2  A    between atoms: C2_9  and  C3_10 
REMARK    3  A    between atoms: C3_10  and  C4_11 
REMARK    4  A    between atoms: C4_11  and  C5_12 
REMARK    5  A    between atoms: C5_12  and  N3_13 
REMARK    6  A    between atoms: N3_13  and  C6_16 
REMARK    7  A    between atoms: C6_16  and  C7_17 
REMARK    8  A    between atoms: C9_21  and  C10_22 
REMARK    9  A    between atoms: C10_22  and  O1_23 
ROOT
HETATM    1  C5  UNL     1       2.008 -11.265   3.089  1.00  0.00     0.232 C 
ENDROOT
BRANCH   1   2
HETATM    2  C4  UNL     1       3.172 -11.261   4.069  1.00  0.00     0.032 C 
BRANCH   2   3
HETATM    3  C3  UNL     1       3.475 -12.705   4.414  1.00  0.00     0.063 C 
BRANCH   3   4
HETATM    4  C2  UNL     1       4.586 -12.896   5.381  1.00  0.00     0.329 C 
HETATM    5  N2  UNL     1       4.276 -13.733   6.534  1.00  0.00     0.003 N 
HETATM    6  C1  UNL     1       4.564 -14.824   5.588  1.00  0.00     0.526 C 
ATOM      7  H22 UNL     1       3.402 -13.663   7.057  1.00  0.00     0.285 HD
ATOM      8  H21 UNL     1       4.744 -13.637   7.436  1.00  0.00     0.285 HD
HETATM    9  O3  UNL     1       5.398 -13.962   4.924  1.00  0.00    -0.305 OA
BRANCH   6  10
HETATM   10  N1  UNL     1       5.290 -15.933   6.174  1.00  0.00    -0.027 N 
ATOM     11  H13 UNL     1       4.770 -16.328   6.958  1.00  0.00     0.279 HD
ATOM     12  H12 UNL     1       5.289 -16.736   5.545  1.00  0.00     0.279 HD
ATOM     13  H11 UNL     1       6.243 -15.700   6.457  1.00  0.00     0.279 HD
ENDBRANCH   6  10
ENDBRANCH   3   4
ENDBRANCH   2   3
ENDBRANCH   1   2
BRANCH   1  14
HETATM   14  N3  UNL     1       2.122 -12.300   2.112  1.00  0.00    -0.073 N 
ATOM     15  H32 UNL     1       2.805 -13.004   2.391  1.00  0.00     0.277 HD
ATOM     16  H31 UNL     1       1.289 -12.889   2.092  1.00  0.00     0.277 HD
BRANCH  14  17
HETATM   17  C6  UNL     1       2.417 -11.768   0.823  1.00  0.00     0.265 C 
BRANCH  17  18
HETATM   18  C7  UNL     1       3.480 -12.703   0.214  1.00  0.00     0.165 C 
HETATM   19  C8  UNL     1       4.748 -11.881   0.148  1.00  0.00     0.164 C 
HETATM   20  N4  UNL     1       5.883 -12.692  -0.225  1.00  0.00    -0.143 NA
HETATM   21  N5  UNL     1       5.692 -14.012   0.145  1.00  0.00    -0.114 NA
HETATM   22  C9  UNL     1       4.912 -14.067   1.356  1.00  0.00     0.254 C 
HETATM   23  O2  UNL     1       3.595 -13.792   1.041  1.00  0.00    -0.358 OA
BRANCH  22  24
HETATM   24  C10 UNL     1       5.060 -15.482   1.904  1.00  0.00     0.214 C 
BRANCH  24  25
HETATM   25  O1  UNL     1       6.255 -15.571   2.609  1.00  0.00    -0.397 OA
ATOM     26  H1  UNL     1       6.432 -16.485   2.803  1.00  0.00     0.209 HD
ENDBRANCH  24  25
ENDBRANCH  22  24
ENDBRANCH  17  18
ENDBRANCH  14  17
ENDBRANCH   1  14
TORSDOF 9
ENDMDL
MODEL 2
REMARK VINA RESULT: -6.841266299      2.107      5.601
REMARK  9 active torsions:
REMARK  status: ('A' for Active; 'I' for Inactive)
REMARK    1  A    between atoms: N1_1  and  C1_5 
REMARK    2  A    between atoms: C2_9  and  C3_10 
REMARK    3  A    between atoms: C3_10  and  C4_11 
REMARK    4  A    between atoms: C4_11  and  C5_12 
REMARK    5  A    between atoms: C5_12  and  N3_13 
REMARK    6  A    between atoms: N3_13  and  C6_16 
REMARK    7  A    between atoms: C6_16  and  C7_17 
REMARK    8  A    between atoms: C9_21  and  C10_22 
REMARK    9  A    between atoms: C10_22  and  O1_23 
ROOT
HETATM    1  C5  UNL     1       5.531 -16.025   2.511  1.00  0.00     0.232 C 
ENDROOT
BRANCH   1   2
HETATM    2  C4  UNL     1       5.629 -15.654   1.038  1.00  0.00     0.032 C 
BRANCH   2   3
HETATM    3  C3  UNL     1       4.651 -14.524   0.793  1.00  0.00     0.063 C 
BRANCH   3   4
HETATM    4  C2  UNL     1       5.087 -13.530  -0.221  1.00  0.00     0.329 C 
HETATM    5  N2  UNL     1       4.179 -12.409  -0.431  1.00  0.00     0.003 N 
HETATM    6  C1  UNL     1       4.855 -11.876   0.765  1.00  0.00     0.526 C 
ATOM      7  H22 UNL     1       3.167 -12.515  -0.499  1.00  0.00     0.285 HD
ATOM      8  H21 UNL     1       4.117 -11.897  -1.311  1.00  0.00     0.285 HD
HETATM    9  O3  UNL     1       5.959 -12.606   0.406  1.00  0.00    -0.305 OA
BRANCH   6  10
HETATM   10  N1  UNL     1       5.110 -10.450   0.709  1.00  0.00    -0.027 N 
ATOM     11  H13 UNL     1       6.105 -10.268   0.581  1.00  0.00     0.279 HD
ATOM     12  H12 UNL     1       4.750 -10.055  -0.160  1.00  0.00     0.279 HD
ATOM     13  H11 UNL     1       4.752  -9.935   1.514  1.00  0.00     0.279 HD
ENDBRANCH   6  10
ENDBRANCH   3   4
ENDBRANCH   2   3
ENDBRANCH   1   2
BRANCH   1  14
HETATM   14  N3  UNL     1       5.148 -14.918   3.327  1.00  0.00    -0.073 N 
ATOM     15  H32 UNL     1       5.961 -14.429   3.700  1.00  0.00     0.277 HD
ATOM     16  H31 UNL     1       4.752 -14.162   2.769  1.00  0.00     0.277 HD
BRANCH  14  17
HETATM   17  C6  UNL     1       4.259 -15.321   4.366  1.00  0.00     0.265 C 
BRANCH  17  18
HETATM   18  C7  UNL     1       3.781 -14.020   5.041  1.00  0.00     0.165 C 
HETATM   19  C8  UNL     1       5.042 -13.263   5.394  1.00  0.00     0.164 C 
HETATM   20  N4  UNL     1       4.742 -11.931   5.861  1.00  0.00    -0.143 NA
HETATM   21  N5  UNL     1       3.546 -11.477   5.332  1.00  0.00    -0.114 NA
HETATM   22  C9  UNL     1       3.363 -12.025   4.012  1.00  0.00     0.254 C 
HETATM   23  O2  UNL     1       2.995 -13.351   4.135  1.00  0.00    -0.358 OA
BRANCH  22  24
HETATM   24  C10 UNL     1       2.256 -11.209   3.353  1.00  0.00     0.214 C 
BRANCH  24  25
HETATM   25  O1  UNL     1       2.009 -10.077   4.123  1.00  0.00    -0.397 OA
ATOM     26  H1  UNL     1       2.791  -9.537   4.136  1.00  0.00     0.209 HD
ENDBRANCH  24  25
ENDBRANCH  22  24
ENDBRANCH  17  18
ENDBRANCH  14  17
ENDBRANCH   1  14
TORSDOF 9
ENDMDL
MODEL 3
REMARK VINA RESULT: -6.808337755      2.164      5.556
REMARK  9 active torsions:
REMARK  status: ('A' for Active; 'I' for Inactive)
REMARK    1  A    between atoms: N1_1  and  C1_5 
REMARK    2  A    between atoms: C2_9  and  C3_10 
REMARK    3  A    between atoms: C3_10  and  C4_11 
REMARK    4  A    between atoms: C4_11  and  C5_12 
REMARK    5  A    between atoms: C5_12  and  N3_13 
REMARK    6  A    between atoms: N3_13  and  C6_16 
REMARK    7  A    between atoms: C6_16  and  C7_17 
REMARK    8  A    between atoms: C9_21  and  C10_22 
REMARK    9  A    between atoms: C10_22  and  O1_23 
ROOT
HETATM    1  C5  UNL     1       5.139 -15.819   2.482  1.00  0.00     0.232 C 
ENDROOT
BRANCH   1   2
HETATM    2  C4  UNL     1       5.575 -15.568   1.045  1.00  0.00     0.032 C 
BRANCH   2   3
HETATM    3  C3  UNL     1       4.593 -14.585   0.442  1.00  0.00     0.063 C 
BRANCH   3   4
HETATM    4  C2  UNL     1       5.205 -13.543  -0.422  1.00  0.00     0.329 C 
HETATM    5  N2  UNL     1       4.348 -12.406  -0.735  1.00  0.00     0.003 N 
HETATM    6  C1  UNL     1       4.795 -11.941   0.590  1.00  0.00     0.526 C 
ATOM      7  H22 UNL     1       3.365 -12.500  -0.991  1.00  0.00     0.285 HD
ATOM      8  H21 UNL     1       4.445 -11.849  -1.584  1.00  0.00     0.285 HD
HETATM    9  O3  UNL     1       5.946 -12.660   0.399  1.00  0.00    -0.305 OA
BRANCH   6  10
HETATM   10  N1  UNL     1       5.053 -10.516   0.655  1.00  0.00    -0.027 N 
ATOM     11  H13 UNL     1       4.679 -10.045  -0.169  1.00  0.00     0.279 HD
ATOM     12  H12 UNL     1       4.480 -10.080   1.377  1.00  0.00     0.279 HD
ATOM     13  H11 UNL     1       6.037 -10.280   0.787  1.00  0.00     0.279 HD
ENDBRANCH   6  10
ENDBRANCH   3   4
ENDBRANCH   2   3
ENDBRANCH   1   2
BRANCH   1  14
HETATM   14  N3  UNL     1       5.579 -14.791   3.371  1.00  0.00    -0.073 N 
ATOM     15  H32 UNL     1       6.378 -15.095   3.927  1.00  0.00     0.277 HD
ATOM     16  H31 UNL     1       6.021 -14.024   2.865  1.00  0.00     0.277 HD
BRANCH  14  17
HETATM   17  C6  UNL     1       4.514 -14.328   4.196  1.00  0.00     0.265 C 
BRANCH  17  18
HETATM   18  C7  UNL     1       3.821 -13.205   3.401  1.00  0.00     0.165 C 
HETATM   19  C8  UNL     1       2.344 -13.528   3.451  1.00  0.00     0.164 C 
HETATM   20  N4  UNL     1       1.550 -12.452   2.909  1.00  0.00    -0.143 NA
HETATM   21  N5  UNL     1       2.204 -11.238   3.040  1.00  0.00    -0.114 NA
HETATM   22  C9  UNL     1       3.000 -11.246   4.242  1.00  0.00     0.254 C 
HETATM   23  O2  UNL     1       4.126 -12.015   4.016  1.00  0.00    -0.358 OA
BRANCH  22  24
HETATM   24  C10 UNL     1       3.377  -9.796   4.522  1.00  0.00     0.214 C 
BRANCH  24  25
HETATM   25  O1  UNL     1       2.222  -9.022   4.530  1.00  0.00    -0.397 OA
ATOM     26  H1  UNL     1       2.171  -8.534   3.716  1.00  0.00     0.209 HD
ENDBRANCH  24  25
ENDBRANCH  22  24
ENDBRANCH  17  18
ENDBRANCH  14  17
ENDBRANCH   1  14
TORSDOF 9
ENDMDL
MODEL 4
REMARK VINA RESULT: -6.745307401      1.803      4.510
REMARK  9 active torsions:
REMARK  status: ('A' for Active; 'I' for Inactive)
REMARK    1  A    between atoms: N1_1  and  C1_5 
REMARK    2  A    between atoms: C2_9  and  C3_10 
REMARK    3  A    between atoms: C3_10  and  C4_11 
REMARK    4  A    between atoms: C4_11  and  C5_12 
REMARK    5  A    between atoms: C5_12  and  N3_13 
REMARK    6  A    between atoms: N3_13  and  C6_16 
REMARK    7  A    between atoms: C6_16  and  C7_17 
REMARK    8  A    between atoms: C9_21  and  C10_22 
REMARK    9  A    between atoms: C10_22  and  O1_23 
ROOT
HETATM    1  C5  UNL     1       3.606 -11.754   1.147  1.00  0.00     0.232 C 
ENDROOT
BRANCH   1   2
HETATM    2  C4  UNL     1       3.091 -12.517  -0.066  1.00  0.00     0.032 C 
BRANCH   2   3
HETATM    3  C3  UNL     1       3.619 -13.933   0.037  1.00  0.00     0.063 C 
BRANCH   3   4
HETATM    4  C2  UNL     1       4.993 -14.047   0.591  1.00  0.00     0.329 C 
HETATM    5  N2  UNL     1       5.334 -15.347   1.158  1.00  0.00     0.003 N 
HETATM    6  C1  UNL     1       5.591 -15.688  -0.251  1.00  0.00     0.526 C 
ATOM      7  H22 UNL     1       4.700 -15.879   1.755  1.00  0.00     0.285 HD
ATOM      8  H21 UNL     1       6.025 -15.469   1.898  1.00  0.00     0.285 HD
HETATM    9  O3  UNL     1       5.877 -14.365  -0.469  1.00  0.00    -0.305 OA
BRANCH   6  10
HETATM   10  N1  UNL     1       6.755 -16.530  -0.448  1.00  0.00    -0.027 N 
ATOM     11  H13 UNL     1       6.661 -17.400   0.076  1.00  0.00     0.279 HD
ATOM     12  H12 UNL     1       6.772 -16.903  -1.398  1.00  0.00     0.279 HD
ATOM     13  H11 UNL     1       7.639 -16.072  -0.226  1.00  0.00     0.279 HD
ENDBRANCH   6  10
ENDBRANCH   3   4
ENDBRANCH   2   3
ENDBRANCH   1   2
BRANCH   1  14
HETATM   14  N3  UNL     1       2.548 -11.279   1.981  1.00  0.00    -0.073 N 
ATOM     15  H32 UNL     1       2.726 -10.329   2.305  1.00  0.00     0.277 HD
ATOM     16  H31 UNL     1       1.698 -11.107   1.444  1.00  0.00     0.277 HD
BRANCH  14  17
HETATM   17  C6  UNL     1       2.307 -12.166   3.069  1.00  0.00     0.265 C 
BRANCH  17  18
HETATM   18  C7  UNL     1       3.694 -12.516   3.645  1.00  0.00     0.165 C 
HETATM   19  C8  UNL     1       3.749 -11.845   4.999  1.00  0.00     0.164 C 
HETATM   20  N4  UNL     1       4.920 -12.248   5.739  1.00  0.00    -0.143 NA
HETATM   21  N5  UNL     1       5.346 -13.506   5.347  1.00  0.00    -0.114 NA
HETATM   22  C9  UNL     1       4.208 -14.305   4.968  1.00  0.00     0.254 C 
HETATM   23  O2  UNL     1       3.773 -13.885   3.726  1.00  0.00    -0.358 OA
BRANCH  22  24
HETATM   24  C10 UNL     1       4.690 -15.751   4.918  1.00  0.00     0.214 C 
BRANCH  24  25
HETATM   25  O1  UNL     1       5.149 -16.118   6.178  1.00  0.00    -0.397 OA
ATOM     26  H1  UNL     1       5.219 -17.065   6.217  1.00  0.00     0.209 HD
ENDBRANCH  24  25
ENDBRANCH  22  24
ENDBRANCH  17  18
ENDBRANCH  14  17
ENDBRANCH   1  14
TORSDOF 9
ENDMDL
MODEL 5
REMARK VINA RESULT: -6.593620748      2.252      4.027
REMARK  9 active torsions:
REMARK  status: ('A' for Active; 'I' for Inactive)
REMARK    1  A    between atoms: N1_1  and  C1_5 
REMARK    2  A    between atoms: C2_9  and  C3_10 
REMARK    3  A    between atoms: C3_10  and  C4_11 
REMARK    4  A    between atoms: C4_11  and  C5_12 
REMARK    5  A    between atoms: C5_12  and  N3_13 
REMARK    6  A    between atoms: N3_13  and  C6_16 
REMARK    7  A    between atoms: C6_16  and  C7_17 
REMARK    8  A    between atoms: C9_21  and  C10_22 
REMARK    9  A    between atoms: C10_22  and  O1_23 
ROOT
HETATM    1  C5  UNL     1       4.627 -14.472   4.258  1.00  0.00     0.232 C 
ENDROOT
BRANCH   1   2
HETATM    2  C4  UNL     1       4.283 -13.023   4.579  1.00  0.00     0.032 C 
BRANCH   2   3
HETATM    3  C3  UNL     1       2.876 -12.774   4.078  1.00  0.00     0.063 C 
BRANCH   3   4
HETATM    4  C2  UNL     1       2.743 -11.638   3.130  1.00  0.00     0.329 C 
HETATM    5  N2  UNL     1       1.716 -10.659   3.465  1.00  0.00     0.003 N 
HETATM    6  C1  UNL     1       2.765 -10.135   4.355  1.00  0.00     0.526 C 
ATOM      7  H22 UNL     1       0.784 -10.917   3.791  1.00  0.00     0.285 HD
ATOM      8  H21 UNL     1       1.239 -10.088   2.766  1.00  0.00     0.285 HD
HETATM    9  O3  UNL     1       3.692 -10.648   3.484  1.00  0.00    -0.305 OA
BRANCH   6  10
HETATM   10  N1  UNL     1       2.820  -8.687   4.410  1.00  0.00    -0.027 N 
ATOM     11  H13 UNL     1       3.555  -8.332   3.798  1.00  0.00     0.279 HD
ATOM     12  H12 UNL     1       2.004  -8.279   3.952  1.00  0.00     0.279 HD
ATOM     13  H11 UNL     1       2.926  -8.313   5.353  1.00  0.00     0.279 HD
ENDBRANCH   6  10
ENDBRANCH   3   4
ENDBRANCH   2   3
ENDBRANCH   1   2
BRANCH   1  14
HETATM   14  N3  UNL     1       5.491 -14.588   3.128  1.00  0.00    -0.073 N 
ATOM     15  H32 UNL     1       5.673 -13.680   2.701  1.00  0.00     0.277 HD
ATOM     16  H31 UNL     1       6.444 -14.823   3.408  1.00  0.00     0.277 HD
BRANCH  14  17
HETATM   17  C6  UNL     1       4.982 -15.520   2.178  1.00  0.00     0.265 C 
BRANCH  17  18
HETATM   18  C7  UNL     1       4.776 -14.724   0.874  1.00  0.00     0.165 C 
HETATM   19  C8  UNL     1       3.306 -14.369   0.846  1.00  0.00     0.164 C 
HETATM   20  N4  UNL     1       3.006 -13.453  -0.228  1.00  0.00    -0.143 NA
HETATM   21  N5  UNL     1       4.115 -12.692  -0.556  1.00  0.00    -0.114 NA
HETATM   22  C9  UNL     1       4.906 -12.457   0.626  1.00  0.00     0.254 C 
HETATM   23  O2  UNL     1       5.589 -13.618   0.934  1.00  0.00    -0.358 OA
BRANCH  22  24
HETATM   24  C10 UNL     1       5.872 -11.329   0.284  1.00  0.00     0.214 C 
BRANCH  24  25
HETATM   25  O1  UNL     1       5.508 -10.190   0.995  1.00  0.00    -0.397 OA
ATOM     26  H1  UNL     1       5.518 -10.390   1.924  1.00  0.00     0.209 HD
ENDBRANCH  24  25
ENDBRANCH  22  24
ENDBRANCH  17  18
ENDBRANCH  14  17
ENDBRANCH   1  14
TORSDOF 9
ENDMDL
