MODEL 1
REMARK VINA RESULT: -7.158468786      0.000      0.000
REMARK  10 active torsions:
REMARK  status: ('A' for Active; 'I' for Inactive)
REMARK    1  A    between atoms: C3_5  and  C4_6 
REMARK    2  A    between atoms: C4_6  and  S1_7 
REMARK    3  A    between atoms: S1_7  and  N2_8 
REMARK    4  A    between atoms: N2_8  and  C5_9 
REMARK    5  A    between atoms: C5_9  and  C6_10 
REMARK    6  A    between atoms: C8_22  and  N8_23 
REMARK    7  A    between atoms: N8_23  and  C9_25 
REMARK    8  A    between atoms: C10_28  and  N10_29 
REMARK    9  A    between atoms: C14_37  and  N12_38 
REMARK   10  A    between atoms: C15_42  and  N13_43 
ROOT
HETATM    1  C9  UNL     1      35.805  51.883   0.194  1.00  0.00     0.146 A 
HETATM    2  N9  UNL     1      36.261  51.788  -1.069  1.00  0.00    -0.176 N 
ATOM      3  H9  UNL     1      35.656  51.324  -1.746  1.00  0.00     0.186 HD
HETATM    4  C10 UNL     1      37.432  52.243  -1.518  1.00  0.00     0.679 A 
HETATM    5  N11 UNL     1      38.238  52.854  -0.649  1.00  0.00    -0.176 N 
ATOM      6  H11 UNL     1      39.138  53.212  -0.970  1.00  0.00     0.186 HD
HETATM    7  C11 UNL     1      37.889  53.010   0.644  1.00  0.00     0.130 A 
HETATM    8  C12 UNL     1      36.661  52.526   1.083  1.00  0.00     0.034 A 
HETATM    9  C13 UNL     1      36.350  52.827   2.489  1.00  0.00     0.083 C 
HETATM   10  C14 UNL     1      37.479  52.580   3.439  1.00  0.00     0.237 C 
HETATM   11  C15 UNL     1      38.802  53.062   2.971  1.00  0.00     0.315 C 
HETATM   12  N14 UNL     1      38.756  53.606   1.600  1.00  0.00    -0.341 N 
HETATM   13  C16 UNL     1      39.575  54.701   1.172  1.00  0.00     0.153 C 
ENDROOT
BRANCH   1  14
HETATM   14  N8  UNL     1      34.590  51.338   0.643  1.00  0.00    -0.175 N 
ATOM     15  H8  UNL     1      33.869  52.008   0.913  1.00  0.00     0.186 HD
BRANCH  14  16
HETATM   16  C8  UNL     1      34.251  49.982   0.766  1.00  0.00     0.688 C 
HETATM   17  N1  UNL     1      33.510  49.282  -0.203  1.00  0.00    -0.155 N 
HETATM   18  C1  UNL     1      33.057  49.876  -1.474  1.00  0.00     0.178 C 
HETATM   19  C2  UNL     1      33.237  47.928   0.014  1.00  0.00     0.247 C 
HETATM   20  O1  UNL     1      32.761  47.235  -0.915  1.00  0.00    -0.272 OA
HETATM   21  C3  UNL     1      33.463  47.179   1.313  1.00  0.00     0.128 C 
HETATM   22  C7  UNL     1      34.445  47.958   2.114  1.00  0.00     0.094 C 
HETATM   23  N7  UNL     1      34.648  49.305   1.813  1.00  0.00    -0.204 N 
ATOM     24  H7  UNL     1      35.178  49.835   2.504  1.00  0.00     0.183 HD
BRANCH  21  25
HETATM   25  C4  UNL     1      33.880  45.809   0.938  1.00  0.00     0.112 C 
BRANCH  25  26
HETATM   26  S1  UNL     1      33.371  44.503   2.054  1.00  0.00    -0.064 SA
BRANCH  26  27
HETATM   27  N2  UNL     1      34.742  44.358   3.253  1.00  0.00    -0.172 NA
BRANCH  27  28
HETATM   28  C5  UNL     1      34.121  43.756   4.407  1.00  0.00     0.202 C 
BRANCH  28  29
HETATM   29  C6  UNL     1      34.732  42.427   4.703  1.00  0.00     0.128 A 
HETATM   30  N3  UNL     1      35.061  41.591   3.694  1.00  0.00    -0.271 N 
HETATM   31  N4  UNL     1      35.605  40.541   4.228  1.00  0.00    -0.227 N 
ATOM     32  H3  UNL     1      34.910  41.754   2.699  1.00  0.00     0.190 HD
HETATM   33  N5  UNL     1      35.636  40.669   5.515  1.00  0.00    -0.227 N 
ATOM     34  H4  UNL     1      35.956  39.735   3.711  1.00  0.00     0.210 HD
HETATM   35  N6  UNL     1      35.094  41.849   5.855  1.00  0.00    -0.271 N 
ATOM     36  H5  UNL     1      36.012  39.982   6.169  1.00  0.00     0.210 HD
ATOM     37  H6  UNL     1      34.981  42.227   6.796  1.00  0.00     0.190 HD
ENDBRANCH  28  29
ENDBRANCH  27  28
ENDBRANCH  26  27
ENDBRANCH  25  26
ENDBRANCH  21  25
ENDBRANCH  14  16
ENDBRANCH   1  14
BRANCH   4  38
HETATM   38  N10 UNL     1      37.775  52.080  -2.754  1.00  0.00    -0.234 N 
ATOM     39 2H10 UNL     1      37.228  51.493  -3.384  1.00  0.00     0.174 HD
ATOM     40 1H10 UNL     1      38.599  52.547  -3.133  1.00  0.00     0.174 HD
ENDBRANCH   4  38
BRANCH  10  41
HETATM   41  N12 UNL     1      37.153  53.206   4.705  1.00  0.00    -0.071 N 
ATOM     42 3H12 UNL     1      36.240  52.924   5.060  1.00  0.00     0.274 HD
ATOM     43 2H12 UNL     1      37.718  52.850   5.476  1.00  0.00     0.274 HD
ATOM     44 1H12 UNL     1      37.234  54.217   4.593  1.00  0.00     0.274 HD
ENDBRANCH  10  41
BRANCH  11  45
HETATM   45  N13 UNL     1      39.701  51.892   2.965  1.00  0.00    -0.056 N 
ATOM     46 3H13 UNL     1      39.223  51.018   2.744  1.00  0.00     0.276 HD
ATOM     47 2H13 UNL     1      40.349  51.887   2.177  1.00  0.00     0.276 HD
ATOM     48 1H13 UNL     1      40.169  51.877   3.870  1.00  0.00     0.276 HD
ENDBRANCH  11  45
TORSDOF 10
ENDMDL
MODEL 2
REMARK VINA RESULT: -6.874552035      2.362      3.647
REMARK  10 active torsions:
REMARK  status: ('A' for Active; 'I' for Inactive)
REMARK    1  A    between atoms: C3_5  and  C4_6 
REMARK    2  A    between atoms: C4_6  and  S1_7 
REMARK    3  A    between atoms: S1_7  and  N2_8 
REMARK    4  A    between atoms: N2_8  and  C5_9 
REMARK    5  A    between atoms: C5_9  and  C6_10 
REMARK    6  A    between atoms: C8_22  and  N8_23 
REMARK    7  A    between atoms: N8_23  and  C9_25 
REMARK    8  A    between atoms: C10_28  and  N10_29 
REMARK    9  A    between atoms: C14_37  and  N12_38 
REMARK   10  A    between atoms: C15_42  and  N13_43 
ROOT
HETATM    1  C9  UNL     1      35.770  51.860   0.053  1.00  0.00     0.146 A 
HETATM    2  N9  UNL     1      36.253  51.743  -1.198  1.00  0.00    -0.176 N 
ATOM      3  H9  UNL     1      35.666  51.259  -1.877  1.00  0.00     0.186 HD
HETATM    4  C10 UNL     1      37.428  52.201  -1.634  1.00  0.00     0.679 A 
HETATM    5  N11 UNL     1      38.210  52.838  -0.762  1.00  0.00    -0.176 N 
ATOM      6  H11 UNL     1      39.113  53.199  -1.072  1.00  0.00     0.186 HD
HETATM    7  C11 UNL     1      37.834  53.017   0.520  1.00  0.00     0.130 A 
HETATM    8  C12 UNL     1      36.601  52.530   0.945  1.00  0.00     0.034 A 
HETATM    9  C13 UNL     1      36.259  52.857   2.338  1.00  0.00     0.083 C 
HETATM   10  C14 UNL     1      37.371  52.642   3.315  1.00  0.00     0.237 C 
HETATM   11  C15 UNL     1      38.699  53.128   2.864  1.00  0.00     0.315 C 
HETATM   12  N14 UNL     1      38.675  53.642   1.481  1.00  0.00    -0.341 N 
HETATM   13  C16 UNL     1      39.491  54.736   1.046  1.00  0.00     0.153 C 
ENDROOT
BRANCH   1  14
HETATM   14  N8  UNL     1      34.552  51.312   0.489  1.00  0.00    -0.175 N 
ATOM     15  H8  UNL     1      33.813  51.979   0.712  1.00  0.00     0.186 HD
BRANCH  14  16
HETATM   16  C8  UNL     1      34.231  49.955   0.655  1.00  0.00     0.688 C 
HETATM   17  N1  UNL     1      33.486  49.220  -0.283  1.00  0.00    -0.155 N 
HETATM   18  C1  UNL     1      33.008  49.772  -1.564  1.00  0.00     0.178 C 
HETATM   19  C2  UNL     1      33.233  47.868  -0.023  1.00  0.00     0.247 C 
HETATM   20  O1  UNL     1      32.753  47.144  -0.926  1.00  0.00    -0.272 OA
HETATM   21  C3  UNL     1      33.487  47.160   1.293  1.00  0.00     0.128 C 
HETATM   22  C7  UNL     1      34.469  47.973   2.057  1.00  0.00     0.094 C 
HETATM   23  N7  UNL     1      34.651  49.313   1.716  1.00  0.00    -0.204 N 
ATOM     24  H7  UNL     1      35.184  49.869   2.384  1.00  0.00     0.183 HD
BRANCH  21  25
HETATM   25  C4  UNL     1      33.915  45.785   0.951  1.00  0.00     0.112 C 
BRANCH  25  26
HETATM   26  S1  UNL     1      32.982  44.461   1.718  1.00  0.00    -0.064 SA
BRANCH  26  27
HETATM   27  N2  UNL     1      32.864  43.172   0.429  1.00  0.00    -0.172 NA
BRANCH  27  28
HETATM   28  C5  UNL     1      31.499  43.273  -0.027  1.00  0.00     0.202 C 
BRANCH  28  29
HETATM   29  C6  UNL     1      31.399  44.197  -1.193  1.00  0.00     0.128 A 
HETATM   30  N3  UNL     1      32.445  44.347  -2.034  1.00  0.00    -0.271 N 
HETATM   31  N4  UNL     1      32.072  45.167  -2.968  1.00  0.00    -0.227 N 
ATOM     32  H3  UNL     1      33.358  43.900  -1.950  1.00  0.00     0.190 HD
HETATM   33  N5  UNL     1      30.851  45.542  -2.762  1.00  0.00    -0.227 N 
ATOM     34  H4  UNL     1      32.655  45.470  -3.749  1.00  0.00     0.210 HD
HETATM   35  N6  UNL     1      30.390  44.951  -1.649  1.00  0.00    -0.271 N 
ATOM     36  H5  UNL     1      30.323  46.186  -3.351  1.00  0.00     0.210 HD
ATOM     37  H6  UNL     1      29.462  45.053  -1.237  1.00  0.00     0.190 HD
ENDBRANCH  28  29
ENDBRANCH  27  28
ENDBRANCH  26  27
ENDBRANCH  25  26
ENDBRANCH  21  25
ENDBRANCH  14  16
ENDBRANCH   1  14
BRANCH   4  38
HETATM   38  N10 UNL     1      37.797  52.016  -2.859  1.00  0.00    -0.234 N 
ATOM     39 2H10 UNL     1      37.175  52.228  -3.639  1.00  0.00     0.174 HD
ATOM     40 1H10 UNL     1      38.729  51.662  -3.075  1.00  0.00     0.174 HD
ENDBRANCH   4  38
BRANCH  10  41
HETATM   41  N12 UNL     1      37.014  53.291   4.561  1.00  0.00    -0.071 N 
ATOM     42 3H12 UNL     1      36.962  54.306   4.474  1.00  0.00     0.274 HD
ATOM     43 2H12 UNL     1      36.043  53.125   4.826  1.00  0.00     0.274 HD
ATOM     44 1H12 UNL     1      37.674  52.992   5.279  1.00  0.00     0.274 HD
ENDBRANCH  10  41
BRANCH  11  45
HETATM   45  N13 UNL     1      39.609  51.968   2.900  1.00  0.00    -0.056 N 
ATOM     46 3H13 UNL     1      39.345  51.227   2.250  1.00  0.00     0.276 HD
ATOM     47 2H13 UNL     1      40.528  52.164   2.503  1.00  0.00     0.276 HD
ATOM     48 1H13 UNL     1      39.649  51.656   3.870  1.00  0.00     0.276 HD
ENDBRANCH  11  45
TORSDOF 10
ENDMDL
MODEL 3
REMARK VINA RESULT: -6.801323931      6.139      9.036
REMARK  10 active torsions:
REMARK  status: ('A' for Active; 'I' for Inactive)
REMARK    1  A    between atoms: C3_5  and  C4_6 
REMARK    2  A    between atoms: C4_6  and  S1_7 
REMARK    3  A    between atoms: S1_7  and  N2_8 
REMARK    4  A    between atoms: N2_8  and  C5_9 
REMARK    5  A    between atoms: C5_9  and  C6_10 
REMARK    6  A    between atoms: C8_22  and  N8_23 
REMARK    7  A    between atoms: N8_23  and  C9_25 
REMARK    8  A    between atoms: C10_28  and  N10_29 
REMARK    9  A    between atoms: C14_37  and  N12_38 
REMARK   10  A    between atoms: C15_42  and  N13_43 
ROOT
HETATM    1  C9  UNL     1      37.157  53.535  -2.758  1.00  0.00     0.146 A 
HETATM    2  N9  UNL     1      37.390  54.849  -2.579  1.00  0.00    -0.176 N 
ATOM      3  H9  UNL     1      37.906  55.118  -1.742  1.00  0.00     0.186 HD
HETATM    4  C10 UNL     1      37.009  55.833  -3.396  1.00  0.00     0.679 A 
HETATM    5  N11 UNL     1      36.334  55.502  -4.498  1.00  0.00    -0.176 N 
ATOM      6  H11 UNL     1      36.033  56.237  -5.138  1.00  0.00     0.186 HD
HETATM    7  C11 UNL     1      36.041  54.218  -4.783  1.00  0.00     0.130 A 
HETATM    8  C12 UNL     1      36.454  53.212  -3.914  1.00  0.00     0.034 A 
HETATM    9  C13 UNL     1      36.155  51.846  -4.369  1.00  0.00     0.083 C 
HETATM   10  C14 UNL     1      34.770  51.661  -4.904  1.00  0.00     0.237 C 
HETATM   11  C15 UNL     1      34.303  52.741  -5.808  1.00  0.00     0.315 C 
HETATM   12  N14 UNL     1      35.274  53.846  -5.921  1.00  0.00    -0.341 N 
HETATM   13  C16 UNL     1      35.462  54.593  -7.129  1.00  0.00     0.153 C 
ENDROOT
BRANCH   1  14
HETATM   14  N8  UNL     1      37.523  52.532  -1.844  1.00  0.00    -0.175 N 
ATOM     15  H8  UNL     1      37.614  51.589  -2.224  1.00  0.00     0.186 HD
BRANCH  14  16
HETATM   16  C8  UNL     1      37.779  52.673  -0.471  1.00  0.00     0.688 C 
HETATM   17  N1  UNL     1      36.885  52.247   0.527  1.00  0.00    -0.155 N 
HETATM   18  C1  UNL     1      35.612  51.559   0.247  1.00  0.00     0.178 C 
HETATM   19  C2  UNL     1      37.246  52.426   1.867  1.00  0.00     0.247 C 
HETATM   20  O1  UNL     1      36.569  51.878   2.769  1.00  0.00    -0.272 OA
HETATM   21  C3  UNL     1      38.416  53.251   2.363  1.00  0.00     0.128 C 
HETATM   22  C7  UNL     1      39.365  53.411   1.230  1.00  0.00     0.094 C 
HETATM   23  N7  UNL     1      38.906  53.205  -0.072  1.00  0.00    -0.204 N 
ATOM     24  H7  UNL     1      39.535  53.512  -0.813  1.00  0.00     0.183 HD
BRANCH  21  25
HETATM   25  C4  UNL     1      38.947  52.549   3.553  1.00  0.00     0.112 C 
BRANCH  25  26
HETATM   26  S1  UNL     1      38.965  53.495   5.076  1.00  0.00    -0.064 SA
BRANCH  26  27
HETATM   27  N2  UNL     1      40.168  52.628   6.144  1.00  0.00    -0.172 NA
BRANCH  27  28
HETATM   28  C5  UNL     1      40.767  53.692   6.913  1.00  0.00     0.202 C 
BRANCH  28  29
HETATM   29  C6  UNL     1      42.210  53.413   7.166  1.00  0.00     0.128 A 
HETATM   30  N3  UNL     1      42.962  54.297   7.857  1.00  0.00    -0.271 N 
HETATM   31  N4  UNL     1      44.151  53.788   7.964  1.00  0.00    -0.227 N 
ATOM     32  H3  UNL     1      42.654  55.196   8.226  1.00  0.00     0.190 HD
HETATM   33  N5  UNL     1      44.189  52.635   7.378  1.00  0.00    -0.227 N 
ATOM     34  H4  UNL     1      44.937  54.231   8.439  1.00  0.00     0.210 HD
HETATM   35  N6  UNL     1      42.981  52.362   6.862  1.00  0.00    -0.271 N 
ATOM     36  H5  UNL     1      45.008  52.029   7.319  1.00  0.00     0.210 HD
ATOM     37  H6  UNL     1      42.707  51.526   6.345  1.00  0.00     0.190 HD
ENDBRANCH  28  29
ENDBRANCH  27  28
ENDBRANCH  26  27
ENDBRANCH  25  26
ENDBRANCH  21  25
ENDBRANCH  14  16
ENDBRANCH   1  14
BRANCH   4  38
HETATM   38  N10 UNL     1      37.275  57.066  -3.115  1.00  0.00    -0.234 N 
ATOM     39 2H10 UNL     1      36.690  57.603  -2.473  1.00  0.00     0.174 HD
ATOM     40 1H10 UNL     1      38.087  57.531  -3.521  1.00  0.00     0.174 HD
ENDBRANCH   4  38
BRANCH  10  41
HETATM   41  N12 UNL     1      34.716  50.389  -5.597  1.00  0.00    -0.071 N 
ATOM     42 3H12 UNL     1      35.319  50.364  -6.419  1.00  0.00     0.274 HD
ATOM     43 2H12 UNL     1      35.165  49.638  -5.073  1.00  0.00     0.274 HD
ATOM     44 1H12 UNL     1      33.741  50.186  -5.819  1.00  0.00     0.274 HD
ENDBRANCH  10  41
BRANCH  11  45
HETATM   45  N13 UNL     1      33.065  53.284  -5.217  1.00  0.00    -0.056 N 
ATOM     46 3H13 UNL     1      33.198  53.656  -4.277  1.00  0.00     0.276 HD
ATOM     47 2H13 UNL     1      32.756  54.151  -5.656  1.00  0.00     0.276 HD
ATOM     48 1H13 UNL     1      32.369  52.540  -5.261  1.00  0.00     0.276 HD
ENDBRANCH  11  45
TORSDOF 10
ENDMDL
MODEL 4
REMARK VINA RESULT: -6.586557257      4.176     10.597
REMARK  10 active torsions:
REMARK  status: ('A' for Active; 'I' for Inactive)
REMARK    1  A    between atoms: C3_5  and  C4_6 
REMARK    2  A    between atoms: C4_6  and  S1_7 
REMARK    3  A    between atoms: S1_7  and  N2_8 
REMARK    4  A    between atoms: N2_8  and  C5_9 
REMARK    5  A    between atoms: C5_9  and  C6_10 
REMARK    6  A    between atoms: C8_22  and  N8_23 
REMARK    7  A    between atoms: N8_23  and  C9_25 
REMARK    8  A    between atoms: C10_28  and  N10_29 
REMARK    9  A    between atoms: C14_37  and  N12_38 
REMARK   10  A    between atoms: C15_42  and  N13_43 
ROOT
HETATM    1  C9  UNL     1      31.726  44.327   0.611  1.00  0.00     0.146 A 
HETATM    2  N9  UNL     1      31.817  43.355   1.538  1.00  0.00    -0.176 N 
ATOM      3  H9  UNL     1      32.701  43.275   2.040  1.00  0.00     0.186 HD
HETATM    4  C10 UNL     1      30.858  42.485   1.862  1.00  0.00     0.679 A 
HETATM    5  N11 UNL     1      29.694  42.574   1.218  1.00  0.00    -0.176 N 
ATOM      6  H11 UNL     1      28.945  41.921   1.449  1.00  0.00     0.186 HD
HETATM    7  C11 UNL     1      29.484  43.508   0.269  1.00  0.00     0.130 A 
HETATM    8  C12 UNL     1      30.503  44.403  -0.046  1.00  0.00     0.034 A 
HETATM    9  C13 UNL     1      30.134  45.429  -1.033  1.00  0.00     0.083 C 
HETATM   10  C14 UNL     1      29.391  44.907  -2.221  1.00  0.00     0.237 C 
HETATM   11  C15 UNL     1      28.322  43.928  -1.904  1.00  0.00     0.315 C 
HETATM   12  N14 UNL     1      28.273  43.585  -0.470  1.00  0.00    -0.341 N 
HETATM   13  C16 UNL     1      27.049  43.292   0.216  1.00  0.00     0.153 C 
ENDROOT
BRANCH   1  14
HETATM   14  N8  UNL     1      32.780  45.187   0.256  1.00  0.00    -0.175 N 
ATOM     15  H8  UNL     1      33.332  44.909  -0.557  1.00  0.00     0.186 HD
BRANCH  14  16
HETATM   16  C8  UNL     1      33.163  46.381   0.885  1.00  0.00     0.688 C 
HETATM   17  N1  UNL     1      34.038  46.426   1.985  1.00  0.00    -0.155 N 
HETATM   18  C1  UNL     1      34.691  45.237   2.561  1.00  0.00     0.178 C 
HETATM   19  C2  UNL     1      34.363  47.674   2.529  1.00  0.00     0.247 C 
HETATM   20  O1  UNL     1      35.288  47.761   3.369  1.00  0.00    -0.272 OA
HETATM   21  C3  UNL     1      33.680  48.986   2.197  1.00  0.00     0.128 C 
HETATM   22  C7  UNL     1      32.990  48.815   0.891  1.00  0.00     0.094 C 
HETATM   23  N7  UNL     1      32.715  47.526   0.435  1.00  0.00    -0.204 N 
ATOM     24  H7  UNL     1      32.078  47.466  -0.359  1.00  0.00     0.183 HD
BRANCH  21  25
HETATM   25  C4  UNL     1      34.733  50.026   2.237  1.00  0.00     0.112 C 
BRANCH  25  26
HETATM   26  S1  UNL     1      35.275  50.652   0.648  1.00  0.00    -0.064 SA
BRANCH  26  27
HETATM   27  N2  UNL     1      37.069  50.937   0.851  1.00  0.00    -0.172 NA
BRANCH  27  28
HETATM   28  C5  UNL     1      37.155  52.341   1.174  1.00  0.00     0.202 C 
BRANCH  28  29
HETATM   29  C6  UNL     1      38.574  52.798   1.166  1.00  0.00     0.128 A 
HETATM   30  N3  UNL     1      39.112  53.327   0.046  1.00  0.00    -0.271 N 
HETATM   31  N4  UNL     1      40.330  53.674   0.331  1.00  0.00    -0.227 N 
ATOM     32  H3  UNL     1      38.647  53.435  -0.856  1.00  0.00     0.190 HD
HETATM   33  N5  UNL     1      40.589  53.391   1.566  1.00  0.00    -0.227 N 
ATOM     34  H4  UNL     1      40.984  54.104  -0.322  1.00  0.00     0.210 HD
HETATM   35  N6  UNL     1      39.504  52.836   2.129  1.00  0.00    -0.271 N 
ATOM     36  H5  UNL     1      41.477  53.562   2.038  1.00  0.00     0.210 HD
ATOM     37  H6  UNL     1      39.407  52.511   3.092  1.00  0.00     0.190 HD
ENDBRANCH  28  29
ENDBRANCH  27  28
ENDBRANCH  26  27
ENDBRANCH  25  26
ENDBRANCH  21  25
ENDBRANCH  14  16
ENDBRANCH   1  14
BRANCH   4  38
HETATM   38  N10 UNL     1      31.063  41.578   2.760  1.00  0.00    -0.234 N 
ATOM     39 2H10 UNL     1      31.237  41.826   3.735  1.00  0.00     0.174 HD
ATOM     40 1H10 UNL     1      31.045  40.588   2.516  1.00  0.00     0.174 HD
ENDBRANCH   4  38
BRANCH  10  41
HETATM   41  N12 UNL     1      28.821  46.034  -2.933  1.00  0.00    -0.071 N 
ATOM     42 3H12 UNL     1      27.952  46.365  -2.514  1.00  0.00     0.274 HD
ATOM     43 2H12 UNL     1      29.366  46.889  -2.815  1.00  0.00     0.274 HD
ATOM     44 1H12 UNL     1      28.709  45.772  -3.912  1.00  0.00     0.274 HD
ENDBRANCH  10  41
BRANCH  11  45
HETATM   45  N13 UNL     1      28.638  42.697  -2.654  1.00  0.00    -0.056 N 
ATOM     46 3H13 UNL     1      29.591  42.682  -3.018  1.00  0.00     0.276 HD
ATOM     47 2H13 UNL     1      28.714  41.872  -2.060  1.00  0.00     0.276 HD
ATOM     48 1H13 UNL     1      27.929  42.606  -3.381  1.00  0.00     0.276 HD
ENDBRANCH  11  45
TORSDOF 10
ENDMDL
MODEL 5
REMARK VINA RESULT: -6.562495551      2.462      3.689
REMARK  10 active torsions:
REMARK  status: ('A' for Active; 'I' for Inactive)
REMARK    1  A    between atoms: C3_5  and  C4_6 
REMARK    2  A    between atoms: C4_6  and  S1_7 
REMARK    3  A    between atoms: S1_7  and  N2_8 
REMARK    4  A    between atoms: N2_8  and  C5_9 
REMARK    5  A    between atoms: C5_9  and  C6_10 
REMARK    6  A    between atoms: C8_22  and  N8_23 
REMARK    7  A    between atoms: N8_23  and  C9_25 
REMARK    8  A    between atoms: C10_28  and  N10_29 
REMARK    9  A    between atoms: C14_37  and  N12_38 
REMARK   10  A    between atoms: C15_42  and  N13_43 
ROOT
HETATM    1  C9  UNL     1      33.628  50.464  -3.394  1.00  0.00     0.146 A 
HETATM    2  N9  UNL     1      33.898  50.073  -4.654  1.00  0.00    -0.176 N 
ATOM      3  H9  UNL     1      33.320  49.328  -5.041  1.00  0.00     0.186 HD
HETATM    4  C10 UNL     1      34.852  50.570  -5.444  1.00  0.00     0.679 A 
HETATM    5  N11 UNL     1      35.617  51.547  -4.957  1.00  0.00    -0.176 N 
ATOM      6  H11 UNL     1      36.352  51.944  -5.543  1.00  0.00     0.186 HD
HETATM    7  C11 UNL     1      35.441  52.023  -3.708  1.00  0.00     0.130 A 
HETATM    8  C12 UNL     1      34.438  51.486  -2.908  1.00  0.00     0.034 A 
HETATM    9  C13 UNL     1      34.282  52.138  -1.599  1.00  0.00     0.083 C 
HETATM   10  C14 UNL     1      35.567  52.393  -0.877  1.00  0.00     0.237 C 
HETATM   11  C15 UNL     1      36.658  52.936  -1.724  1.00  0.00     0.315 C 
HETATM   12  N14 UNL     1      36.282  53.023  -3.148  1.00  0.00    -0.341 N 
HETATM   13  C16 UNL     1      36.753  54.064  -4.013  1.00  0.00     0.153 C 
ENDROOT
BRANCH   1  14
HETATM   14  N8  UNL     1      32.653  49.875  -2.571  1.00  0.00    -0.175 N 
ATOM     15  H8  UNL     1      31.743  50.337  -2.551  1.00  0.00     0.186 HD
BRANCH  14  16
HETATM   16  C8  UNL     1      32.782  48.728  -1.773  1.00  0.00     0.688 C 
HETATM   17  N1  UNL     1      32.547  47.426  -2.252  1.00  0.00    -0.155 N 
HETATM   18  C1  UNL     1      32.196  47.119  -3.650  1.00  0.00     0.178 C 
HETATM   19  C2  UNL     1      32.716  46.351  -1.373  1.00  0.00     0.247 C 
HETATM   20  O1  UNL     1      32.713  45.180  -1.819  1.00  0.00    -0.272 OA
HETATM   21  C3  UNL     1      32.907  46.459   0.127  1.00  0.00     0.128 C 
HETATM   22  C7  UNL     1      33.370  47.841   0.422  1.00  0.00     0.094 C 
HETATM   23  N7  UNL     1      33.157  48.843  -0.525  1.00  0.00    -0.204 N 
ATOM     24  H7  UNL     1      33.315  49.796  -0.200  1.00  0.00     0.183 HD
BRANCH  21  25
HETATM   25  C4  UNL     1      33.837  45.373   0.509  1.00  0.00     0.112 C 
BRANCH  25  26
HETATM   26  S1  UNL     1      33.294  44.312   1.847  1.00  0.00    -0.064 SA
BRANCH  26  27
HETATM   27  N2  UNL     1      34.672  44.339   3.047  1.00  0.00    -0.172 NA
BRANCH  27  28
HETATM   28  C5  UNL     1      34.116  43.702   4.216  1.00  0.00     0.202 C 
BRANCH  28  29
HETATM   29  C6  UNL     1      34.772  42.386   4.462  1.00  0.00     0.128 A 
HETATM   30  N3  UNL     1      35.028  41.979   5.724  1.00  0.00    -0.271 N 
HETATM   31  N4  UNL     1      35.557  40.796   5.647  1.00  0.00    -0.227 N 
ATOM     32  H3  UNL     1      34.841  42.503   6.579  1.00  0.00     0.190 HD
HETATM   33  N5  UNL     1      35.648  40.436   4.408  1.00  0.00    -0.227 N 
ATOM     34  H4  UNL     1      35.855  40.234   6.444  1.00  0.00     0.210 HD
HETATM   35  N6  UNL     1      35.162  41.414   3.627  1.00  0.00    -0.271 N 
ATOM     36  H5  UNL     1      36.030  39.550   4.076  1.00  0.00     0.210 HD
ATOM     37  H6  UNL     1      35.102  41.416   2.608  1.00  0.00     0.190 HD
ENDBRANCH  28  29
ENDBRANCH  27  28
ENDBRANCH  26  27
ENDBRANCH  25  26
ENDBRANCH  21  25
ENDBRANCH  14  16
ENDBRANCH   1  14
BRANCH   4  38
HETATM   38  N10 UNL     1      35.032  50.104  -6.636  1.00  0.00    -0.234 N 
ATOM     39 2H10 UNL     1      34.247  49.943  -7.268  1.00  0.00     0.174 HD
ATOM     40 1H10 UNL     1      35.970  49.896  -6.979  1.00  0.00     0.174 HD
ENDBRANCH   4  38
BRANCH  10  41
HETATM   41  N12 UNL     1      35.301  53.306   0.217  1.00  0.00    -0.071 N 
ATOM     42 3H12 UNL     1      36.041  53.304   0.919  1.00  0.00     0.274 HD
ATOM     43 2H12 UNL     1      35.376  54.284  -0.061  1.00  0.00     0.274 HD
ATOM     44 1H12 UNL     1      34.388  53.078   0.610  1.00  0.00     0.274 HD
ENDBRANCH  10  41
BRANCH  11  45
HETATM   45  N13 UNL     1      37.790  51.997  -1.611  1.00  0.00    -0.056 N 
ATOM     46 3H13 UNL     1      38.204  51.975  -0.678  1.00  0.00     0.276 HD
ATOM     47 2H13 UNL     1      37.507  51.018  -1.648  1.00  0.00     0.276 HD
ATOM     48 1H13 UNL     1      38.456  52.251  -2.340  1.00  0.00     0.276 HD
ENDBRANCH  11  45
TORSDOF 10
ENDMDL
