MODEL 1
REMARK VINA RESULT: -6.210010866      0.000      0.000
REMARK  11 active torsions:
REMARK  status: ('A' for Active; 'I' for Inactive)
REMARK    1  A    between atoms: C2_2  and  C4_12 
REMARK    2  A    between atoms: N1_3  and  N2_5 
REMARK       I    between atoms: N2_5  and  C3_7 
REMARK       I    between atoms: C4_12  and  N5_14 
REMARK    3  A    between atoms: N5_14  and  N6_16 
REMARK    4  A    between atoms: C5_21  and  C6_22 
REMARK    5  A    between atoms: C6_22  and  N9_23 
REMARK    6  A    between atoms: C6_22  and  O2_27 
REMARK    7  A    between atoms: C7_29  and  C8_30 
REMARK    8  A    between atoms: C8_30  and  C9_31 
REMARK    9  A    between atoms: C11_33  and  C12_34 
REMARK   10  A    between atoms: C13_38  and  C14_39 
REMARK   11  A    between atoms: C14_39  and  O4_40 
ROOT
HETATM    1  C14 UNL     1      30.690  42.261   3.538  1.00  0.00     0.167 C 
HETATM    2  N11 UNL     1      30.401  42.975   4.554  1.00  0.00    -0.273 N 
ATOM      3  H11 UNL     1      29.984  42.438   5.314  1.00  0.00     0.180 HD
HETATM    4  C15 UNL     1      30.526  44.286   4.841  1.00  0.00     0.183 C 
HETATM    5  N12 UNL     1      30.621  45.404   5.116  1.00  0.00    -0.172 NA
ENDROOT
BRANCH   1   6
HETATM    6  C13 UNL     1      31.293  42.869   2.361  1.00  0.00     0.064 A 
HETATM    7  C9  UNL     1      32.564  43.236   2.035  1.00  0.00    -0.029 A 
HETATM    8  C10 UNL     1      32.726  43.707   0.750  1.00  0.00     0.033 A 
HETATM    9  C11 UNL     1      31.653  43.775  -0.070  1.00  0.00     0.071 A 
HETATM   10  S1  UNL     1      30.403  43.195   0.895  1.00  0.00    -0.080 SA
BRANCH   7  11
HETATM   11  C8  UNL     1      33.812  43.191   2.918  1.00  0.00     0.103 C 
BRANCH  11  12
HETATM   12  C7  UNL     1      33.880  44.124   4.012  1.00  0.00     0.086 A 
HETATM   13  N6  UNL     1      33.688  45.465   3.891  1.00  0.00    -0.181 N 
HETATM   14  N7  UNL     1      33.790  46.033   5.062  1.00  0.00    -0.221 N 
HETATM   15  N8  UNL     1      34.035  45.129   5.957  1.00  0.00    -0.282 N 
ATOM     16  H7  UNL     1      33.693  47.032   5.245  1.00  0.00     0.210 HD
HETATM   17  C5  UNL     1      34.097  43.898   5.344  1.00  0.00     0.109 A 
ATOM     18  H8  UNL     1      34.161  45.302   6.954  1.00  0.00     0.188 HD
BRANCH  13  19
HETATM   19  N5  UNL     1      33.324  46.227   2.742  1.00  0.00    -0.242 N 
HETATM   20  C4  UNL     1      34.226  47.184   2.225  1.00  0.00     0.285 C 
HETATM   21  O1  UNL     1      35.368  47.357   2.791  1.00  0.00    -0.265 OA
ATOM     22  H5  UNL     1      32.418  46.081   2.296  1.00  0.00     0.192 HD
BRANCH  20  23
HETATM   23  C2  UNL     1      33.972  48.012   1.083  1.00  0.00     0.091 C 
HETATM   24  C1  UNL     1      33.065  47.483  -0.027  1.00  0.00     0.076 C 
HETATM   25  N1  UNL     1      34.420  49.150   0.891  1.00  0.00    -0.297 N 
ATOM     26  H1  UNL     1      34.076  49.506  -0.001  1.00  0.00     0.187 HD
BRANCH  25  27
HETATM   27  N2  UNL     1      35.207  50.068   1.466  1.00  0.00    -0.274 N 
HETATM   28  C3  UNL     1      36.007  50.945   0.678  1.00  0.00     0.200 C 
HETATM   29  N3  UNL     1      35.505  51.458  -0.371  1.00  0.00    -0.372 N 
HETATM   30  N4  UNL     1      37.344  51.245   1.047  1.00  0.00    -0.062 NA
ATOM     31  H32 UNL     1      34.543  51.243  -0.636  1.00  0.00     0.158 HD
ATOM     32  H31 UNL     1      36.077  52.086  -0.936  1.00  0.00     0.158 HD
ATOM     33  H2  UNL     1      35.234  50.142   2.484  1.00  0.00     0.189 HD
ENDBRANCH  25  27
ENDBRANCH  20  23
ENDBRANCH  13  19
BRANCH  17  34
HETATM   34  C6  UNL     1      34.227  42.662   6.155  1.00  0.00     0.370 C 
BRANCH  34  35
HETATM   35  N9  UNL     1      35.194  41.724   5.678  1.00  0.00    -0.047 N 
ATOM     36  H93 UNL     1      35.643  42.081   4.834  1.00  0.00     0.277 HD
ATOM     37  H92 UNL     1      35.996  41.694   6.308  1.00  0.00     0.277 HD
ATOM     38  H91 UNL     1      34.838  40.782   5.517  1.00  0.00     0.277 HD
ENDBRANCH  34  35
BRANCH  34  39
HETATM   39  O2  UNL     1      33.003  41.996   6.210  1.00  0.00    -0.365 OA
ATOM     40  H2  UNL     1      32.647  41.897   5.334  1.00  0.00     0.212 HD
ENDBRANCH  34  39
ENDBRANCH  17  34
ENDBRANCH  11  12
ENDBRANCH   7  11
BRANCH   9  41
HETATM   41  C12 UNL     1      31.588  44.242  -1.471  1.00  0.00     0.271 C 
HETATM   42  N10 UNL     1      30.339  44.613  -1.983  1.00  0.00    -0.057 NA
HETATM   43  O3  UNL     1      32.620  44.289  -2.139  1.00  0.00    -0.270 OA
ENDBRANCH   9  41
ENDBRANCH   1   6
BRANCH   1  44
HETATM   44  O4  UNL     1      30.399  40.938   3.628  1.00  0.00    -0.345 OA
ATOM     45  H4  UNL     1      30.704  40.383   4.336  1.00  0.00     0.219 HD
ENDBRANCH   1  44
TORSDOF 11
ENDMDL
MODEL 2
REMARK VINA RESULT: -6.179162030      2.803      5.911
REMARK  11 active torsions:
REMARK  status: ('A' for Active; 'I' for Inactive)
REMARK    1  A    between atoms: C2_2  and  C4_12 
REMARK    2  A    between atoms: N1_3  and  N2_5 
REMARK       I    between atoms: N2_5  and  C3_7 
REMARK       I    between atoms: C4_12  and  N5_14 
REMARK    3  A    between atoms: N5_14  and  N6_16 
REMARK    4  A    between atoms: C5_21  and  C6_22 
REMARK    5  A    between atoms: C6_22  and  N9_23 
REMARK    6  A    between atoms: C6_22  and  O2_27 
REMARK    7  A    between atoms: C7_29  and  C8_30 
REMARK    8  A    between atoms: C8_30  and  C9_31 
REMARK    9  A    between atoms: C11_33  and  C12_34 
REMARK   10  A    between atoms: C13_38  and  C14_39 
REMARK   11  A    between atoms: C14_39  and  O4_40 
ROOT
HETATM    1  C14 UNL     1      32.032  46.127   1.624  1.00  0.00     0.167 C 
HETATM    2  N11 UNL     1      32.983  46.611   2.321  1.00  0.00    -0.273 N 
ATOM      3  H11 UNL     1      32.710  46.813   3.284  1.00  0.00     0.180 HD
HETATM    4  C15 UNL     1      34.270  46.915   2.064  1.00  0.00     0.183 C 
HETATM    5  N12 UNL     1      35.378  47.183   1.873  1.00  0.00    -0.172 NA
ENDROOT
BRANCH   1   6
HETATM    6  C13 UNL     1      32.248  45.781   0.227  1.00  0.00     0.064 A 
HETATM    7  C9  UNL     1      32.577  44.628  -0.419  1.00  0.00    -0.029 A 
HETATM    8  C10 UNL     1      32.595  44.712  -1.795  1.00  0.00     0.033 A 
HETATM    9  C11 UNL     1      32.301  45.891  -2.389  1.00  0.00     0.071 A 
HETATM   10  S1  UNL     1      31.991  46.906  -1.084  1.00  0.00    -0.080 SA
BRANCH   7  11
HETATM   11  C8  UNL     1      32.926  43.272   0.195  1.00  0.00     0.103 C 
BRANCH  11  12
HETATM   12  C7  UNL     1      32.289  42.928   1.439  1.00  0.00     0.086 A 
HETATM   13  N6  UNL     1      30.969  42.622   1.569  1.00  0.00    -0.181 N 
HETATM   14  N7  UNL     1      30.703  42.332   2.813  1.00  0.00    -0.221 N 
HETATM   15  N8  UNL     1      31.786  42.424   3.516  1.00  0.00    -0.282 N 
ATOM     16  H7  UNL     1      29.785  42.073   3.175  1.00  0.00     0.210 HD
HETATM   17  C5  UNL     1      32.825  42.795   2.691  1.00  0.00     0.109 A 
ATOM     18  H8  UNL     1      31.859  42.251   4.519  1.00  0.00     0.188 HD
BRANCH  13  19
HETATM   19  N5  UNL     1      29.966  42.502   0.563  1.00  0.00    -0.242 N 
HETATM   20  C4  UNL     1      28.863  43.386   0.567  1.00  0.00     0.285 C 
HETATM   21  O1  UNL     1      28.776  44.293   1.475  1.00  0.00    -0.265 OA
ATOM     22  H5  UNL     1      30.045  41.782  -0.157  1.00  0.00     0.192 HD
BRANCH  20  23
HETATM   23  C2  UNL     1      27.792  43.360  -0.385  1.00  0.00     0.091 C 
HETATM   24  C1  UNL     1      26.373  43.078   0.106  1.00  0.00     0.076 C 
HETATM   25  N1  UNL     1      27.893  43.551  -1.604  1.00  0.00    -0.297 N 
ATOM     26  H1  UNL     1      26.973  43.476  -2.039  1.00  0.00     0.187 HD
BRANCH  25  27
HETATM   27  N2  UNL     1      28.811  43.823  -2.541  1.00  0.00    -0.274 N 
HETATM   28  C3  UNL     1      28.746  45.026  -3.301  1.00  0.00     0.200 C 
HETATM   29  N3  UNL     1      28.455  46.112  -2.708  1.00  0.00    -0.372 N 
HETATM   30  N4  UNL     1      28.999  45.024  -4.698  1.00  0.00    -0.062 NA
ATOM     31  H32 UNL     1      28.274  46.114  -1.704  1.00  0.00     0.158 HD
ATOM     32  H31 UNL     1      28.409  46.974  -3.252  1.00  0.00     0.158 HD
ATOM     33  H2  UNL     1      29.566  43.159  -2.714  1.00  0.00     0.189 HD
ENDBRANCH  25  27
ENDBRANCH  20  23
ENDBRANCH  13  19
BRANCH  17  34
HETATM   34  C6  UNL     1      34.215  42.839   3.209  1.00  0.00     0.370 C 
BRANCH  34  35
HETATM   35  N9  UNL     1      34.363  42.455   4.578  1.00  0.00    -0.047 N 
ATOM     36  H93 UNL     1      34.517  43.279   5.159  1.00  0.00     0.277 HD
ATOM     37  H92 UNL     1      33.470  42.136   4.952  1.00  0.00     0.277 HD
ATOM     38  H91 UNL     1      35.087  41.759   4.754  1.00  0.00     0.277 HD
ENDBRANCH  34  35
BRANCH  34  39
HETATM   39  O2  UNL     1      34.728  44.130   3.087  1.00  0.00    -0.365 OA
ATOM     40  H2  UNL     1      35.678  44.108   3.133  1.00  0.00     0.212 HD
ENDBRANCH  34  39
ENDBRANCH  17  34
ENDBRANCH  11  12
ENDBRANCH   7  11
BRANCH   9  41
HETATM   41  C12 UNL     1      32.260  46.213  -3.831  1.00  0.00     0.271 C 
HETATM   42  N10 UNL     1      32.200  47.563  -4.201  1.00  0.00    -0.057 NA
HETATM   43  O3  UNL     1      32.278  45.300  -4.655  1.00  0.00    -0.270 OA
ENDBRANCH   9  41
ENDBRANCH   1   6
BRANCH   1  44
HETATM   44  O4  UNL     1      30.840  45.968   2.256  1.00  0.00    -0.345 OA
ATOM     45  H4  UNL     1      30.317  46.695   2.572  1.00  0.00     0.219 HD
ENDBRANCH   1  44
TORSDOF 11
ENDMDL
MODEL 3
REMARK VINA RESULT: -6.134513304      3.123      5.704
REMARK  11 active torsions:
REMARK  status: ('A' for Active; 'I' for Inactive)
REMARK    1  A    between atoms: C2_2  and  C4_12 
REMARK    2  A    between atoms: N1_3  and  N2_5 
REMARK       I    between atoms: N2_5  and  C3_7 
REMARK       I    between atoms: C4_12  and  N5_14 
REMARK    3  A    between atoms: N5_14  and  N6_16 
REMARK    4  A    between atoms: C5_21  and  C6_22 
REMARK    5  A    between atoms: C6_22  and  N9_23 
REMARK    6  A    between atoms: C6_22  and  O2_27 
REMARK    7  A    between atoms: C7_29  and  C8_30 
REMARK    8  A    between atoms: C8_30  and  C9_31 
REMARK    9  A    between atoms: C11_33  and  C12_34 
REMARK   10  A    between atoms: C13_38  and  C14_39 
REMARK   11  A    between atoms: C14_39  and  O4_40 
ROOT
HETATM    1  C14 UNL     1      32.598  46.278   1.462  1.00  0.00     0.167 C 
HETATM    2  N11 UNL     1      31.501  46.352   2.108  1.00  0.00    -0.273 N 
ATOM      3  H11 UNL     1      31.633  46.576   3.095  1.00  0.00     0.180 HD
HETATM    4  C15 UNL     1      30.205  46.199   1.772  1.00  0.00     0.183 C 
HETATM    5  N12 UNL     1      29.086  46.075   1.512  1.00  0.00    -0.172 NA
ENDROOT
BRANCH   1   6
HETATM    6  C13 UNL     1      32.592  45.967   0.040  1.00  0.00     0.064 A 
HETATM    7  C9  UNL     1      32.563  44.805  -0.670  1.00  0.00    -0.029 A 
HETATM    8  C10 UNL     1      32.476  44.957  -2.038  1.00  0.00     0.033 A 
HETATM    9  C11 UNL     1      32.430  46.201  -2.563  1.00  0.00     0.071 A 
HETATM   10  S1  UNL     1      32.503  47.189  -1.203  1.00  0.00    -0.080 SA
BRANCH   7  11
HETATM   11  C8  UNL     1      32.620  43.373  -0.135  1.00  0.00     0.103 C 
BRANCH  11  12
HETATM   12  C7  UNL     1      31.521  42.931   0.681  1.00  0.00     0.086 A 
HETATM   13  N6  UNL     1      31.624  42.605   1.999  1.00  0.00    -0.181 N 
HETATM   14  N7  UNL     1      30.452  42.267   2.463  1.00  0.00    -0.221 N 
HETATM   15  N8  UNL     1      29.572  42.359   1.517  1.00  0.00    -0.282 N 
ATOM     16  H7  UNL     1      30.258  41.976   3.422  1.00  0.00     0.210 HD
HETATM   17  C5  UNL     1      30.198  42.781   0.365  1.00  0.00     0.109 A 
ATOM     18  H8  UNL     1      28.578  42.152   1.610  1.00  0.00     0.188 HD
BRANCH  13  19
HETATM   19  N5  UNL     1      32.754  42.684   2.864  1.00  0.00    -0.242 N 
HETATM   20  C4  UNL     1      32.697  43.501   4.015  1.00  0.00     0.285 C 
HETATM   21  O1  UNL     1      31.625  44.163   4.275  1.00  0.00    -0.265 OA
ATOM     22  H5  UNL     1      33.600  42.153   2.652  1.00  0.00     0.192 HD
BRANCH  20  23
HETATM   23  C2  UNL     1      33.767  43.666   4.954  1.00  0.00     0.091 C 
HETATM   24  C1  UNL     1      34.437  42.423   5.538  1.00  0.00     0.076 C 
HETATM   25  N1  UNL     1      34.227  44.743   5.356  1.00  0.00    -0.297 N 
ATOM     26  H1  UNL     1      34.984  44.565   6.017  1.00  0.00     0.187 HD
BRANCH  25  27
HETATM   27  N2  UNL     1      34.060  46.064   5.211  1.00  0.00    -0.274 N 
HETATM   28  C3  UNL     1      32.837  46.692   5.582  1.00  0.00     0.200 C 
HETATM   29  N3  UNL     1      32.268  46.340   6.663  1.00  0.00    -0.372 N 
HETATM   30  N4  UNL     1      32.252  47.695   4.764  1.00  0.00    -0.062 NA
ATOM     31  H32 UNL     1      32.688  45.620   7.251  1.00  0.00     0.158 HD
ATOM     32  H31 UNL     1      31.391  46.790   6.928  1.00  0.00     0.158 HD
ATOM     33  H2  UNL     1      34.820  46.628   4.830  1.00  0.00     0.189 HD
ENDBRANCH  25  27
ENDBRANCH  20  23
ENDBRANCH  13  19
BRANCH  17  34
HETATM   34  C6  UNL     1      29.402  43.107  -0.845  1.00  0.00     0.370 C 
BRANCH  34  35
HETATM   35  N9  UNL     1      29.388  44.489  -1.206  1.00  0.00    -0.047 N 
ATOM     36  H93 UNL     1      28.494  44.910  -0.953  1.00  0.00     0.277 HD
ATOM     37  H92 UNL     1      30.012  45.018  -0.597  1.00  0.00     0.277 HD
ATOM     38  H91 UNL     1      29.604  44.682  -2.184  1.00  0.00     0.277 HD
ENDBRANCH  34  35
BRANCH  34  39
HETATM   39  O2  UNL     1      28.076  42.717  -0.662  1.00  0.00    -0.365 OA
ATOM     40  H2  UNL     1      27.528  43.482  -0.525  1.00  0.00     0.212 HD
ENDBRANCH  34  39
ENDBRANCH  17  34
ENDBRANCH  11  12
ENDBRANCH   7  11
BRANCH   9  41
HETATM   41  C12 UNL     1      32.338  46.602  -3.983  1.00  0.00     0.271 C 
HETATM   42  N10 UNL     1      31.870  45.657  -4.904  1.00  0.00    -0.057 NA
HETATM   43  O3  UNL     1      32.674  47.740  -4.311  1.00  0.00    -0.270 OA
ENDBRANCH   9  41
ENDBRANCH   1   6
BRANCH   1  44
HETATM   44  O4  UNL     1      33.734  46.496   2.173  1.00  0.00    -0.345 OA
ATOM     45  H4  UNL     1      34.089  45.870   2.794  1.00  0.00     0.219 HD
ENDBRANCH   1  44
TORSDOF 11
ENDMDL
MODEL 4
REMARK VINA RESULT: -6.089903739      3.119      6.953
REMARK  11 active torsions:
REMARK  status: ('A' for Active; 'I' for Inactive)
REMARK    1  A    between atoms: C2_2  and  C4_12 
REMARK    2  A    between atoms: N1_3  and  N2_5 
REMARK       I    between atoms: N2_5  and  C3_7 
REMARK       I    between atoms: C4_12  and  N5_14 
REMARK    3  A    between atoms: N5_14  and  N6_16 
REMARK    4  A    between atoms: C5_21  and  C6_22 
REMARK    5  A    between atoms: C6_22  and  N9_23 
REMARK    6  A    between atoms: C6_22  and  O2_27 
REMARK    7  A    between atoms: C7_29  and  C8_30 
REMARK    8  A    between atoms: C8_30  and  C9_31 
REMARK    9  A    between atoms: C11_33  and  C12_34 
REMARK   10  A    between atoms: C13_38  and  C14_39 
REMARK   11  A    between atoms: C14_39  and  O4_40 
ROOT
HETATM    1  C14 UNL     1      31.598  46.511  -1.392  1.00  0.00     0.167 C 
HETATM    2  N11 UNL     1      31.973  45.434  -1.963  1.00  0.00    -0.273 N 
ATOM      3  H11 UNL     1      31.628  45.349  -2.919  1.00  0.00     0.180 HD
HETATM    4  C15 UNL     1      32.724  44.385  -1.578  1.00  0.00     0.183 C 
HETATM    5  N12 UNL     1      33.366  43.472  -1.276  1.00  0.00    -0.172 NA
ENDROOT
BRANCH   1   6
HETATM    6  C13 UNL     1      32.001  46.794  -0.022  1.00  0.00     0.064 A 
HETATM    7  C9  UNL     1      31.465  46.506   1.197  1.00  0.00    -0.029 A 
HETATM    8  C10 UNL     1      32.230  46.889   2.278  1.00  0.00     0.033 A 
HETATM    9  C11 UNL     1      33.414  47.505   2.065  1.00  0.00     0.071 A 
HETATM   10  S1  UNL     1      33.509  47.572   0.387  1.00  0.00    -0.080 SA
BRANCH   7  11
HETATM   11  C8  UNL     1      30.132  45.821   1.500  1.00  0.00     0.103 C 
BRANCH  11  12
HETATM   12  C7  UNL     1      29.956  44.477   1.016  1.00  0.00     0.086 A 
HETATM   13  N6  UNL     1      29.139  44.133  -0.017  1.00  0.00    -0.181 N 
HETATM   14  N7  UNL     1      29.216  42.847  -0.231  1.00  0.00    -0.221 N 
HETATM   15  N8  UNL     1      30.051  42.322   0.608  1.00  0.00    -0.282 N 
ATOM     16  H7  UNL     1      28.700  42.336  -0.947  1.00  0.00     0.210 HD
HETATM   17  C5  UNL     1      30.554  43.314   1.420  1.00  0.00     0.109 A 
ATOM     18  H8  UNL     1      30.297  41.333   0.659  1.00  0.00     0.188 HD
BRANCH  13  19
HETATM   19  N5  UNL     1      28.360  44.967  -0.870  1.00  0.00    -0.242 N 
HETATM   20  C4  UNL     1      28.513  44.870  -2.272  1.00  0.00     0.285 C 
HETATM   21  O1  UNL     1      29.350  44.027  -2.765  1.00  0.00    -0.265 OA
ATOM     22  H5  UNL     1      27.695  45.631  -0.471  1.00  0.00     0.192 HD
BRANCH  20  23
HETATM   23  C2  UNL     1      27.793  45.657  -3.229  1.00  0.00     0.091 C 
HETATM   24  C1  UNL     1      26.265  45.615  -3.222  1.00  0.00     0.076 C 
HETATM   25  N1  UNL     1      28.289  46.395  -4.089  1.00  0.00    -0.297 N 
ATOM     26  H1  UNL     1      27.545  46.835  -4.632  1.00  0.00     0.187 HD
BRANCH  25  27
HETATM   27  N2  UNL     1      29.479  46.809  -4.544  1.00  0.00    -0.274 N 
HETATM   28  C3  UNL     1      30.320  45.935  -5.292  1.00  0.00     0.200 C 
HETATM   29  N3  UNL     1      29.798  45.188  -6.178  1.00  0.00    -0.372 N 
HETATM   30  N4  UNL     1      31.720  45.890  -5.059  1.00  0.00    -0.062 NA
ATOM     31  H32 UNL     1      28.792  45.220  -6.346  1.00  0.00     0.158 HD
ATOM     32  H31 UNL     1      30.400  44.562  -6.713  1.00  0.00     0.158 HD
ATOM     33  H2  UNL     1      29.788  47.762  -4.353  1.00  0.00     0.189 HD
ENDBRANCH  25  27
ENDBRANCH  20  23
ENDBRANCH  13  19
BRANCH  17  34
HETATM   34  C6  UNL     1      31.641  43.015   2.385  1.00  0.00     0.370 C 
BRANCH  34  35
HETATM   35  N9  UNL     1      32.962  43.284   1.910  1.00  0.00    -0.047 N 
ATOM     36  H93 UNL     1      33.032  43.056   0.919  1.00  0.00     0.277 HD
ATOM     37  H92 UNL     1      33.125  44.290   1.874  1.00  0.00     0.277 HD
ATOM     38  H91 UNL     1      33.709  42.825   2.432  1.00  0.00     0.277 HD
ENDBRANCH  34  35
BRANCH  34  39
HETATM   39  O2  UNL     1      31.601  41.670   2.747  1.00  0.00    -0.365 OA
ATOM     40  H2  UNL     1      30.830  41.498   3.275  1.00  0.00     0.212 HD
ENDBRANCH  34  39
ENDBRANCH  17  34
ENDBRANCH  11  12
ENDBRANCH   7  11
BRANCH   9  41
HETATM   41  C12 UNL     1      34.390  48.000   3.059  1.00  0.00     0.271 C 
HETATM   42  N10 UNL     1      34.418  49.375   3.324  1.00  0.00    -0.057 NA
HETATM   43  O3  UNL     1      35.141  47.201   3.617  1.00  0.00    -0.270 OA
ENDBRANCH   9  41
ENDBRANCH   1   6
BRANCH   1  44
HETATM   44  O4  UNL     1      30.817  47.344  -2.127  1.00  0.00    -0.345 OA
ATOM     45  H4  UNL     1      31.162  47.938  -2.784  1.00  0.00     0.219 HD
ENDBRANCH   1  44
TORSDOF 11
ENDMDL
MODEL 5
REMARK VINA RESULT: -5.990910029      2.588      5.929
REMARK  11 active torsions:
REMARK  status: ('A' for Active; 'I' for Inactive)
REMARK    1  A    between atoms: C2_2  and  C4_12 
REMARK    2  A    between atoms: N1_3  and  N2_5 
REMARK       I    between atoms: N2_5  and  C3_7 
REMARK       I    between atoms: C4_12  and  N5_14 
REMARK    3  A    between atoms: N5_14  and  N6_16 
REMARK    4  A    between atoms: C5_21  and  C6_22 
REMARK    5  A    between atoms: C6_22  and  N9_23 
REMARK    6  A    between atoms: C6_22  and  O2_27 
REMARK    7  A    between atoms: C7_29  and  C8_30 
REMARK    8  A    between atoms: C8_30  and  C9_31 
REMARK    9  A    between atoms: C11_33  and  C12_34 
REMARK   10  A    between atoms: C13_38  and  C14_39 
REMARK   11  A    between atoms: C14_39  and  O4_40 
ROOT
HETATM    1  C14 UNL     1      33.602  43.800   2.776  1.00  0.00     0.167 C 
HETATM    2  N11 UNL     1      33.940  43.591   3.987  1.00  0.00    -0.273 N 
ATOM      3  H11 UNL     1      34.074  42.602   4.199  1.00  0.00     0.180 HD
HETATM    4  C15 UNL     1      34.159  44.391   5.049  1.00  0.00     0.183 C 
HETATM    5  N12 UNL     1      34.354  45.052   5.976  1.00  0.00    -0.172 NA
ENDROOT
BRANCH   1   6
HETATM    6  C13 UNL     1      33.369  45.157   2.303  1.00  0.00     0.064 A 
HETATM    7  C9  UNL     1      32.247  45.892   2.064  1.00  0.00    -0.029 A 
HETATM    8  C10 UNL     1      32.473  47.203   1.700  1.00  0.00     0.033 A 
HETATM    9  C11 UNL     1      33.744  47.653   1.604  1.00  0.00     0.071 A 
HETATM   10  S1  UNL     1      34.656  46.299   2.011  1.00  0.00    -0.080 SA
BRANCH   7  11
HETATM   11  C8  UNL     1      30.789  45.439   2.147  1.00  0.00     0.103 C 
BRANCH  11  12
HETATM   12  C7  UNL     1      30.373  44.388   1.257  1.00  0.00     0.086 A 
HETATM   13  N6  UNL     1      30.313  44.507  -0.098  1.00  0.00    -0.181 N 
HETATM   14  N7  UNL     1      29.925  43.377  -0.624  1.00  0.00    -0.221 N 
HETATM   15  N8  UNL     1      29.730  42.510   0.319  1.00  0.00    -0.282 N 
ATOM     16  H7  UNL     1      29.795  43.203  -1.620  1.00  0.00     0.210 HD
HETATM   17  C5  UNL     1      30.006  43.099   1.532  1.00  0.00     0.109 A 
ATOM     18  H8  UNL     1      29.423  41.547   0.183  1.00  0.00     0.188 HD
BRANCH  13  19
HETATM   19  N5  UNL     1      30.690  45.604  -0.927  1.00  0.00    -0.242 N 
HETATM   20  C4  UNL     1      31.651  45.412  -1.944  1.00  0.00     0.285 C 
HETATM   21  O1  UNL     1      32.175  44.249  -2.117  1.00  0.00    -0.265 OA
ATOM     22  H5  UNL     1      30.267  46.522  -0.786  1.00  0.00     0.192 HD
BRANCH  20  23
HETATM   23  C2  UNL     1      32.114  46.436  -2.834  1.00  0.00     0.091 C 
HETATM   24  C1  UNL     1      32.776  47.682  -2.248  1.00  0.00     0.076 C 
HETATM   25  N1  UNL     1      32.036  46.420  -4.070  1.00  0.00    -0.297 N 
ATOM     26  H1  UNL     1      32.446  47.274  -4.449  1.00  0.00     0.187 HD
BRANCH  25  27
HETATM   27  N2  UNL     1      31.593  45.652  -5.074  1.00  0.00    -0.274 N 
HETATM   28  C3  UNL     1      30.399  45.983  -5.776  1.00  0.00     0.200 C 
HETATM   29  N3  UNL     1      30.184  47.197  -6.084  1.00  0.00    -0.372 N 
HETATM   30  N4  UNL     1      29.457  44.981  -6.129  1.00  0.00    -0.062 NA
ATOM     31  H32 UNL     1      30.860  47.917  -5.831  1.00  0.00     0.158 HD
ATOM     32  H31 UNL     1      29.328  47.434  -6.587  1.00  0.00     0.158 HD
ATOM     33  H2  UNL     1      32.119  44.819  -5.340  1.00  0.00     0.189 HD
ENDBRANCH  25  27
ENDBRANCH  20  23
ENDBRANCH  13  19
BRANCH  17  34
HETATM   34  C6  UNL     1      30.000  42.290   2.777  1.00  0.00     0.370 C 
BRANCH  34  35
HETATM   35  N9  UNL     1      31.135  41.440   2.951  1.00  0.00    -0.047 N 
ATOM     36  H93 UNL     1      31.507  41.538   3.895  1.00  0.00     0.277 HD
ATOM     37  H92 UNL     1      30.843  40.463   2.974  1.00  0.00     0.277 HD
ATOM     38  H91 UNL     1      31.879  41.568   2.264  1.00  0.00     0.277 HD
ENDBRANCH  34  35
BRANCH  34  39
HETATM   39  O2  UNL     1      28.869  41.477   2.813  1.00  0.00    -0.365 OA
ATOM     40  H2  UNL     1      29.044  40.657   2.364  1.00  0.00     0.212 HD
ENDBRANCH  34  39
ENDBRANCH  17  34
ENDBRANCH  11  12
ENDBRANCH   7  11
BRANCH   9  41
HETATM   41  C12 UNL     1      34.221  49.002   1.234  1.00  0.00     0.271 C 
HETATM   42  N10 UNL     1      33.297  49.898   0.683  1.00  0.00    -0.057 NA
HETATM   43  O3  UNL     1      35.402  49.295   1.415  1.00  0.00    -0.270 OA
ENDBRANCH   9  41
ENDBRANCH   1   6
BRANCH   1  44
HETATM   44  O4  UNL     1      33.472  42.703   1.987  1.00  0.00    -0.345 OA
ATOM     45  H4  UNL     1      33.518  42.734   1.038  1.00  0.00     0.219 HD
ENDBRANCH   1  44
TORSDOF 11
ENDMDL
