MODEL 1
REMARK VINA RESULT: -6.207400691      0.000      0.000
REMARK  10 active torsions:
REMARK  status: ('A' for Active; 'I' for Inactive)
REMARK    1  A    between atoms: O1_2  and  N1_3 
REMARK    2  A    between atoms: C2_5  and  C3_6 
REMARK    3  A    between atoms: C2_5  and  C14_44 
REMARK    4  A    between atoms: C6_17  and  N6_18 
REMARK       I    between atoms: N6_18  and  C7_20 
REMARK       I    between atoms: C7_20  and  N8_24 
REMARK    5  A    between atoms: N8_24  and  N9_26 
REMARK    6  A    between atoms: C8_28  and  C10_30 
REMARK    7  A    between atoms: C11_37  and  C12_38 
REMARK    8  A    between atoms: C14_44  and  N15_45 
REMARK    9  A    between atoms: C14_44  and  C15_49 
REMARK   10  A    between atoms: C15_49  and  O3_50 
ROOT
HETATM    1  C3  UNL     1      40.712  53.283   7.195  1.00  0.00     0.147 A 
HETATM    2  N2  UNL     1      39.678  52.899   7.950  1.00  0.00    -0.282 N 
ATOM      3  H2  UNL     1      39.830  52.834   8.957  1.00  0.00     0.188 HD
HETATM    4  N3  UNL     1      38.477  52.597   7.499  1.00  0.00    -0.282 N 
ATOM      5  H3  UNL     1      37.743  52.312   8.148  1.00  0.00     0.188 HD
HETATM    6  C4  UNL     1      38.221  52.667   6.168  1.00  0.00     0.152 A 
HETATM    7  N4  UNL     1      37.016  52.371   5.648  1.00  0.00    -0.336 N 
ATOM      8  H4  UNL     1      36.253  52.082   6.261  1.00  0.00     0.168 HD
HETATM    9  C5  UNL     1      36.813  52.457   4.302  1.00  0.00     0.183 A 
HETATM   10  N5  UNL     1      37.800  52.837   3.460  1.00  0.00    -0.336 N 
ATOM     11  H5  UNL     1      37.633  52.897   2.456  1.00  0.00     0.168 HD
HETATM   12  C6  UNL     1      39.009  53.135   3.978  1.00  0.00     0.152 A 
HETATM   13  C13 UNL     1      39.260  53.060   5.352  1.00  0.00     0.125 A 
HETATM   14  N14 UNL     1      40.474  53.360   5.854  1.00  0.00    -0.334 N 
ATOM     15  H14 UNL     1      41.223  53.648   5.225  1.00  0.00     0.168 HD
ENDROOT
BRANCH  12  16
HETATM   16  N6  UNL     1      40.012  53.509   3.265  1.00  0.00    -0.173 N 
HETATM   17  C7  UNL     1      39.773  53.899   1.925  1.00  0.00     0.692 C 
HETATM   18  N7  UNL     1      40.059  53.160   0.913  1.00  0.00    -0.233 N 
HETATM   19  N8  UNL     1      39.184  55.181   1.658  1.00  0.00    -0.132 N 
ATOM     20  H72 UNL     1      40.477  52.250   1.103  1.00  0.00     0.174 HD
ATOM     21  H71 UNL     1      39.886  53.441  -0.052  1.00  0.00     0.174 HD
ATOM     22  H8  UNL     1      39.205  55.865   2.414  1.00  0.00     0.205 HD
ATOM     23  H6  UNL     1      40.954  53.523   3.654  1.00  0.00     0.186 HD
BRANCH  19  24
HETATM   24  N9  UNL     1      38.614  55.559   0.517  1.00  0.00    -0.289 N 
HETATM   25  C8  UNL     1      37.525  55.470  -0.100  1.00  0.00     0.053 C 
HETATM   26  C9  UNL     1      37.465  56.143  -1.434  1.00  0.00     0.072 C 
ATOM     27  H9  UNL     1      39.280  56.098  -0.037  1.00  0.00     0.187 HD
BRANCH  25  28
HETATM   28  C10 UNL     1      36.413  54.677   0.402  1.00  0.00     0.106 A 
HETATM   29  N10 UNL     1      35.318  55.222   1.031  1.00  0.00    -0.282 N 
HETATM   30  N11 UNL     1      34.572  54.233   1.460  1.00  0.00    -0.242 N 
ATOM     31  H10 UNL     1      35.122  56.217   1.144  1.00  0.00     0.188 HD
HETATM   32  N12 UNL     1      35.096  53.089   1.156  1.00  0.00    -0.279 N 
ATOM     33  H11 UNL     1      33.694  54.349   1.966  1.00  0.00     0.208 HD
HETATM   34  C11 UNL     1      36.279  53.335   0.473  1.00  0.00     0.144 A 
ATOM     35  H12 UNL     1      34.709  52.172   1.379  1.00  0.00     0.189 HD
BRANCH  34  36
HETATM   36  C12 UNL     1      36.999  52.201  -0.075  1.00  0.00     0.285 C 
HETATM   37  N13 UNL     1      37.442  51.143   0.818  1.00  0.00    -0.056 NA
HETATM   38  O2  UNL     1      37.289  52.030  -1.266  1.00  0.00    -0.269 OA
ENDBRANCH  34  36
ENDBRANCH  25  28
ENDBRANCH  19  24
ENDBRANCH  12  16
BRANCH   1  39
HETATM   39  C2  UNL     1      42.016  53.603   7.755  1.00  0.00     0.110 C 
HETATM   40  N1  UNL     1      42.270  54.810   8.112  1.00  0.00    -0.265 N 
ATOM     41  H1  UNL     1      43.186  55.031   8.504  1.00  0.00     0.194 HD
BRANCH  40  42
HETATM   42  O1  UNL     1      41.347  55.798   7.980  1.00  0.00    -0.285 OA
HETATM   43  C1  UNL     1      41.366  57.005   8.689  1.00  0.00     0.237 C 
ENDBRANCH  40  42
BRANCH  39  44
HETATM   44  C14 UNL     1      43.073  52.562   7.926  1.00  0.00     0.262 C 
BRANCH  44  45
HETATM   45  N15 UNL     1      44.302  53.075   7.344  1.00  0.00    -0.067 N 
ATOM     46 3H15 UNL     1      44.228  53.235   6.339  1.00  0.00     0.275 HD
ATOM     47 2H15 UNL     1      44.500  54.037   7.620  1.00  0.00     0.275 HD
ATOM     48 1H15 UNL     1      45.056  52.432   7.587  1.00  0.00     0.275 HD
ENDBRANCH  44  45
BRANCH  44  49
HETATM   49  C15 UNL     1      43.324  52.313   9.377  1.00  0.00     0.203 C 
BRANCH  49  50
HETATM   50  O3  UNL     1      44.262  53.211   9.900  1.00  0.00    -0.398 OA
ATOM     51  H3  UNL     1      44.766  53.630   9.212  1.00  0.00     0.209 HD
ENDBRANCH  49  50
ENDBRANCH  44  49
ENDBRANCH  39  44
ENDBRANCH   1  39
TORSDOF 10
ENDMDL
MODEL 2
REMARK VINA RESULT: -6.195575544      9.868     13.641
REMARK  10 active torsions:
REMARK  status: ('A' for Active; 'I' for Inactive)
REMARK    1  A    between atoms: O1_2  and  N1_3 
REMARK    2  A    between atoms: C2_5  and  C3_6 
REMARK    3  A    between atoms: C2_5  and  C14_44 
REMARK    4  A    between atoms: C6_17  and  N6_18 
REMARK       I    between atoms: N6_18  and  C7_20 
REMARK       I    between atoms: C7_20  and  N8_24 
REMARK    5  A    between atoms: N8_24  and  N9_26 
REMARK    6  A    between atoms: C8_28  and  C10_30 
REMARK    7  A    between atoms: C11_37  and  C12_38 
REMARK    8  A    between atoms: C14_44  and  N15_45 
REMARK    9  A    between atoms: C14_44  and  C15_49 
REMARK   10  A    between atoms: C15_49  and  O3_50 
ROOT
HETATM    1  C3  UNL     1      32.188  44.440   1.972  1.00  0.00     0.147 A 
HETATM    2  N2  UNL     1      32.160  43.250   1.361  1.00  0.00    -0.282 N 
ATOM      3  H2  UNL     1      32.630  43.175   0.459  1.00  0.00     0.188 HD
HETATM    4  N3  UNL     1      31.574  42.168   1.831  1.00  0.00    -0.282 N 
ATOM      5  H3  UNL     1      31.602  41.299   1.298  1.00  0.00     0.188 HD
HETATM    6  C4  UNL     1      30.935  42.213   3.028  1.00  0.00     0.152 A 
HETATM    7  N4  UNL     1      30.319  41.142   3.558  1.00  0.00    -0.336 N 
ATOM      8  H4  UNL     1      30.322  40.253   3.059  1.00  0.00     0.168 HD
HETATM    9  C5  UNL     1      29.690  41.244   4.764  1.00  0.00     0.183 A 
HETATM   10  N5  UNL     1      29.666  42.405   5.454  1.00  0.00    -0.336 N 
ATOM     11  H5  UNL     1      29.192  42.466   6.356  1.00  0.00     0.168 HD
HETATM   12  C6  UNL     1      30.283  43.481   4.926  1.00  0.00     0.152 A 
HETATM   13  C13 UNL     1      30.940  43.421   3.692  1.00  0.00     0.125 A 
HETATM   14  N14 UNL     1      31.551  44.505   3.176  1.00  0.00    -0.334 N 
ATOM     15  H14 UNL     1      31.537  45.385   3.692  1.00  0.00     0.168 HD
ENDROOT
BRANCH  12  16
HETATM   16  N6  UNL     1      30.321  44.631   5.502  1.00  0.00    -0.173 N 
HETATM   17  C7  UNL     1      31.102  44.767   6.675  1.00  0.00     0.692 C 
HETATM   18  N7  UNL     1      30.599  44.828   7.855  1.00  0.00    -0.233 N 
HETATM   19  N8  UNL     1      32.531  44.844   6.564  1.00  0.00    -0.132 N 
ATOM     20  H72 UNL     1      29.583  44.774   7.933  1.00  0.00     0.174 HD
ATOM     21  H71 UNL     1      31.162  44.926   8.700  1.00  0.00     0.174 HD
ATOM     22  H8  UNL     1      32.913  45.064   5.645  1.00  0.00     0.205 HD
ATOM     23  H6  UNL     1      29.801  45.423   5.125  1.00  0.00     0.186 HD
BRANCH  19  24
HETATM   24  N9  UNL     1      33.405  44.655   7.550  1.00  0.00    -0.289 N 
HETATM   25  C8  UNL     1      34.298  43.851   7.915  1.00  0.00     0.053 C 
HETATM   26  C9  UNL     1      34.994  44.177   9.197  1.00  0.00     0.072 C 
ATOM     27  H9  UNL     1      33.323  45.410   8.231  1.00  0.00     0.187 HD
BRANCH  25  28
HETATM   28  C10 UNL     1      34.576  42.622   7.189  1.00  0.00     0.106 A 
HETATM   29  N10 UNL     1      34.811  41.415   7.807  1.00  0.00    -0.282 N 
HETATM   30  N11 UNL     1      35.143  40.550   6.878  1.00  0.00    -0.242 N 
ATOM     31  H10 UNL     1      34.740  41.227   8.807  1.00  0.00     0.188 HD
HETATM   32  N12 UNL     1      35.140  41.101   5.707  1.00  0.00    -0.279 N 
ATOM     33  H11 UNL     1      35.374  39.573   7.056  1.00  0.00     0.208 HD
HETATM   34  C11 UNL     1      34.777  42.431   5.867  1.00  0.00     0.144 A 
ATOM     35  H12 UNL     1      35.364  40.640   4.825  1.00  0.00     0.189 HD
BRANCH  34  36
HETATM   36  C12 UNL     1      34.592  43.237   4.675  1.00  0.00     0.285 C 
HETATM   37  N13 UNL     1      34.470  42.577   3.385  1.00  0.00    -0.056 NA
HETATM   38  O2  UNL     1      34.524  44.471   4.634  1.00  0.00    -0.269 OA
ENDBRANCH  34  36
ENDBRANCH  25  28
ENDBRANCH  19  24
ENDBRANCH  12  16
BRANCH   1  39
HETATM   39  C2  UNL     1      32.853  45.600   1.399  1.00  0.00     0.110 C 
HETATM   40  N1  UNL     1      32.498  46.022   0.241  1.00  0.00    -0.265 N 
ATOM     41  H1  UNL     1      32.966  46.836  -0.158  1.00  0.00     0.194 HD
BRANCH  40  42
HETATM   42  O1  UNL     1      31.512  45.410  -0.466  1.00  0.00    -0.285 OA
HETATM   43  C1  UNL     1      31.646  44.945  -1.779  1.00  0.00     0.237 C 
ENDBRANCH  40  42
BRANCH  39  44
HETATM   44  C14 UNL     1      33.944  46.316   2.126  1.00  0.00     0.262 C 
BRANCH  44  45
HETATM   45  N15 UNL     1      35.176  45.570   1.930  1.00  0.00    -0.067 N 
ATOM     46 3H15 UNL     1      35.327  45.307   0.955  1.00  0.00     0.275 HD
ATOM     47 2H15 UNL     1      36.010  46.145   2.046  1.00  0.00     0.275 HD
ATOM     48 1H15 UNL     1      35.159  44.767   2.558  1.00  0.00     0.275 HD
ENDBRANCH  44  45
BRANCH  44  49
HETATM   49  C15 UNL     1      34.140  47.681   1.549  1.00  0.00     0.203 C 
BRANCH  49  50
HETATM   50  O3  UNL     1      35.397  48.202   1.875  1.00  0.00    -0.398 OA
ATOM     51  H3  UNL     1      35.388  49.151   1.895  1.00  0.00     0.209 HD
ENDBRANCH  49  50
ENDBRANCH  44  49
ENDBRANCH  39  44
ENDBRANCH   1  39
TORSDOF 10
ENDMDL
MODEL 3
REMARK VINA RESULT: -6.165957633      2.288      8.687
REMARK  10 active torsions:
REMARK  status: ('A' for Active; 'I' for Inactive)
REMARK    1  A    between atoms: O1_2  and  N1_3 
REMARK    2  A    between atoms: C2_5  and  C3_6 
REMARK    3  A    between atoms: C2_5  and  C14_44 
REMARK    4  A    between atoms: C6_17  and  N6_18 
REMARK       I    between atoms: N6_18  and  C7_20 
REMARK       I    between atoms: C7_20  and  N8_24 
REMARK    5  A    between atoms: N8_24  and  N9_26 
REMARK    6  A    between atoms: C8_28  and  C10_30 
REMARK    7  A    between atoms: C11_37  and  C12_38 
REMARK    8  A    between atoms: C14_44  and  N15_45 
REMARK    9  A    between atoms: C14_44  and  C15_49 
REMARK   10  A    between atoms: C15_49  and  O3_50 
ROOT
HETATM    1  C3  UNL     1      37.955  53.653   2.880  1.00  0.00     0.147 A 
HETATM    2  N2  UNL     1      37.307  54.791   3.151  1.00  0.00    -0.282 N 
ATOM      3  H2  UNL     1      36.680  55.156   2.434  1.00  0.00     0.188 HD
HETATM    4  N3  UNL     1      37.413  55.478   4.270  1.00  0.00    -0.282 N 
ATOM      5  H3  UNL     1      36.880  56.339   4.395  1.00  0.00     0.188 HD
HETATM    6  C4  UNL     1      38.233  55.036   5.258  1.00  0.00     0.152 A 
HETATM    7  N4  UNL     1      38.382  55.694   6.421  1.00  0.00    -0.336 N 
ATOM      8  H4  UNL     1      37.868  56.558   6.587  1.00  0.00     0.168 HD
HETATM    9  C5  UNL     1      39.221  55.205   7.379  1.00  0.00     0.183 A 
HETATM   10  N5  UNL     1      39.918  54.061   7.194  1.00  0.00    -0.336 N 
ATOM     11  H5  UNL     1      40.541  53.707   7.919  1.00  0.00     0.168 HD
HETATM   12  C6  UNL     1      39.770  53.399   6.028  1.00  0.00     0.152 A 
HETATM   13  C13 UNL     1      38.921  53.865   5.019  1.00  0.00     0.125 A 
HETATM   14  N14 UNL     1      38.784  53.192   3.860  1.00  0.00    -0.334 N 
ATOM     15  H14 UNL     1      39.307  52.328   3.713  1.00  0.00     0.168 HD
ENDROOT
BRANCH  12  16
HETATM   16  N6  UNL     1      40.384  52.302   5.754  1.00  0.00    -0.173 N 
HETATM   17  C7  UNL     1      41.158  51.695   6.773  1.00  0.00     0.692 C 
HETATM   18  N7  UNL     1      42.441  51.739   6.805  1.00  0.00    -0.233 N 
HETATM   19  N8  UNL     1      40.497  50.988   7.833  1.00  0.00    -0.132 N 
ATOM     20  H72 UNL     1      42.911  52.241   6.052  1.00  0.00     0.174 HD
ATOM     21  H71 UNL     1      42.998  51.302   7.540  1.00  0.00     0.174 HD
ATOM     22  H8  UNL     1      39.525  50.722   7.675  1.00  0.00     0.205 HD
ATOM     23  H6  UNL     1      40.317  51.882   4.827  1.00  0.00     0.186 HD
BRANCH  19  24
HETATM   24  N9  UNL     1      41.033  50.646   9.001  1.00  0.00    -0.289 N 
HETATM   25  C8  UNL     1      41.380  51.155  10.095  1.00  0.00     0.053 C 
HETATM   26  C9  UNL     1      41.962  50.216  11.104  1.00  0.00     0.072 C 
ATOM     27  H9  UNL     1      41.225  49.645   9.012  1.00  0.00     0.187 HD
BRANCH  25  28
HETATM   28  C10 UNL     1      41.315  52.587  10.339  1.00  0.00     0.106 A 
HETATM   29  N10 UNL     1      40.171  53.235  10.744  1.00  0.00    -0.282 N 
HETATM   30  N11 UNL     1      40.423  54.522  10.753  1.00  0.00    -0.242 N 
ATOM     31  H10 UNL     1      39.285  52.793  10.993  1.00  0.00     0.188 HD
HETATM   32  N12 UNL     1      41.642  54.759  10.388  1.00  0.00    -0.279 N 
ATOM     33  H11 UNL     1      39.748  55.241  11.013  1.00  0.00     0.208 HD
HETATM   34  C11 UNL     1      42.246  53.540  10.117  1.00  0.00     0.144 A 
ATOM     35  H12 UNL     1      42.079  55.678  10.312  1.00  0.00     0.189 HD
BRANCH  34  36
HETATM   36  C12 UNL     1      43.661  53.535   9.794  1.00  0.00     0.285 C 
HETATM   37  N13 UNL     1      44.075  53.764   8.419  1.00  0.00    -0.056 NA
HETATM   38  O2  UNL     1      44.589  53.352  10.590  1.00  0.00    -0.269 OA
ENDBRANCH  34  36
ENDBRANCH  25  28
ENDBRANCH  19  24
ENDBRANCH  12  16
BRANCH   1  39
HETATM   39  C2  UNL     1      37.796  52.940   1.622  1.00  0.00     0.110 C 
HETATM   40  N1  UNL     1      36.902  52.024   1.525  1.00  0.00    -0.265 N 
ATOM     41  H1  UNL     1      36.793  51.526   0.642  1.00  0.00     0.194 HD
BRANCH  40  42
HETATM   42  O1  UNL     1      36.099  51.703   2.573  1.00  0.00    -0.285 OA
HETATM   43  C1  UNL     1      34.743  51.374   2.464  1.00  0.00     0.237 C 
ENDBRANCH  40  42
BRANCH  39  44
HETATM   44  C14 UNL     1      38.648  53.246   0.434  1.00  0.00     0.262 C 
BRANCH  44  45
HETATM   45  N15 UNL     1      38.071  54.394  -0.245  1.00  0.00    -0.067 N 
ATOM     46 3H15 UNL     1      37.366  54.132  -0.936  1.00  0.00     0.275 HD
ATOM     47 2H15 UNL     1      37.466  54.950   0.360  1.00  0.00     0.275 HD
ATOM     48 1H15 UNL     1      38.835  54.938  -0.647  1.00  0.00     0.275 HD
ENDBRANCH  44  45
BRANCH  44  49
HETATM   49  C15 UNL     1      40.027  53.620   0.869  1.00  0.00     0.203 C 
BRANCH  49  50
HETATM   50  O3  UNL     1      40.746  52.506   1.316  1.00  0.00    -0.398 OA
ATOM     51  H3  UNL     1      40.458  52.226   2.177  1.00  0.00     0.209 HD
ENDBRANCH  49  50
ENDBRANCH  44  49
ENDBRANCH  39  44
ENDBRANCH   1  39
TORSDOF 10
ENDMDL
MODEL 4
REMARK VINA RESULT: -6.084887902     10.237     13.820
REMARK  10 active torsions:
REMARK  status: ('A' for Active; 'I' for Inactive)
REMARK    1  A    between atoms: O1_2  and  N1_3 
REMARK    2  A    between atoms: C2_5  and  C3_6 
REMARK    3  A    between atoms: C2_5  and  C14_44 
REMARK    4  A    between atoms: C6_17  and  N6_18 
REMARK       I    between atoms: N6_18  and  C7_20 
REMARK       I    between atoms: C7_20  and  N8_24 
REMARK    5  A    between atoms: N8_24  and  N9_26 
REMARK    6  A    between atoms: C8_28  and  C10_30 
REMARK    7  A    between atoms: C11_37  and  C12_38 
REMARK    8  A    between atoms: C14_44  and  N15_45 
REMARK    9  A    between atoms: C14_44  and  C15_49 
REMARK   10  A    between atoms: C15_49  and  O3_50 
ROOT
HETATM    1  C3  UNL     1      29.941  43.314   0.335  1.00  0.00     0.147 A 
HETATM    2  N2  UNL     1      30.696  42.213   0.416  1.00  0.00    -0.282 N 
ATOM      3  H2  UNL     1      30.463  41.438  -0.204  1.00  0.00     0.188 HD
HETATM    4  N3  UNL     1      31.717  42.050   1.232  1.00  0.00    -0.282 N 
ATOM      5  H3  UNL     1      32.240  41.174   1.228  1.00  0.00     0.188 HD
HETATM    6  C4  UNL     1      32.070  43.051   2.078  1.00  0.00     0.152 A 
HETATM    7  N4  UNL     1      33.102  42.943   2.934  1.00  0.00    -0.336 N 
ATOM      8  H4  UNL     1      33.652  42.085   2.963  1.00  0.00     0.168 HD
HETATM    9  C5  UNL     1      33.412  43.980   3.763  1.00  0.00     0.183 A 
HETATM   10  N5  UNL     1      32.705  45.132   3.752  1.00  0.00    -0.336 N 
ATOM     11  H5  UNL     1      32.949  45.900   4.378  1.00  0.00     0.168 HD
HETATM   12  C6  UNL     1      31.670  45.244   2.895  1.00  0.00     0.152 A 
HETATM   13  C13 UNL     1      31.317  44.205   2.027  1.00  0.00     0.125 A 
HETATM   14  N14 UNL     1      30.280  44.332   1.177  1.00  0.00    -0.334 N 
ATOM     15  H14 UNL     1      29.742  45.198   1.163  1.00  0.00     0.168 HD
ENDROOT
BRANCH  12  16
HETATM   16  N6  UNL     1      30.936  46.297   2.804  1.00  0.00    -0.173 N 
HETATM   17  C7  UNL     1      31.436  47.400   2.071  1.00  0.00     0.692 C 
HETATM   18  N7  UNL     1      31.897  48.464   2.624  1.00  0.00    -0.233 N 
HETATM   19  N8  UNL     1      31.438  47.351   0.636  1.00  0.00    -0.132 N 
ATOM     20  H72 UNL     1      31.896  48.499   3.643  1.00  0.00     0.174 HD
ATOM     21  H71 UNL     1      32.258  49.259   2.095  1.00  0.00     0.174 HD
ATOM     22  H8  UNL     1      30.842  46.649   0.197  1.00  0.00     0.205 HD
ATOM     23  H6  UNL     1      30.020  46.336   3.248  1.00  0.00     0.186 HD
BRANCH  19  24
HETATM   24  N9  UNL     1      32.142  48.137  -0.175  1.00  0.00    -0.289 N 
HETATM   25  C8  UNL     1      32.551  48.190  -1.360  1.00  0.00     0.053 C 
HETATM   26  C9  UNL     1      33.352  49.398  -1.728  1.00  0.00     0.072 C 
ATOM     27  H9  UNL     1      32.451  48.965   0.333  1.00  0.00     0.187 HD
BRANCH  25  28
HETATM   28  C10 UNL     1      32.345  47.099  -2.300  1.00  0.00     0.106 A 
HETATM   29  N10 UNL     1      31.802  47.271  -3.553  1.00  0.00    -0.282 N 
HETATM   30  N11 UNL     1      31.647  46.083  -4.086  1.00  0.00    -0.242 N 
ATOM     31  H10 UNL     1      31.564  48.162  -3.988  1.00  0.00     0.188 HD
HETATM   32  N12 UNL     1      32.047  45.154  -3.278  1.00  0.00    -0.279 N 
ATOM     33  H11 UNL     1      31.260  45.913  -5.014  1.00  0.00     0.208 HD
HETATM   34  C11 UNL     1      32.505  45.770  -2.122  1.00  0.00     0.144 A 
ATOM     35  H12 UNL     1      32.029  44.151  -3.459  1.00  0.00     0.189 HD
BRANCH  34  36
HETATM   36  C12 UNL     1      33.116  44.938  -1.101  1.00  0.00     0.285 C 
HETATM   37  N13 UNL     1      33.196  43.502  -1.312  1.00  0.00    -0.056 NA
HETATM   38  O2  UNL     1      33.594  45.333  -0.031  1.00  0.00    -0.269 OA
ENDBRANCH  34  36
ENDBRANCH  25  28
ENDBRANCH  19  24
ENDBRANCH  12  16
BRANCH   1  39
HETATM   39  C2  UNL     1      28.824  43.433  -0.590  1.00  0.00     0.110 C 
HETATM   40  N1  UNL     1      27.636  43.172  -0.180  1.00  0.00    -0.265 N 
ATOM     41  H1  UNL     1      26.855  43.255  -0.831  1.00  0.00     0.194 HD
BRANCH  40  42
HETATM   42  O1  UNL     1      27.396  42.787   1.101  1.00  0.00    -0.285 OA
HETATM   43  C1  UNL     1      26.596  43.492   2.007  1.00  0.00     0.237 C 
ENDBRANCH  40  42
BRANCH  39  44
HETATM   44  C14 UNL     1      29.022  43.851  -2.010  1.00  0.00     0.262 C 
BRANCH  44  45
HETATM   45  N15 UNL     1      28.450  42.822  -2.862  1.00  0.00    -0.067 N 
ATOM     46 3H15 UNL     1      28.976  41.947  -2.833  1.00  0.00     0.275 HD
ATOM     47 2H15 UNL     1      27.565  42.460  -2.506  1.00  0.00     0.275 HD
ATOM     48 1H15 UNL     1      28.371  43.204  -3.804  1.00  0.00     0.275 HD
ENDBRANCH  44  45
BRANCH  44  49
HETATM   49  C15 UNL     1      28.290  45.125  -2.281  1.00  0.00     0.203 C 
BRANCH  49  50
HETATM   50  O3  UNL     1      29.007  45.957  -3.148  1.00  0.00    -0.398 OA
ATOM     51  H3  UNL     1      28.830  45.749  -4.058  1.00  0.00     0.209 HD
ENDBRANCH  49  50
ENDBRANCH  44  49
ENDBRANCH  39  44
ENDBRANCH   1  39
TORSDOF 10
ENDMDL
MODEL 5
REMARK VINA RESULT: -6.052409382      2.843      8.554
REMARK  10 active torsions:
REMARK  status: ('A' for Active; 'I' for Inactive)
REMARK    1  A    between atoms: O1_2  and  N1_3 
REMARK    2  A    between atoms: C2_5  and  C3_6 
REMARK    3  A    between atoms: C2_5  and  C14_44 
REMARK    4  A    between atoms: C6_17  and  N6_18 
REMARK       I    between atoms: N6_18  and  C7_20 
REMARK       I    between atoms: C7_20  and  N8_24 
REMARK    5  A    between atoms: N8_24  and  N9_26 
REMARK    6  A    between atoms: C8_28  and  C10_30 
REMARK    7  A    between atoms: C11_37  and  C12_38 
REMARK    8  A    between atoms: C14_44  and  N15_45 
REMARK    9  A    between atoms: C14_44  and  C15_49 
REMARK   10  A    between atoms: C15_49  and  O3_50 
ROOT
HETATM    1  C3  UNL     1      38.496  57.400   0.771  1.00  0.00     0.147 A 
HETATM    2  N2  UNL     1      38.490  56.838  -0.443  1.00  0.00    -0.282 N 
ATOM      3  H2  UNL     1      38.406  57.460  -1.247  1.00  0.00     0.188 HD
HETATM    4  N3  UNL     1      38.585  55.546  -0.683  1.00  0.00    -0.282 N 
ATOM      5  H3  UNL     1      38.573  55.202  -1.644  1.00  0.00     0.188 HD
HETATM    6  C4  UNL     1      38.699  54.675   0.351  1.00  0.00     0.152 A 
HETATM    7  N4  UNL     1      38.799  53.346   0.168  1.00  0.00    -0.336 N 
ATOM      8  H4  UNL     1      38.791  52.959  -0.776  1.00  0.00     0.168 HD
HETATM    9  C5  UNL     1      38.910  52.516   1.244  1.00  0.00     0.183 A 
HETATM   10  N5  UNL     1      38.925  52.992   2.508  1.00  0.00    -0.336 N 
ATOM     11  H5  UNL     1      39.009  52.359   3.304  1.00  0.00     0.168 HD
HETATM   12  C6  UNL     1      38.826  54.324   2.695  1.00  0.00     0.152 A 
HETATM   13  C13 UNL     1      38.710  55.212   1.621  1.00  0.00     0.125 A 
HETATM   14  N14 UNL     1      38.611  56.540   1.823  1.00  0.00    -0.334 N 
ATOM     15  H14 UNL     1      38.621  56.907   2.775  1.00  0.00     0.168 HD
ENDROOT
BRANCH  12  16
HETATM   16  N6  UNL     1      38.832  54.879   3.856  1.00  0.00    -0.173 N 
HETATM   17  C7  UNL     1      38.965  54.048   4.995  1.00  0.00     0.692 C 
HETATM   18  N7  UNL     1      37.984  53.754   5.771  1.00  0.00    -0.233 N 
HETATM   19  N8  UNL     1      40.249  53.496   5.319  1.00  0.00    -0.132 N 
ATOM     20  H72 UNL     1      37.072  54.147   5.541  1.00  0.00     0.174 HD
ATOM     21  H71 UNL     1      38.079  53.155   6.592  1.00  0.00     0.174 HD
ATOM     22  H8  UNL     1      41.062  53.928   4.882  1.00  0.00     0.205 HD
ATOM     23  H6  UNL     1      38.744  55.890   3.953  1.00  0.00     0.186 HD
BRANCH  19  24
HETATM   24  N9  UNL     1      40.478  52.472   6.138  1.00  0.00    -0.289 N 
HETATM   25  C8  UNL     1      41.288  52.098   7.021  1.00  0.00     0.053 C 
HETATM   26  C9  UNL     1      41.022  50.761   7.637  1.00  0.00     0.072 C 
ATOM     27  H9  UNL     1      39.762  51.758   6.004  1.00  0.00     0.187 HD
BRANCH  25  28
HETATM   28  C10 UNL     1      42.474  52.869   7.361  1.00  0.00     0.106 A 
HETATM   29  N10 UNL     1      43.755  52.437   7.109  1.00  0.00    -0.282 N 
HETATM   30  N11 UNL     1      44.580  53.305   7.644  1.00  0.00    -0.242 N 
ATOM     31  H10 UNL     1      44.017  51.593   6.599  1.00  0.00     0.188 HD
HETATM   32  N12 UNL     1      43.934  54.267   8.221  1.00  0.00    -0.279 N 
ATOM     33  H11 UNL     1      45.597  53.232   7.610  1.00  0.00     0.208 HD
HETATM   34  C11 UNL     1      42.578  54.022   8.057  1.00  0.00     0.144 A 
ATOM     35  H12 UNL     1      44.348  55.061   8.708  1.00  0.00     0.189 HD
BRANCH  34  36
HETATM   36  C12 UNL     1      41.641  55.027   8.523  1.00  0.00     0.285 C 
HETATM   37  N13 UNL     1      40.258  54.967   8.079  1.00  0.00    -0.056 NA
HETATM   38  O2  UNL     1      41.900  55.964   9.287  1.00  0.00    -0.269 OA
ENDBRANCH  34  36
ENDBRANCH  25  28
ENDBRANCH  19  24
ENDBRANCH  12  16
BRANCH   1  39
HETATM   39  C2  UNL     1      38.388  58.836   0.971  1.00  0.00     0.110 C 
HETATM   40  N1  UNL     1      39.272  59.613   0.459  1.00  0.00    -0.265 N 
ATOM     41  H1  UNL     1      39.194  60.620   0.601  1.00  0.00     0.194 HD
BRANCH  40  42
HETATM   42  O1  UNL     1      40.310  59.123  -0.269  1.00  0.00    -0.285 OA
HETATM   43  C1  UNL     1      40.743  59.649  -1.491  1.00  0.00     0.237 C 
ENDBRANCH  40  42
BRANCH  39  44
HETATM   44  C14 UNL     1      37.271  59.436   1.760  1.00  0.00     0.262 C 
BRANCH  44  45
HETATM   45  N15 UNL     1      36.081  58.634   1.530  1.00  0.00    -0.067 N 
ATOM     46 3H15 UNL     1      36.100  58.147   0.633  1.00  0.00     0.275 HD
ATOM     47 2H15 UNL     1      36.036  57.810   2.130  1.00  0.00     0.275 HD
ATOM     48 1H15 UNL     1      35.268  59.242   1.632  1.00  0.00     0.275 HD
ENDBRANCH  44  45
BRANCH  44  49
HETATM   49  C15 UNL     1      37.582  59.381   3.221  1.00  0.00     0.203 C 
BRANCH  49  50
HETATM   50  O3  UNL     1      38.958  59.291   3.452  1.00  0.00    -0.398 OA
ATOM     51  H3  UNL     1      39.279  58.407   3.316  1.00  0.00     0.209 HD
ENDBRANCH  49  50
ENDBRANCH  44  49
ENDBRANCH  39  44
ENDBRANCH   1  39
TORSDOF 10
ENDMDL
