MODEL 1
REMARK VINA RESULT: -8.330049913      0.000      0.000
REMARK  17 active torsions:
REMARK  status: ('A' for Active; 'I' for Inactive)
REMARK    1  A    between atoms: N1_1  and  C1_4 
REMARK    2  A    between atoms: N4_12  and  C5_13 
REMARK    3  A    between atoms: N5_14  and  N6_16 
REMARK    4  A    between atoms: N9_23  and  C8_24 
REMARK    5  A    between atoms: C9_25  and  O2_26 
REMARK    6  A    between atoms: C10_28  and  O3_29 
REMARK    7  A    between atoms: C11_31  and  C12_32 
REMARK    8  A    between atoms: C12_32  and  N10_33 
REMARK    9  A    between atoms: N10_33  and  O4_34 
REMARK   10  A    between atoms: N10_33  and  C13_36 
REMARK   11  A    between atoms: C13_36  and  O5_37 
REMARK   12  A    between atoms: C13_36  and  C14_39 
REMARK   13  A    between atoms: C14_39  and  O6_40 
REMARK   14  A    between atoms: C14_39  and  C15_42 
REMARK   15  A    between atoms: C15_42  and  O7_43 
REMARK   16  A    between atoms: C16_45  and  N11_46 
REMARK   17  A    between atoms: N12_50  and  O8_51 
ROOT
HETATM    1  C8  UNL     1      23.371  18.571  17.325  1.00  0.00     0.253 C 
HETATM    2  C9  UNL     1      24.399  18.857  18.373  1.00  0.00     0.192 C 
HETATM    3  C10 UNL     1      24.376  17.880  19.533  1.00  0.00     0.160 C 
HETATM    4  C11 UNL     1      22.968  17.704  19.993  1.00  0.00     0.089 C 
HETATM    5  C16 UNL     1      22.202  17.106  18.840  1.00  0.00     0.315 C 
HETATM    6  N12 UNL     1      22.143  18.057  17.811  1.00  0.00    -0.238 N 
ENDROOT
BRANCH   1   7
HETATM    7  N9  UNL     1      23.149  19.699  16.463  1.00  0.00    -0.256 N 
HETATM    8  C3  UNL     1      23.608  19.888  15.200  1.00  0.00     0.146 A 
HETATM    9  N3  UNL     1      24.375  19.085  14.441  1.00  0.00    -0.336 N 
HETATM   10  C4  UNL     1      23.189  21.094  14.685  1.00  0.00     0.133 A 
HETATM   11  C2  UNL     1      24.732  19.429  13.221  1.00  0.00     0.183 A 
ATOM     12  H3  UNL     1      24.687  18.191  14.819  1.00  0.00     0.168 HD
HETATM   13  N2  UNL     1      24.349  20.584  12.688  1.00  0.00    -0.337 N 
HETATM   14  C1  UNL     1      23.574  21.430  13.413  1.00  0.00     0.131 A 
ATOM     15  H2  UNL     1      24.636  20.834  11.741  1.00  0.00     0.168 HD
HETATM   16  N4  UNL     1      22.459  21.649  15.662  1.00  0.00    -0.251 N 
HETATM   17  C7  UNL     1      22.439  20.804  16.727  1.00  0.00     0.338 A 
HETATM   18  O1  UNL     1      21.809  21.101  17.786  1.00  0.00    -0.246 OA
BRANCH  14  19
HETATM   19  N1  UNL     1      23.227  22.525  12.869  1.00  0.00    -0.383 N 
ATOM     20  H12 UNL     1      23.064  22.605  11.865  1.00  0.00     0.157 HD
ATOM     21  H11 UNL     1      23.115  23.339  13.473  1.00  0.00     0.157 HD
ENDBRANCH  14  19
BRANCH  16  22
HETATM   22  C5  UNL     1      21.820  22.913  15.572  1.00  0.00     0.210 C 
HETATM   23  N5  UNL     1      20.548  23.046  15.713  1.00  0.00    -0.293 N 
ATOM     24  H5  UNL     1      19.968  22.228  15.894  1.00  0.00     0.187 HD
BRANCH  23  25
HETATM   25  N6  UNL     1      19.966  24.304  15.616  1.00  0.00    -0.275 N 
HETATM   26  C6  UNL     1      19.682  25.024  16.646  1.00  0.00     0.215 C 
HETATM   27  N7  UNL     1      19.086  26.296  16.406  1.00  0.00    -0.065 NA
HETATM   28  N8  UNL     1      19.929  24.614  17.981  1.00  0.00    -0.065 NA
ATOM     29  H6  UNL     1      19.754  24.674  14.690  1.00  0.00     0.189 HD
ENDBRANCH  23  25
ENDBRANCH  16  22
ENDBRANCH   1   7
BRANCH   2  30
HETATM   30  O2  UNL     1      24.341  20.124  18.902  1.00  0.00    -0.389 OA
ATOM     31  H2  UNL     1      24.219  20.156  19.844  1.00  0.00     0.210 HD
ENDBRANCH   2  30
BRANCH   6  32
HETATM   32  O8  UNL     1      21.083  18.155  17.075  1.00  0.00    -0.288 OA
ATOM     33  H8  UNL     1      20.237  17.943  17.452  1.00  0.00     0.244 HD
ENDBRANCH   6  32
BRANCH   3  34
HETATM   34  O3  UNL     1      24.921  16.691  19.018  1.00  0.00    -0.392 OA
ATOM     35  H3  UNL     1      24.627  16.009  19.610  1.00  0.00     0.210 HD
ENDBRANCH   3  34
BRANCH   5  36
HETATM   36  N11 UNL     1      20.876  16.675  19.207  1.00  0.00    -0.056 N 
ATOM     37 3H11 UNL     1      20.907  15.784  19.703  1.00  0.00     0.276 HD
ATOM     38 2H11 UNL     1      20.493  17.263  19.947  1.00  0.00     0.276 HD
ATOM     39 1H11 UNL     1      20.238  16.627  18.413  1.00  0.00     0.276 HD
ENDBRANCH   5  36
BRANCH   4  40
HETATM   40  C12 UNL     1      22.740  17.022  21.292  1.00  0.00     0.169 C 
BRANCH  40  41
HETATM   41  N10 UNL     1      23.224  15.704  21.441  1.00  0.00    -0.239 N 
BRANCH  41  42
HETATM   42  O4  UNL     1      24.628  15.631  21.481  1.00  0.00    -0.286 OA
ATOM     43  H4  UNL     1      24.953  14.749  21.619  1.00  0.00     0.244 HD
ENDBRANCH  41  42
BRANCH  41  44
HETATM   44  C13 UNL     1      22.579  14.494  21.551  1.00  0.00     0.169 C 
BRANCH  44  45
HETATM   45  O5  UNL     1      21.846  14.125  20.538  1.00  0.00    -0.346 OA
ATOM     46  H5  UNL     1      22.002  13.255  20.191  1.00  0.00     0.219 HD
ENDBRANCH  44  45
BRANCH  44  47
HETATM   47  C14 UNL     1      22.623  13.572  22.688  1.00  0.00     0.217 C 
BRANCH  47  48
HETATM   48  O6  UNL     1      23.376  13.918  23.769  1.00  0.00    -0.385 OA
ATOM     49  H6  UNL     1      24.193  13.457  23.913  1.00  0.00     0.210 HD
ENDBRANCH  47  48
BRANCH  47  50
HETATM   50  C15 UNL     1      21.187  13.367  23.214  1.00  0.00     0.204 C 
BRANCH  50  51
HETATM   51  O7  UNL     1      20.692  12.153  22.776  1.00  0.00    -0.398 OA
ATOM     52  H7  UNL     1      19.890  12.287  22.285  1.00  0.00     0.209 HD
ENDBRANCH  50  51
ENDBRANCH  47  50
ENDBRANCH  44  47
ENDBRANCH  41  44
ENDBRANCH  40  41
ENDBRANCH   4  40
TORSDOF 17
ENDMDL
MODEL 2
REMARK VINA RESULT: -8.258880616      3.117      9.242
REMARK  17 active torsions:
REMARK  status: ('A' for Active; 'I' for Inactive)
REMARK    1  A    between atoms: N1_1  and  C1_4 
REMARK    2  A    between atoms: N4_12  and  C5_13 
REMARK    3  A    between atoms: N5_14  and  N6_16 
REMARK    4  A    between atoms: N9_23  and  C8_24 
REMARK    5  A    between atoms: C9_25  and  O2_26 
REMARK    6  A    between atoms: C10_28  and  O3_29 
REMARK    7  A    between atoms: C11_31  and  C12_32 
REMARK    8  A    between atoms: C12_32  and  N10_33 
REMARK    9  A    between atoms: N10_33  and  O4_34 
REMARK   10  A    between atoms: N10_33  and  C13_36 
REMARK   11  A    between atoms: C13_36  and  O5_37 
REMARK   12  A    between atoms: C13_36  and  C14_39 
REMARK   13  A    between atoms: C14_39  and  O6_40 
REMARK   14  A    between atoms: C14_39  and  C15_42 
REMARK   15  A    between atoms: C15_42  and  O7_43 
REMARK   16  A    between atoms: C16_45  and  N11_46 
REMARK   17  A    between atoms: N12_50  and  O8_51 
ROOT
HETATM    1  C8  UNL     1      23.477  18.879  19.865  1.00  0.00     0.253 C 
HETATM    2  C9  UNL     1      24.649  18.903  18.936  1.00  0.00     0.192 C 
HETATM    3  C10 UNL     1      24.487  19.865  17.774  1.00  0.00     0.160 C 
HETATM    4  C11 UNL     1      23.140  19.667  17.163  1.00  0.00     0.089 C 
HETATM    5  C16 UNL     1      22.123  20.010  18.223  1.00  0.00     0.315 C 
HETATM    6  N12 UNL     1      22.214  19.055  19.246  1.00  0.00    -0.238 N 
ENDROOT
BRANCH   1   7
HETATM    7  N9  UNL     1      23.476  17.712  20.705  1.00  0.00    -0.256 N 
HETATM    8  C3  UNL     1      22.774  16.563  20.538  1.00  0.00     0.146 A 
HETATM    9  N3  UNL     1      21.913  16.223  19.562  1.00  0.00    -0.336 N 
HETATM   10  C4  UNL     1      23.030  15.663  21.547  1.00  0.00     0.133 A 
HETATM   11  C2  UNL     1      21.312  15.051  19.555  1.00  0.00     0.183 A 
ATOM     12  H3  UNL     1      21.721  16.888  18.812  1.00  0.00     0.168 HD
HETATM   13  N2  UNL     1      21.531  14.155  20.511  1.00  0.00    -0.337 N 
HETATM   14  C1  UNL     1      22.392  14.450  21.518  1.00  0.00     0.131 A 
ATOM     15  H2  UNL     1      21.055  13.253  20.489  1.00  0.00     0.168 HD
HETATM   16  N4  UNL     1      23.908  16.285  22.346  1.00  0.00    -0.251 N 
HETATM   17  C7  UNL     1      24.172  17.515  21.833  1.00  0.00     0.338 A 
HETATM   18  O1  UNL     1      24.980  18.305  22.408  1.00  0.00    -0.246 OA
BRANCH  14  19
HETATM   19  N1  UNL     1      22.576  13.568  22.414  1.00  0.00    -0.383 N 
ATOM     20  H12 UNL     1      22.076  13.584  23.304  1.00  0.00     0.157 HD
ATOM     21  H11 UNL     1      23.251  12.828  22.218  1.00  0.00     0.157 HD
ENDBRANCH  14  19
BRANCH  16  22
HETATM   22  C5  UNL     1      24.458  15.725  23.528  1.00  0.00     0.210 C 
HETATM   23  N5  UNL     1      25.548  16.168  24.050  1.00  0.00    -0.293 N 
ATOM     24  H5  UNL     1      26.044  16.944  23.612  1.00  0.00     0.187 HD
BRANCH  23  25
HETATM   25  N6  UNL     1      26.050  15.588  25.209  1.00  0.00    -0.275 N 
HETATM   26  C6  UNL     1      25.888  16.107  26.377  1.00  0.00     0.215 C 
HETATM   27  N7  UNL     1      26.455  15.410  27.482  1.00  0.00    -0.065 NA
HETATM   28  N8  UNL     1      25.187  17.318  26.606  1.00  0.00    -0.065 NA
ATOM     29  H6  UNL     1      26.569  14.714  25.132  1.00  0.00     0.189 HD
ENDBRANCH  23  25
ENDBRANCH  16  22
ENDBRANCH   1   7
BRANCH   2  30
HETATM   30  O2  UNL     1      24.990  17.679  18.412  1.00  0.00    -0.389 OA
ATOM     31  H2  UNL     1      24.893  17.610  17.469  1.00  0.00     0.210 HD
ENDBRANCH   2  30
BRANCH   6  32
HETATM   32  O8  UNL     1      21.148  18.659  19.862  1.00  0.00    -0.288 OA
ATOM     33  H8  UNL     1      21.213  18.382  20.769  1.00  0.00     0.244 HD
ENDBRANCH   6  32
BRANCH   3  34
HETATM   34  O3  UNL     1      24.634  21.144  18.338  1.00  0.00    -0.392 OA
ATOM     35  H3  UNL     1      24.535  21.746  17.610  1.00  0.00     0.210 HD
ENDBRANCH   3  34
BRANCH   5  36
HETATM   36  N11 UNL     1      20.777  20.078  17.711  1.00  0.00    -0.056 N 
ATOM     37 3H11 UNL     1      20.344  19.155  17.702  1.00  0.00     0.276 HD
ATOM     38 2H11 UNL     1      20.159  20.545  18.373  1.00  0.00     0.276 HD
ATOM     39 1H11 UNL     1      20.722  20.516  16.791  1.00  0.00     0.276 HD
ENDBRANCH   5  36
BRANCH   4  40
HETATM   40  C12 UNL     1      22.877  20.293  15.843  1.00  0.00     0.169 C 
BRANCH  40  41
HETATM   41  N10 UNL     1      22.707  19.440  14.729  1.00  0.00    -0.239 N 
BRANCH  41  42
HETATM   42  O4  UNL     1      21.783  18.406  14.960  1.00  0.00    -0.286 OA
ATOM     43  H4  UNL     1      21.521  18.336  15.871  1.00  0.00     0.244 HD
ENDBRANCH  41  42
BRANCH  41  44
HETATM   44  C13 UNL     1      23.277  19.439  13.478  1.00  0.00     0.169 C 
BRANCH  44  45
HETATM   45  O5  UNL     1      22.496  19.138  12.477  1.00  0.00    -0.346 OA
ATOM     46  H5  UNL     1      22.763  19.444  11.619  1.00  0.00     0.219 HD
ENDBRANCH  44  45
BRANCH  44  47
HETATM   47  C14 UNL     1      24.671  19.736  13.144  1.00  0.00     0.217 C 
BRANCH  47  48
HETATM   48  O6  UNL     1      25.183  19.219  11.993  1.00  0.00    -0.385 OA
ATOM     49  H6  UNL     1      25.818  18.516  12.059  1.00  0.00     0.210 HD
ENDBRANCH  47  48
BRANCH  47  50
HETATM   50  C15 UNL     1      24.839  21.267  13.039  1.00  0.00     0.204 C 
BRANCH  50  51
HETATM   51  O7  UNL     1      25.404  21.598  11.821  1.00  0.00    -0.398 OA
ATOM     52  H7  UNL     1      25.417  22.542  11.715  1.00  0.00     0.209 HD
ENDBRANCH  50  51
ENDBRANCH  47  50
ENDBRANCH  44  47
ENDBRANCH  41  44
ENDBRANCH  40  41
ENDBRANCH   4  40
TORSDOF 17
ENDMDL
MODEL 3
REMARK VINA RESULT: -8.140446915      1.226      1.455
REMARK  17 active torsions:
REMARK  status: ('A' for Active; 'I' for Inactive)
REMARK    1  A    between atoms: N1_1  and  C1_4 
REMARK    2  A    between atoms: N4_12  and  C5_13 
REMARK    3  A    between atoms: N5_14  and  N6_16 
REMARK    4  A    between atoms: N9_23  and  C8_24 
REMARK    5  A    between atoms: C9_25  and  O2_26 
REMARK    6  A    between atoms: C10_28  and  O3_29 
REMARK    7  A    between atoms: C11_31  and  C12_32 
REMARK    8  A    between atoms: C12_32  and  N10_33 
REMARK    9  A    between atoms: N10_33  and  O4_34 
REMARK   10  A    between atoms: N10_33  and  C13_36 
REMARK   11  A    between atoms: C13_36  and  O5_37 
REMARK   12  A    between atoms: C13_36  and  C14_39 
REMARK   13  A    between atoms: C14_39  and  O6_40 
REMARK   14  A    between atoms: C14_39  and  C15_42 
REMARK   15  A    between atoms: C15_42  and  O7_43 
REMARK   16  A    between atoms: C16_45  and  N11_46 
REMARK   17  A    between atoms: N12_50  and  O8_51 
ROOT
HETATM    1  C8  UNL     1      23.480  18.662  17.347  1.00  0.00     0.253 C 
HETATM    2  C9  UNL     1      24.560  18.941  18.343  1.00  0.00     0.192 C 
HETATM    3  C10 UNL     1      24.592  17.960  19.499  1.00  0.00     0.160 C 
HETATM    4  C11 UNL     1      23.208  17.787  20.028  1.00  0.00     0.089 C 
HETATM    5  C16 UNL     1      22.383  17.196  18.913  1.00  0.00     0.315 C 
HETATM    6  N12 UNL     1      22.276  18.150  17.891  1.00  0.00    -0.238 N 
ENDROOT
BRANCH   1   7
HETATM    7  N9  UNL     1      23.219  19.794  16.500  1.00  0.00    -0.256 N 
HETATM    8  C3  UNL     1      23.640  20.000  15.227  1.00  0.00     0.146 A 
HETATM    9  N3  UNL     1      24.397  19.213  14.441  1.00  0.00    -0.336 N 
HETATM   10  C4  UNL     1      23.190  21.203  14.734  1.00  0.00     0.133 A 
HETATM   11  C2  UNL     1      24.715  19.573  13.214  1.00  0.00     0.183 A 
ATOM     12  H3  UNL     1      24.732  18.321  14.803  1.00  0.00     0.168 HD
HETATM   13  N2  UNL     1      24.302  20.726  12.701  1.00  0.00    -0.337 N 
HETATM   14  C1  UNL     1      23.535  21.555  13.455  1.00  0.00     0.131 A 
ATOM     15  H2  UNL     1      24.560  20.988  11.749  1.00  0.00     0.168 HD
HETATM   16  N4  UNL     1      22.480  21.740  15.736  1.00  0.00    -0.251 N 
HETATM   17  C7  UNL     1      22.501  20.887  16.793  1.00  0.00     0.338 A 
HETATM   18  O1  UNL     1      21.896  21.167  17.872  1.00  0.00    -0.246 OA
BRANCH  14  19
HETATM   19  N1  UNL     1      23.159  22.650  12.929  1.00  0.00    -0.383 N 
ATOM     20  H12 UNL     1      23.655  23.076  12.147  1.00  0.00     0.157 HD
ATOM     21  H11 UNL     1      22.332  23.102  13.319  1.00  0.00     0.157 HD
ENDBRANCH  14  19
BRANCH  16  22
HETATM   22  C5  UNL     1      21.822  22.996  15.674  1.00  0.00     0.210 C 
HETATM   23  N5  UNL     1      20.541  23.099  15.742  1.00  0.00    -0.293 N 
ATOM     24  H5  UNL     1      19.967  22.262  15.843  1.00  0.00     0.187 HD
BRANCH  23  25
HETATM   25  N6  UNL     1      19.939  24.350  15.677  1.00  0.00    -0.275 N 
HETATM   26  C6  UNL     1      19.655  25.044  16.724  1.00  0.00     0.215 C 
HETATM   27  N7  UNL     1      19.039  26.312  16.516  1.00  0.00    -0.065 NA
HETATM   28  N8  UNL     1      19.922  24.611  18.047  1.00  0.00    -0.065 NA
ATOM     29  H6  UNL     1      19.712  24.735  14.760  1.00  0.00     0.189 HD
ENDBRANCH  23  25
ENDBRANCH  16  22
ENDBRANCH   1   7
BRANCH   2  30
HETATM   30  O2  UNL     1      24.533  20.207  18.878  1.00  0.00    -0.389 OA
ATOM     31  H2  UNL     1      25.356  20.678  18.825  1.00  0.00     0.210 HD
ENDBRANCH   2  30
BRANCH   6  32
HETATM   32  O8  UNL     1      21.180  18.255  17.211  1.00  0.00    -0.288 OA
ATOM     33  H8  UNL     1      20.593  17.510  17.162  1.00  0.00     0.244 HD
ENDBRANCH   6  32
BRANCH   3  34
HETATM   34  O3  UNL     1      25.106  16.771  18.953  1.00  0.00    -0.392 OA
ATOM     35  H3  UNL     1      24.753  16.733  18.073  1.00  0.00     0.210 HD
ENDBRANCH   3  34
BRANCH   5  36
HETATM   36  N11 UNL     1      21.075  16.767  19.345  1.00  0.00    -0.056 N 
ATOM     37 3H11 UNL     1      21.032  15.752  19.422  1.00  0.00     0.276 HD
ATOM     38 2H11 UNL     1      20.916  17.014  20.322  1.00  0.00     0.276 HD
ATOM     39 1H11 UNL     1      20.324  17.121  18.753  1.00  0.00     0.276 HD
ENDBRANCH   5  36
BRANCH   4  40
HETATM   40  C12 UNL     1      23.043  17.101  21.335  1.00  0.00     0.169 C 
BRANCH  40  41
HETATM   41  N10 UNL     1      24.207  16.810  22.080  1.00  0.00    -0.239 N 
BRANCH  41  42
HETATM   42  O4  UNL     1      24.812  17.953  22.631  1.00  0.00    -0.286 OA
ATOM     43  H4  UNL     1      25.508  17.748  23.245  1.00  0.00     0.244 HD
ENDBRANCH  41  42
BRANCH  41  44
HETATM   44  C13 UNL     1      24.848  15.625  22.359  1.00  0.00     0.169 C 
BRANCH  44  45
HETATM   45  O5  UNL     1      25.005  14.795  21.366  1.00  0.00    -0.346 OA
ATOM     46  H5  UNL     1      25.895  14.524  21.171  1.00  0.00     0.219 HD
ENDBRANCH  44  45
BRANCH  44  47
HETATM   47  C14 UNL     1      25.371  15.190  23.656  1.00  0.00     0.217 C 
BRANCH  47  48
HETATM   48  O6  UNL     1      26.121  16.070  24.376  1.00  0.00    -0.385 OA
ATOM     49  H6  UNL     1      26.842  15.729  24.891  1.00  0.00     0.210 HD
ENDBRANCH  47  48
BRANCH  47  50
HETATM   50  C15 UNL     1      24.185  14.796  24.561  1.00  0.00     0.204 C 
BRANCH  50  51
HETATM   51  O7  UNL     1      23.297  14.003  23.858  1.00  0.00    -0.398 OA
ATOM     52  H7  UNL     1      22.970  13.307  24.416  1.00  0.00     0.209 HD
ENDBRANCH  50  51
ENDBRANCH  47  50
ENDBRANCH  44  47
ENDBRANCH  41  44
ENDBRANCH  40  41
ENDBRANCH   4  40
TORSDOF 17
ENDMDL
MODEL 4
REMARK VINA RESULT: -8.126800078      3.046      8.833
REMARK  17 active torsions:
REMARK  status: ('A' for Active; 'I' for Inactive)
REMARK    1  A    between atoms: N1_1  and  C1_4 
REMARK    2  A    between atoms: N4_12  and  C5_13 
REMARK    3  A    between atoms: N5_14  and  N6_16 
REMARK    4  A    between atoms: N9_23  and  C8_24 
REMARK    5  A    between atoms: C9_25  and  O2_26 
REMARK    6  A    between atoms: C10_28  and  O3_29 
REMARK    7  A    between atoms: C11_31  and  C12_32 
REMARK    8  A    between atoms: C12_32  and  N10_33 
REMARK    9  A    between atoms: N10_33  and  O4_34 
REMARK   10  A    between atoms: N10_33  and  C13_36 
REMARK   11  A    between atoms: C13_36  and  O5_37 
REMARK   12  A    between atoms: C13_36  and  C14_39 
REMARK   13  A    between atoms: C14_39  and  O6_40 
REMARK   14  A    between atoms: C14_39  and  C15_42 
REMARK   15  A    between atoms: C15_42  and  O7_43 
REMARK   16  A    between atoms: C16_45  and  N11_46 
REMARK   17  A    between atoms: N12_50  and  O8_51 
ROOT
HETATM    1  C8  UNL     1      23.649  19.016  19.876  1.00  0.00     0.253 C 
HETATM    2  C9  UNL     1      24.791  18.971  18.912  1.00  0.00     0.192 C 
HETATM    3  C10 UNL     1      24.665  19.961  17.769  1.00  0.00     0.160 C 
HETATM    4  C11 UNL     1      23.290  19.871  17.198  1.00  0.00     0.089 C 
HETATM    5  C16 UNL     1      22.332  20.269  18.293  1.00  0.00     0.315 C 
HETATM    6  N12 UNL     1      22.384  19.293  19.299  1.00  0.00    -0.238 N 
ENDROOT
BRANCH   1   7
HETATM    7  N9  UNL     1      23.589  17.839  20.700  1.00  0.00    -0.256 N 
HETATM    8  C3  UNL     1      22.862  16.712  20.494  1.00  0.00     0.146 A 
HETATM    9  N3  UNL     1      22.025  16.409  19.486  1.00  0.00    -0.336 N 
HETATM   10  C4  UNL     1      23.060  15.792  21.498  1.00  0.00     0.133 A 
HETATM   11  C2  UNL     1      21.394  15.254  19.442  1.00  0.00     0.183 A 
ATOM     12  H3  UNL     1      21.876  17.088  18.739  1.00  0.00     0.168 HD
HETATM   13  N2  UNL     1      21.556  14.340  20.392  1.00  0.00    -0.337 N 
HETATM   14  C1  UNL     1      22.391  14.598  21.431  1.00  0.00     0.131 A 
ATOM     15  H2  UNL     1      21.058  13.451  20.342  1.00  0.00     0.168 HD
HETATM   16  N4  UNL     1      23.929  16.379  22.334  1.00  0.00    -0.251 N 
HETATM   17  C7  UNL     1      24.242  17.609  21.847  1.00  0.00     0.338 A 
HETATM   18  O1  UNL     1      25.051  18.368  22.459  1.00  0.00    -0.246 OA
BRANCH  14  19
HETATM   19  N1  UNL     1      22.522  13.699  22.320  1.00  0.00    -0.383 N 
ATOM     20  H12 UNL     1      22.754  13.921  23.288  1.00  0.00     0.157 HD
ATOM     21  H11 UNL     1      22.388  12.729  22.035  1.00  0.00     0.157 HD
ENDBRANCH  14  19
BRANCH  16  22
HETATM   22  C5  UNL     1      24.424  15.789  23.525  1.00  0.00     0.210 C 
HETATM   23  N5  UNL     1      25.554  16.131  24.037  1.00  0.00    -0.293 N 
ATOM     24  H5  UNL     1      26.122  16.847  23.585  1.00  0.00     0.187 HD
BRANCH  23  25
HETATM   25  N6  UNL     1      25.999  15.526  25.207  1.00  0.00    -0.275 N 
HETATM   26  C6  UNL     1      25.944  16.101  26.357  1.00  0.00     0.215 C 
HETATM   27  N7  UNL     1      26.436  15.368  27.475  1.00  0.00    -0.065 NA
HETATM   28  N8  UNL     1      25.427  17.407  26.556  1.00  0.00    -0.065 NA
ATOM     29  H6  UNL     1      26.388  14.584  25.150  1.00  0.00     0.189 HD
ENDBRANCH  23  25
ENDBRANCH  16  22
ENDBRANCH   1   7
BRANCH   2  30
HETATM   30  O2  UNL     1      25.028  17.735  18.360  1.00  0.00    -0.389 OA
ATOM     31  H2  UNL     1      25.551  17.153  18.899  1.00  0.00     0.210 HD
ENDBRANCH   2  30
BRANCH   6  32
HETATM   32  O8  UNL     1      21.311  18.965  19.943  1.00  0.00    -0.288 OA
ATOM     33  H8  UNL     1      20.835  19.633  20.422  1.00  0.00     0.244 HD
ENDBRANCH   6  32
BRANCH   3  34
HETATM   34  O3  UNL     1      24.920  21.217  18.347  1.00  0.00    -0.392 OA
ATOM     35  H3  UNL     1      25.799  21.150  18.700  1.00  0.00     0.210 HD
ENDBRANCH   3  34
BRANCH   5  36
HETATM   36  N11 UNL     1      20.980  20.442  17.825  1.00  0.00    -0.056 N 
ATOM     37 3H11 UNL     1      20.936  21.153  17.095  1.00  0.00     0.276 HD
ATOM     38 2H11 UNL     1      20.674  19.632  17.286  1.00  0.00     0.276 HD
ATOM     39 1H11 UNL     1      20.321  20.649  18.575  1.00  0.00     0.276 HD
ENDBRANCH   5  36
BRANCH   4  40
HETATM   40  C12 UNL     1      23.032  20.535  15.895  1.00  0.00     0.169 C 
BRANCH  40  41
HETATM   41  N10 UNL     1      22.847  19.715  14.760  1.00  0.00    -0.239 N 
BRANCH  41  42
HETATM   42  O4  UNL     1      23.926  18.846  14.524  1.00  0.00    -0.286 OA
ATOM     43  H4  UNL     1      24.045  18.202  15.213  1.00  0.00     0.244 HD
ENDBRANCH  41  42
BRANCH  41  44
HETATM   44  C13 UNL     1      21.815  19.616  13.856  1.00  0.00     0.169 C 
BRANCH  44  45
HETATM   45  O5  UNL     1      22.145  19.462  12.604  1.00  0.00    -0.346 OA
ATOM     46  H5  UNL     1      22.720  18.734  12.399  1.00  0.00     0.219 HD
ENDBRANCH  44  45
BRANCH  44  47
HETATM   47  C14 UNL     1      20.381  19.669  14.147  1.00  0.00     0.217 C 
BRANCH  47  48
HETATM   48  O6  UNL     1      19.508  19.521  13.113  1.00  0.00    -0.385 OA
ATOM     49  H6  UNL     1      18.581  19.632  13.288  1.00  0.00     0.210 HD
ENDBRANCH  47  48
BRANCH  47  50
HETATM   50  C15 UNL     1      20.040  18.555  15.159  1.00  0.00     0.204 C 
BRANCH  50  51
HETATM   51  O7  UNL     1      19.212  19.051  16.148  1.00  0.00    -0.398 OA
ATOM     52  H7  UNL     1      19.341  18.565  16.954  1.00  0.00     0.209 HD
ENDBRANCH  50  51
ENDBRANCH  47  50
ENDBRANCH  44  47
ENDBRANCH  41  44
ENDBRANCH  40  41
ENDBRANCH   4  40
TORSDOF 17
ENDMDL
MODEL 5
REMARK VINA RESULT: -8.125341526      3.345      8.433
REMARK  17 active torsions:
REMARK  status: ('A' for Active; 'I' for Inactive)
REMARK    1  A    between atoms: N1_1  and  C1_4 
REMARK    2  A    between atoms: N4_12  and  C5_13 
REMARK    3  A    between atoms: N5_14  and  N6_16 
REMARK    4  A    between atoms: N9_23  and  C8_24 
REMARK    5  A    between atoms: C9_25  and  O2_26 
REMARK    6  A    between atoms: C10_28  and  O3_29 
REMARK    7  A    between atoms: C11_31  and  C12_32 
REMARK    8  A    between atoms: C12_32  and  N10_33 
REMARK    9  A    between atoms: N10_33  and  O4_34 
REMARK   10  A    between atoms: N10_33  and  C13_36 
REMARK   11  A    between atoms: C13_36  and  O5_37 
REMARK   12  A    between atoms: C13_36  and  C14_39 
REMARK   13  A    between atoms: C14_39  and  O6_40 
REMARK   14  A    between atoms: C14_39  and  C15_42 
REMARK   15  A    between atoms: C15_42  and  O7_43 
REMARK   16  A    between atoms: C16_45  and  N11_46 
REMARK   17  A    between atoms: N12_50  and  O8_51 
ROOT
HETATM    1  C8  UNL     1      23.581  20.979  17.728  1.00  0.00     0.253 C 
HETATM    2  C9  UNL     1      24.229  20.482  16.475  1.00  0.00     0.192 C 
HETATM    3  C10 UNL     1      24.024  21.394  15.280  1.00  0.00     0.160 C 
HETATM    4  C11 UNL     1      22.582  21.769  15.196  1.00  0.00     0.089 C 
HETATM    5  C16 UNL     1      22.255  22.536  16.453  1.00  0.00     0.315 C 
HETATM    6  N12 UNL     1      22.350  21.657  17.542  1.00  0.00    -0.238 N 
ENDROOT
BRANCH   1   7
HETATM    7  N9  UNL     1      23.449  19.942  18.716  1.00  0.00    -0.256 N 
HETATM    8  C3  UNL     1      22.574  18.905  18.727  1.00  0.00     0.146 A 
HETATM    9  N3  UNL     1      21.622  18.583  17.834  1.00  0.00    -0.336 N 
HETATM   10  C4  UNL     1      22.745  18.112  19.838  1.00  0.00     0.133 A 
HETATM   11  C2  UNL     1      20.853  17.527  18.002  1.00  0.00     0.183 A 
ATOM     12  H3  UNL     1      21.493  19.168  17.009  1.00  0.00     0.168 HD
HETATM   13  N2  UNL     1      20.984  16.736  19.062  1.00  0.00    -0.337 N 
HETATM   14  C1  UNL     1      21.932  17.019  19.992  1.00  0.00     0.131 A 
ATOM     15  H2  UNL     1      20.378  15.924  19.176  1.00  0.00     0.168 HD
HETATM   16  N4  UNL     1      23.748  18.685  20.518  1.00  0.00    -0.251 N 
HETATM   17  C7  UNL     1      24.166  19.784  19.837  1.00  0.00     0.338 A 
HETATM   18  O1  UNL     1      25.113  20.505  20.275  1.00  0.00    -0.246 OA
BRANCH  14  19
HETATM   19  N1  UNL     1      22.028  16.239  20.991  1.00  0.00    -0.383 N 
ATOM     20  H12 UNL     1      21.221  15.980  21.558  1.00  0.00     0.157 HD
ATOM     21  H11 UNL     1      22.953  15.872  21.217  1.00  0.00     0.157 HD
ENDBRANCH  14  19
BRANCH  16  22
HETATM   22  C5  UNL     1      24.270  18.200  21.745  1.00  0.00     0.210 C 
HETATM   23  N5  UNL     1      25.169  17.281  21.789  1.00  0.00    -0.293 N 
ATOM     24  H5  UNL     1      25.528  16.879  20.924  1.00  0.00     0.187 HD
BRANCH  23  25
HETATM   25  N6  UNL     1      25.651  16.838  23.015  1.00  0.00    -0.275 N 
HETATM   26  C6  UNL     1      25.137  15.842  23.649  1.00  0.00     0.215 C 
HETATM   27  N7  UNL     1      25.728  15.491  24.898  1.00  0.00    -0.065 NA
HETATM   28  N8  UNL     1      24.030  15.095  23.171  1.00  0.00    -0.065 NA
ATOM     29  H6  UNL     1      26.446  17.322  23.430  1.00  0.00     0.189 HD
ENDBRANCH  23  25
ENDBRANCH  16  22
ENDBRANCH   1   7
BRANCH   2  30
HETATM   30  O2  UNL     1      23.850  19.217  16.096  1.00  0.00    -0.389 OA
ATOM     31  H2  UNL     1      24.228  18.918  15.277  1.00  0.00     0.210 HD
ENDBRANCH   2  30
BRANCH   6  32
HETATM   32  O8  UNL     1      21.531  21.764  18.537  1.00  0.00    -0.288 OA
ATOM     33  H8  UNL     1      21.177  22.618  18.757  1.00  0.00     0.244 HD
ENDBRANCH   6  32
BRANCH   3  34
HETATM   34  O3  UNL     1      24.850  22.505  15.523  1.00  0.00    -0.392 OA
ATOM     35  H3  UNL     1      25.678  22.137  15.809  1.00  0.00     0.210 HD
ENDBRANCH   3  34
BRANCH   5  36
HETATM   36  N11 UNL     1      20.953  23.154  16.413  1.00  0.00    -0.056 N 
ATOM     37 3H11 UNL     1      20.664  23.334  15.452  1.00  0.00     0.276 HD
ATOM     38 2H11 UNL     1      20.226  22.491  16.683  1.00  0.00     0.276 HD
ATOM     39 1H11 UNL     1      20.897  24.003  16.975  1.00  0.00     0.276 HD
ENDBRANCH   5  36
BRANCH   4  40
HETATM   40  C12 UNL     1      22.102  22.415  13.948  1.00  0.00     0.169 C 
BRANCH  40  41
HETATM   41  N10 UNL     1      21.704  21.579  12.882  1.00  0.00    -0.239 N 
BRANCH  41  42
HETATM   42  O4  UNL     1      21.602  22.258  11.655  1.00  0.00    -0.286 OA
ATOM     43  H4  UNL     1      21.638  21.678  10.903  1.00  0.00     0.244 HD
ENDBRANCH  41  42
BRANCH  41  44
HETATM   44  C13 UNL     1      21.400  20.239  12.828  1.00  0.00     0.169 C 
BRANCH  44  45
HETATM   45  O5  UNL     1      22.362  19.432  12.478  1.00  0.00    -0.346 OA
ATOM     46  H5  UNL     1      23.041  19.270  13.123  1.00  0.00     0.219 HD
ENDBRANCH  44  45
BRANCH  44  47
HETATM   47  C14 UNL     1      20.106  19.617  13.119  1.00  0.00     0.217 C 
BRANCH  47  48
HETATM   48  O6  UNL     1      19.726  18.541  12.375  1.00  0.00    -0.385 OA
ATOM     49  H6  UNL     1      18.855  18.189  12.507  1.00  0.00     0.210 HD
ENDBRANCH  47  48
BRANCH  47  50
HETATM   50  C15 UNL     1      20.104  19.144  14.589  1.00  0.00     0.204 C 
BRANCH  50  51
HETATM   51  O7  UNL     1      21.288  18.492  14.877  1.00  0.00    -0.398 OA
ATOM     52  H7  UNL     1      21.126  17.774  15.478  1.00  0.00     0.209 HD
ENDBRANCH  50  51
ENDBRANCH  47  50
ENDBRANCH  44  47
ENDBRANCH  41  44
ENDBRANCH  40  41
ENDBRANCH   4  40
TORSDOF 17
ENDMDL
