MODEL 1
REMARK VINA RESULT: -8.786291777      0.000      0.000
REMARK  15 active torsions:
REMARK  status: ('A' for Active; 'I' for Inactive)
REMARK       I    between atoms: C2_2  and  N1_4 
REMARK    1  A    between atoms: N1_4  and  C3_6 
REMARK    2  A    between atoms: C4_7  and  C5_8 
REMARK    3  A    between atoms: C5_8  and  O2_9 
REMARK    4  A    between atoms: C5_8  and  C6_11 
REMARK    5  A    between atoms: C6_11  and  O3_12 
REMARK    6  A    between atoms: C6_11  and  C7_14 
REMARK    7  A    between atoms: C7_14  and  O4_15 
REMARK    8  A    between atoms: C8_18  and  O6_19 
REMARK    9  A    between atoms: C9_21  and  N2_22 
REMARK   10  A    between atoms: C10_25  and  C11_26 
REMARK   11  A    between atoms: C12_29  and  N5_30 
REMARK       I    between atoms: N5_30  and  C13_31 
REMARK       I    between atoms: C13_31  and  N7_35 
REMARK   12  A    between atoms: N7_35  and  N8_37 
REMARK   13  A    between atoms: N8_37  and  N9_38 
REMARK   14  A    between atoms: N8_37  and  O8_41 
REMARK   15  A    between atoms: N11_47  and  O10_48 
ROOT
HETATM    1  N2  UNL     1      22.666  18.789  18.063  1.00  0.00    -0.204 N 
HETATM    2  N3  UNL     1      23.484  19.208  17.118  1.00  0.00    -0.274 N 
ATOM      3  H3  UNL     1      24.472  19.327  17.344  1.00  0.00     0.189 HD
HETATM    4  C10 UNL     1      23.069  19.484  15.870  1.00  0.00     0.161 A 
HETATM    5  C12 UNL     1      21.745  19.335  15.530  1.00  0.00     0.213 A 
HETATM    6  C14 UNL     1      20.885  18.883  16.568  1.00  0.00     0.304 A 
HETATM    7  O9  UNL     1      19.665  18.731  16.308  1.00  0.00    -0.263 OA
HETATM    8  N10 UNL     1      21.385  18.630  17.787  1.00  0.00    -0.245 N 
ATOM      9  H10 UNL     1      20.756  18.307  18.522  1.00  0.00     0.192 HD
ENDROOT
BRANCH   1  10
HETATM   10  C9  UNL     1      23.141  18.501  19.389  1.00  0.00     0.283 C 
HETATM   11  C8  UNL     1      24.636  18.264  19.328  1.00  0.00     0.300 C 
HETATM   12  O5  UNL     1      25.166  17.922  20.546  1.00  0.00    -0.346 OA
HETATM   13  C4  UNL     1      24.284  17.865  21.580  1.00  0.00     0.195 C 
HETATM   14  C3  UNL     1      23.039  17.057  21.256  1.00  0.00     0.219 C 
HETATM   15  N11 UNL     1      22.545  17.323  19.941  1.00  0.00    -0.142 NA
BRANCH  11  16
HETATM   16  O6  UNL     1      24.949  17.226  18.435  1.00  0.00    -0.368 OA
ATOM     17  H6  UNL     1      24.146  16.997  17.982  1.00  0.00     0.212 HD
ENDBRANCH  11  16
BRANCH  13  18
HETATM   18  C5  UNL     1      24.900  17.297  22.811  1.00  0.00     0.181 C 
BRANCH  18  19
HETATM   19  O2  UNL     1      25.769  16.234  22.597  1.00  0.00    -0.390 OA
ATOM     20  H2  UNL     1      26.525  16.211  23.172  1.00  0.00     0.210 HD
ENDBRANCH  18  19
BRANCH  18  21
HETATM   21  C6  UNL     1      25.491  18.250  23.802  1.00  0.00     0.173 C 
BRANCH  21  22
HETATM   22  O3  UNL     1      26.058  17.474  24.870  1.00  0.00    -0.391 OA
ATOM     23  H3  UNL     1      26.958  17.754  24.984  1.00  0.00     0.210 HD
ENDBRANCH  21  22
BRANCH  21  24
HETATM   24  C7  UNL     1      26.555  19.169  23.295  1.00  0.00     0.198 C 
BRANCH  24  25
HETATM   25  O4  UNL     1      27.536  18.631  22.518  1.00  0.00    -0.398 OA
ATOM     26  H4  UNL     1      28.376  18.456  22.927  1.00  0.00     0.209 HD
ENDBRANCH  24  25
ENDBRANCH  21  24
ENDBRANCH  18  21
ENDBRANCH  13  18
BRANCH  14  27
HETATM   27  N1  UNL     1      23.227  15.645  21.470  1.00  0.00    -0.340 N 
HETATM   28  C2  UNL     1      22.142  14.727  21.552  1.00  0.00     0.214 C 
HETATM   29  C1  UNL     1      22.314  13.290  21.769  1.00  0.00     0.117 C 
HETATM   30  O1  UNL     1      20.976  15.179  21.430  1.00  0.00    -0.274 OA
ATOM     31  H1  UNL     1      24.177  15.288  21.567  1.00  0.00     0.164 HD
ENDBRANCH  14  27
BRANCH  15  32
HETATM   32  O10 UNL     1      22.846  16.253  19.156  1.00  0.00    -0.309 OA
ATOM     33  H10 UNL     1      22.631  15.465  19.641  1.00  0.00     0.237 HD
ENDBRANCH  15  32
ENDBRANCH   1  10
BRANCH   4  34
HETATM   34  C11 UNL     1      24.020  19.937  14.884  1.00  0.00     0.286 C 
HETATM   35  N4  UNL     1      24.375  21.314  14.865  1.00  0.00    -0.056 NA
HETATM   36  O7  UNL     1      24.573  19.213  14.023  1.00  0.00    -0.269 OA
ENDBRANCH   4  34
BRANCH   5  37
HETATM   37  N5  UNL     1      21.290  19.553  14.465  1.00  0.00    -0.362 NA
HETATM   38  C13 UNL     1      20.780  19.798  13.274  1.00  0.00     0.271 C 
HETATM   39  N6  UNL     1      19.768  19.069  12.839  1.00  0.00    -0.358 N 
HETATM   40  N7  UNL     1      21.211  20.817  12.339  1.00  0.00    -0.218 N 
ATOM     41  H62 UNL     1      19.465  18.351  13.498  1.00  0.00     0.160 HD
ATOM     42  H61 UNL     1      19.374  19.258  11.918  1.00  0.00     0.160 HD
ATOM     43  H7  UNL     1      21.153  20.628  11.339  1.00  0.00     0.195 HD
BRANCH  40  44
HETATM   44  N8  UNL     1      21.699  22.038  12.766  1.00  0.00    -0.098 N 
BRANCH  44  45
HETATM   45  N9  UNL     1      22.232  22.819  11.890  1.00  0.00    -0.303 N 
ATOM     46  H92 UNL     1      21.635  23.109  11.115  1.00  0.00     0.181 HD
ATOM     47  H91 UNL     1      23.205  23.097  12.022  1.00  0.00     0.181 HD
ENDBRANCH  44  45
BRANCH  44  48
HETATM   48  O8  UNL     1      21.664  22.498  14.054  1.00  0.00    -0.254 OA
ATOM     49  H8  UNL     1      22.419  22.599  14.623  1.00  0.00     0.248 HD
ENDBRANCH  44  48
ENDBRANCH  40  44
ENDBRANCH   5  37
TORSDOF 15
ENDMDL
MODEL 2
REMARK VINA RESULT: -8.213914747      1.711      3.198
REMARK  15 active torsions:
REMARK  status: ('A' for Active; 'I' for Inactive)
REMARK       I    between atoms: C2_2  and  N1_4 
REMARK    1  A    between atoms: N1_4  and  C3_6 
REMARK    2  A    between atoms: C4_7  and  C5_8 
REMARK    3  A    between atoms: C5_8  and  O2_9 
REMARK    4  A    between atoms: C5_8  and  C6_11 
REMARK    5  A    between atoms: C6_11  and  O3_12 
REMARK    6  A    between atoms: C6_11  and  C7_14 
REMARK    7  A    between atoms: C7_14  and  O4_15 
REMARK    8  A    between atoms: C8_18  and  O6_19 
REMARK    9  A    between atoms: C9_21  and  N2_22 
REMARK   10  A    between atoms: C10_25  and  C11_26 
REMARK   11  A    between atoms: C12_29  and  N5_30 
REMARK       I    between atoms: N5_30  and  C13_31 
REMARK       I    between atoms: C13_31  and  N7_35 
REMARK   12  A    between atoms: N7_35  and  N8_37 
REMARK   13  A    between atoms: N8_37  and  N9_38 
REMARK   14  A    between atoms: N8_37  and  O8_41 
REMARK   15  A    between atoms: N11_47  and  O10_48 
ROOT
HETATM    1  N2  UNL     1      23.304  18.272  17.453  1.00  0.00    -0.204 N 
HETATM    2  N3  UNL     1      24.016  18.841  16.501  1.00  0.00    -0.274 N 
ATOM      3  H3  UNL     1      25.022  18.942  16.636  1.00  0.00     0.189 HD
HETATM    4  C10 UNL     1      23.469  19.292  15.359  1.00  0.00     0.161 A 
HETATM    5  C12 UNL     1      22.117  19.172  15.141  1.00  0.00     0.213 A 
HETATM    6  C14 UNL     1      21.374  18.555  16.185  1.00  0.00     0.304 A 
HETATM    7  O9  UNL     1      20.133  18.422  16.035  1.00  0.00    -0.263 OA
HETATM    8  N10 UNL     1      22.001  18.133  17.293  1.00  0.00    -0.245 N 
ATOM      9  H10 UNL     1      21.455  17.693  18.033  1.00  0.00     0.192 HD
ENDROOT
BRANCH   1  10
HETATM   10  C9  UNL     1      23.918  17.799  18.663  1.00  0.00     0.283 C 
HETATM   11  C8  UNL     1      22.877  17.793  19.765  1.00  0.00     0.300 C 
HETATM   12  O5  UNL     1      23.394  17.411  20.977  1.00  0.00    -0.346 OA
HETATM   13  C4  UNL     1      24.718  17.098  20.983  1.00  0.00     0.195 C 
HETATM   14  C3  UNL     1      25.581  18.149  20.305  1.00  0.00     0.219 C 
HETATM   15  N11 UNL     1      24.993  18.639  19.097  1.00  0.00    -0.142 NA
BRANCH  11  16
HETATM   16  O6  UNL     1      22.317  19.069  19.940  1.00  0.00    -0.368 OA
ATOM     17  H6  UNL     1      22.705  19.636  19.284  1.00  0.00     0.212 HD
ENDBRANCH  11  16
BRANCH  13  18
HETATM   18  C5  UNL     1      25.237  16.890  22.363  1.00  0.00     0.181 C 
BRANCH  18  19
HETATM   19  O2  UNL     1      24.655  17.691  23.339  1.00  0.00    -0.390 OA
ATOM     20  H2  UNL     1      25.025  18.562  23.418  1.00  0.00     0.210 HD
ENDBRANCH  18  19
BRANCH  18  21
HETATM   21  C6  UNL     1      25.357  15.483  22.862  1.00  0.00     0.173 C 
BRANCH  21  22
HETATM   22  O3  UNL     1      26.397  15.457  23.851  1.00  0.00    -0.391 OA
ATOM     23  H3  UNL     1      26.206  14.747  24.452  1.00  0.00     0.210 HD
ENDBRANCH  21  22
BRANCH  21  24
HETATM   24  C7  UNL     1      24.133  14.884  23.475  1.00  0.00     0.198 C 
BRANCH  24  25
HETATM   25  O4  UNL     1      22.945  15.091  22.843  1.00  0.00    -0.398 OA
ATOM     26  H4  UNL     1      22.327  14.369  22.817  1.00  0.00     0.209 HD
ENDBRANCH  24  25
ENDBRANCH  21  24
ENDBRANCH  18  21
ENDBRANCH  13  18
BRANCH  14  27
HETATM   27  N1  UNL     1      25.934  19.228  21.192  1.00  0.00    -0.340 N 
HETATM   28  C2  UNL     1      27.232  19.364  21.761  1.00  0.00     0.214 C 
HETATM   29  C1  UNL     1      27.608  20.454  22.663  1.00  0.00     0.117 C 
HETATM   30  O1  UNL     1      28.097  18.502  21.470  1.00  0.00    -0.274 OA
ATOM     31  H1  UNL     1      25.224  19.924  21.422  1.00  0.00     0.164 HD
ENDBRANCH  14  27
BRANCH  15  32
HETATM   32  O10 UNL     1      24.520  19.891  19.340  1.00  0.00    -0.309 OA
ATOM     33  H10 UNL     1      25.072  20.289  20.002  1.00  0.00     0.237 HD
ENDBRANCH  15  32
ENDBRANCH   1  10
BRANCH   4  34
HETATM   34  C11 UNL     1      24.309  19.903  14.357  1.00  0.00     0.286 C 
HETATM   35  N4  UNL     1      24.888  19.073  13.357  1.00  0.00    -0.056 NA
HETATM   36  O7  UNL     1      24.581  21.124  14.285  1.00  0.00    -0.269 OA
ENDBRANCH   4  34
BRANCH   5  37
HETATM   37  N5  UNL     1      21.550  19.537  14.175  1.00  0.00    -0.362 NA
HETATM   38  C13 UNL     1      20.916  19.947  13.094  1.00  0.00     0.271 C 
HETATM   39  N6  UNL     1      19.843  19.295  12.685  1.00  0.00    -0.358 N 
HETATM   40  N7  UNL     1      21.265  21.079  12.261  1.00  0.00    -0.218 N 
ATOM     41  H62 UNL     1      19.597  18.498  13.273  1.00  0.00     0.160 HD
ATOM     42  H61 UNL     1      19.352  19.612  11.849  1.00  0.00     0.160 HD
ATOM     43  H7  UNL     1      21.089  21.028  11.258  1.00  0.00     0.195 HD
BRANCH  40  44
HETATM   44  N8  UNL     1      21.829  22.225  12.787  1.00  0.00    -0.098 N 
BRANCH  44  45
HETATM   45  N9  UNL     1      22.343  23.081  11.971  1.00  0.00    -0.303 N 
ATOM     46  H92 UNL     1      23.032  22.722  11.310  1.00  0.00     0.181 HD
ATOM     47  H91 UNL     1      22.036  24.052  12.034  1.00  0.00     0.181 HD
ENDBRANCH  44  45
BRANCH  44  48
HETATM   48  O8  UNL     1      21.892  22.538  14.119  1.00  0.00    -0.254 OA
ATOM     49  H8  UNL     1      22.690  22.686  14.612  1.00  0.00     0.248 HD
ENDBRANCH  44  48
ENDBRANCH  40  44
ENDBRANCH   5  37
TORSDOF 15
ENDMDL
MODEL 3
REMARK VINA RESULT: -8.005929493      1.999      3.786
REMARK  15 active torsions:
REMARK  status: ('A' for Active; 'I' for Inactive)
REMARK       I    between atoms: C2_2  and  N1_4 
REMARK    1  A    between atoms: N1_4  and  C3_6 
REMARK    2  A    between atoms: C4_7  and  C5_8 
REMARK    3  A    between atoms: C5_8  and  O2_9 
REMARK    4  A    between atoms: C5_8  and  C6_11 
REMARK    5  A    between atoms: C6_11  and  O3_12 
REMARK    6  A    between atoms: C6_11  and  C7_14 
REMARK    7  A    between atoms: C7_14  and  O4_15 
REMARK    8  A    between atoms: C8_18  and  O6_19 
REMARK    9  A    between atoms: C9_21  and  N2_22 
REMARK   10  A    between atoms: C10_25  and  C11_26 
REMARK   11  A    between atoms: C12_29  and  N5_30 
REMARK       I    between atoms: N5_30  and  C13_31 
REMARK       I    between atoms: C13_31  and  N7_35 
REMARK   12  A    between atoms: N7_35  and  N8_37 
REMARK   13  A    between atoms: N8_37  and  N9_38 
REMARK   14  A    between atoms: N8_37  and  O8_41 
REMARK   15  A    between atoms: N11_47  and  O10_48 
ROOT
HETATM    1  N2  UNL     1      23.828  18.370  18.449  1.00  0.00    -0.204 N 
HETATM    2  N3  UNL     1      22.677  18.135  17.851  1.00  0.00    -0.274 N 
ATOM      3  H3  UNL     1      22.131  17.325  18.141  1.00  0.00     0.189 HD
HETATM    4  C10 UNL     1      22.196  18.922  16.873  1.00  0.00     0.161 A 
HETATM    5  C12 UNL     1      22.905  20.023  16.454  1.00  0.00     0.213 A 
HETATM    6  C14 UNL     1      24.142  20.252  17.116  1.00  0.00     0.304 A 
HETATM    7  O9  UNL     1      24.829  21.246  16.771  1.00  0.00    -0.263 OA
HETATM    8  N10 UNL     1      24.548  19.415  18.083  1.00  0.00    -0.245 N 
ATOM      9  H10 UNL     1      25.437  19.592  18.549  1.00  0.00     0.192 HD
ENDROOT
BRANCH   1  10
HETATM   10  C9  UNL     1      24.317  17.511  19.492  1.00  0.00     0.283 C 
HETATM   11  C8  UNL     1      23.159  16.693  20.028  1.00  0.00     0.300 C 
HETATM   12  O5  UNL     1      23.525  15.884  21.074  1.00  0.00    -0.346 OA
HETATM   13  C4  UNL     1      24.835  15.942  21.437  1.00  0.00     0.195 C 
HETATM   14  C3  UNL     1      25.339  17.364  21.617  1.00  0.00     0.219 C 
HETATM   15  N11 UNL     1      24.867  18.242  20.593  1.00  0.00    -0.142 NA
BRANCH  11  16
HETATM   16  O6  UNL     1      22.123  17.521  20.491  1.00  0.00    -0.368 OA
ATOM     17  H6  UNL     1      21.306  17.070  20.315  1.00  0.00     0.212 HD
ENDBRANCH  11  16
BRANCH  13  18
HETATM   18  C5  UNL     1      25.100  15.192  22.696  1.00  0.00     0.181 C 
BRANCH  18  19
HETATM   19  O2  UNL     1      26.271  15.545  23.356  1.00  0.00    -0.390 OA
ATOM     20  H2  UNL     1      26.820  14.817  23.621  1.00  0.00     0.210 HD
ENDBRANCH  18  19
BRANCH  18  21
HETATM   21  C6  UNL     1      23.981  15.054  23.679  1.00  0.00     0.173 C 
BRANCH  21  22
HETATM   22  O3  UNL     1      23.276  13.841  23.373  1.00  0.00    -0.391 OA
ATOM     23  H3  UNL     1      23.919  13.146  23.294  1.00  0.00     0.210 HD
ENDBRANCH  21  22
BRANCH  21  24
HETATM   24  C7  UNL     1      24.361  15.005  25.124  1.00  0.00     0.198 C 
BRANCH  24  25
HETATM   25  O4  UNL     1      24.741  16.171  25.717  1.00  0.00    -0.398 OA
ATOM     26  H4  UNL     1      24.324  16.972  25.421  1.00  0.00     0.209 HD
ENDBRANCH  24  25
ENDBRANCH  21  24
ENDBRANCH  18  21
ENDBRANCH  13  18
BRANCH  14  27
HETATM   27  N1  UNL     1      25.055  17.888  22.929  1.00  0.00    -0.340 N 
HETATM   28  C2  UNL     1      25.902  18.827  23.583  1.00  0.00     0.214 C 
HETATM   29  C1  UNL     1      25.630  19.370  24.914  1.00  0.00     0.117 C 
HETATM   30  O1  UNL     1      26.936  19.208  22.981  1.00  0.00    -0.274 OA
ATOM     31  H1  UNL     1      24.213  17.573  23.409  1.00  0.00     0.164 HD
ENDBRANCH  14  27
BRANCH  15  32
HETATM   32  O10 UNL     1      23.905  19.038  21.133  1.00  0.00    -0.309 OA
ATOM     33  H10 UNL     1      24.327  19.823  21.464  1.00  0.00     0.237 HD
ENDBRANCH  15  32
ENDBRANCH   1  10
BRANCH   4  34
HETATM   34  C11 UNL     1      20.927  18.607  16.262  1.00  0.00     0.286 C 
HETATM   35  N4  UNL     1      19.735  18.955  16.955  1.00  0.00    -0.056 NA
HETATM   36  O7  UNL     1      20.776  18.042  15.153  1.00  0.00    -0.269 OA
ENDBRANCH   4  34
BRANCH   5  37
HETATM   37  N5  UNL     1      22.564  20.767  15.606  1.00  0.00    -0.362 NA
HETATM   38  C13 UNL     1      22.183  21.599  14.657  1.00  0.00     0.271 C 
HETATM   39  N6  UNL     1      22.733  22.798  14.586  1.00  0.00    -0.358 N 
HETATM   40  N7  UNL     1      21.191  21.350  13.633  1.00  0.00    -0.218 N 
ATOM     41  H62 UNL     1      23.433  22.973  15.308  1.00  0.00     0.160 HD
ATOM     42  H61 UNL     1      22.439  23.441  13.852  1.00  0.00     0.160 HD
ATOM     43  H7  UNL     1      20.612  22.123  13.305  1.00  0.00     0.195 HD
BRANCH  40  44
HETATM   44  N8  UNL     1      21.006  20.094  13.088  1.00  0.00    -0.098 N 
BRANCH  44  45
HETATM   45  N9  UNL     1      22.050  19.415  12.754  1.00  0.00    -0.303 N 
ATOM     46  H92 UNL     1      22.330  18.669  13.391  1.00  0.00     0.181 HD
ATOM     47  H91 UNL     1      22.528  19.661  11.887  1.00  0.00     0.181 HD
ENDBRANCH  44  45
BRANCH  44  48
HETATM   48  O8  UNL     1      19.794  19.496  12.867  1.00  0.00    -0.254 OA
ATOM     49  H8  UNL     1      19.252  19.089  13.533  1.00  0.00     0.248 HD
ENDBRANCH  44  48
ENDBRANCH  40  44
ENDBRANCH   5  37
TORSDOF 15
ENDMDL
MODEL 4
REMARK VINA RESULT: -7.956707799      2.500      4.048
REMARK  15 active torsions:
REMARK  status: ('A' for Active; 'I' for Inactive)
REMARK       I    between atoms: C2_2  and  N1_4 
REMARK    1  A    between atoms: N1_4  and  C3_6 
REMARK    2  A    between atoms: C4_7  and  C5_8 
REMARK    3  A    between atoms: C5_8  and  O2_9 
REMARK    4  A    between atoms: C5_8  and  C6_11 
REMARK    5  A    between atoms: C6_11  and  O3_12 
REMARK    6  A    between atoms: C6_11  and  C7_14 
REMARK    7  A    between atoms: C7_14  and  O4_15 
REMARK    8  A    between atoms: C8_18  and  O6_19 
REMARK    9  A    between atoms: C9_21  and  N2_22 
REMARK   10  A    between atoms: C10_25  and  C11_26 
REMARK   11  A    between atoms: C12_29  and  N5_30 
REMARK       I    between atoms: N5_30  and  C13_31 
REMARK       I    between atoms: C13_31  and  N7_35 
REMARK   12  A    between atoms: N7_35  and  N8_37 
REMARK   13  A    between atoms: N8_37  and  N9_38 
REMARK   14  A    between atoms: N8_37  and  O8_41 
REMARK   15  A    between atoms: N11_47  and  O10_48 
ROOT
HETATM    1  N2  UNL     1      22.480  18.959  17.589  1.00  0.00    -0.204 N 
HETATM    2  N3  UNL     1      22.001  18.904  16.362  1.00  0.00    -0.274 N 
ATOM      3  H3  UNL     1      21.828  17.989  15.945  1.00  0.00     0.189 HD
HETATM    4  C10 UNL     1      21.732  20.005  15.640  1.00  0.00     0.161 A 
HETATM    5  C12 UNL     1      21.953  21.255  16.170  1.00  0.00     0.213 A 
HETATM    6  C14 UNL     1      22.469  21.284  17.494  1.00  0.00     0.304 A 
HETATM    7  O9  UNL     1      22.689  22.402  18.024  1.00  0.00    -0.263 OA
HETATM    8  N10 UNL     1      22.710  20.135  18.143  1.00  0.00    -0.245 N 
ATOM      9  H10 UNL     1      23.081  20.172  19.092  1.00  0.00     0.192 HD
ENDROOT
BRANCH   1  10
HETATM   10  C9  UNL     1      22.758  17.763  18.337  1.00  0.00     0.283 C 
HETATM   11  C8  UNL     1      21.457  17.235  18.907  1.00  0.00     0.300 C 
HETATM   12  O5  UNL     1      21.638  16.122  19.689  1.00  0.00    -0.346 OA
HETATM   13  C4  UNL     1      22.920  15.686  19.810  1.00  0.00     0.195 C 
HETATM   14  C3  UNL     1      23.895  16.795  20.168  1.00  0.00     0.219 C 
HETATM   15  N11 UNL     1      23.641  17.998  19.438  1.00  0.00    -0.142 NA
BRANCH  11  16
HETATM   16  O6  UNL     1      20.823  18.201  19.704  1.00  0.00    -0.368 OA
ATOM     17  H6  UNL     1      20.255  18.705  19.133  1.00  0.00     0.212 HD
ENDBRANCH  11  16
BRANCH  13  18
HETATM   18  C5  UNL     1      23.051  14.606  20.827  1.00  0.00     0.181 C 
BRANCH  18  19
HETATM   19  O2  UNL     1      24.355  14.299  21.196  1.00  0.00    -0.390 OA
ATOM     20  H2  UNL     1      24.633  14.658  22.030  1.00  0.00     0.210 HD
ENDBRANCH  18  19
BRANCH  18  21
HETATM   21  C6  UNL     1      22.180  14.678  22.042  1.00  0.00     0.173 C 
BRANCH  21  22
HETATM   22  O3  UNL     1      20.905  14.112  21.701  1.00  0.00    -0.391 OA
ATOM     23  H3  UNL     1      20.332  14.218  22.451  1.00  0.00     0.210 HD
ENDBRANCH  21  22
BRANCH  21  24
HETATM   24  C7  UNL     1      22.676  13.976  23.264  1.00  0.00     0.198 C 
BRANCH  24  25
HETATM   25  O4  UNL     1      23.766  14.497  23.893  1.00  0.00    -0.398 OA
ATOM     26  H4  UNL     1      24.589  14.504  23.417  1.00  0.00     0.209 HD
ENDBRANCH  24  25
ENDBRANCH  21  24
ENDBRANCH  18  21
ENDBRANCH  13  18
BRANCH  14  27
HETATM   27  N1  UNL     1      23.952  17.043  21.585  1.00  0.00    -0.340 N 
HETATM   28  C2  UNL     1      25.160  17.376  22.261  1.00  0.00     0.214 C 
HETATM   29  C1  UNL     1      25.236  17.631  23.700  1.00  0.00     0.117 C 
HETATM   30  O1  UNL     1      26.213  17.455  21.582  1.00  0.00    -0.274 OA
ATOM     31  H1  UNL     1      23.091  16.977  22.128  1.00  0.00     0.164 HD
ENDBRANCH  14  27
BRANCH  15  32
HETATM   32  O10 UNL     1      23.073  18.893  20.291  1.00  0.00    -0.309 OA
ATOM     33  H10 UNL     1      22.623  19.548  19.771  1.00  0.00     0.237 HD
ENDBRANCH  15  32
ENDBRANCH   1  10
BRANCH   4  34
HETATM   34  C11 UNL     1      21.207  19.872  14.302  1.00  0.00     0.286 C 
HETATM   35  N4  UNL     1      19.803  19.720  14.136  1.00  0.00    -0.056 NA
HETATM   36  O7  UNL     1      21.890  19.876  13.251  1.00  0.00    -0.269 OA
ENDBRANCH   4  34
BRANCH   5  37
HETATM   37  N5  UNL     1      21.748  22.273  15.613  1.00  0.00    -0.362 NA
HETATM   38  C13 UNL     1      21.519  23.412  14.991  1.00  0.00     0.271 C 
HETATM   39  N6  UNL     1      21.808  23.519  13.707  1.00  0.00    -0.358 N 
HETATM   40  N7  UNL     1      20.961  24.618  15.567  1.00  0.00    -0.218 N 
ATOM     41  H62 UNL     1      22.201  22.670  13.301  1.00  0.00     0.160 HD
ATOM     42  H61 UNL     1      21.630  24.401  13.225  1.00  0.00     0.160 HD
ATOM     43  H7  UNL     1      21.276  25.524  15.221  1.00  0.00     0.195 HD
BRANCH  40  44
HETATM   44  N8  UNL     1      20.013  24.575  16.572  1.00  0.00    -0.098 N 
BRANCH  44  45
HETATM   45  N9  UNL     1      20.392  24.219  17.751  1.00  0.00    -0.303 N 
ATOM     46  H92 UNL     1      19.844  23.488  18.204  1.00  0.00     0.181 HD
ATOM     47  H91 UNL     1      21.206  24.683  18.156  1.00  0.00     0.181 HD
ENDBRANCH  44  45
BRANCH  44  48
HETATM   48  O8  UNL     1      18.687  24.881  16.424  1.00  0.00    -0.254 OA
ATOM     49  H8  UNL     1      18.003  24.686  17.054  1.00  0.00     0.248 HD
ENDBRANCH  44  48
ENDBRANCH  40  44
ENDBRANCH   5  37
TORSDOF 15
ENDMDL
MODEL 5
REMARK VINA RESULT: -7.910615105      1.967      3.059
REMARK  15 active torsions:
REMARK  status: ('A' for Active; 'I' for Inactive)
REMARK       I    between atoms: C2_2  and  N1_4 
REMARK    1  A    between atoms: N1_4  and  C3_6 
REMARK    2  A    between atoms: C4_7  and  C5_8 
REMARK    3  A    between atoms: C5_8  and  O2_9 
REMARK    4  A    between atoms: C5_8  and  C6_11 
REMARK    5  A    between atoms: C6_11  and  O3_12 
REMARK    6  A    between atoms: C6_11  and  C7_14 
REMARK    7  A    between atoms: C7_14  and  O4_15 
REMARK    8  A    between atoms: C8_18  and  O6_19 
REMARK    9  A    between atoms: C9_21  and  N2_22 
REMARK   10  A    between atoms: C10_25  and  C11_26 
REMARK   11  A    between atoms: C12_29  and  N5_30 
REMARK       I    between atoms: N5_30  and  C13_31 
REMARK       I    between atoms: C13_31  and  N7_35 
REMARK   12  A    between atoms: N7_35  and  N8_37 
REMARK   13  A    between atoms: N8_37  and  N9_38 
REMARK   14  A    between atoms: N8_37  and  O8_41 
REMARK   15  A    between atoms: N11_47  and  O10_48 
ROOT
HETATM    1  N2  UNL     1      23.748  18.661  19.325  1.00  0.00    -0.204 N 
HETATM    2  N3  UNL     1      22.733  18.346  18.546  1.00  0.00    -0.274 N 
ATOM      3  H3  UNL     1      22.117  17.583  18.828  1.00  0.00     0.189 HD
HETATM    4  C10 UNL     1      22.477  18.989  17.394  1.00  0.00     0.161 A 
HETATM    5  C12 UNL     1      23.285  20.022  16.980  1.00  0.00     0.213 A 
HETATM    6  C14 UNL     1      24.372  20.340  17.840  1.00  0.00     0.304 A 
HETATM    7  O9  UNL     1      25.141  21.278  17.508  1.00  0.00    -0.263 OA
HETATM    8  N10 UNL     1      24.554  19.646  18.973  1.00  0.00    -0.245 N 
ATOM      9  H10 UNL     1      25.338  19.885  19.580  1.00  0.00     0.192 HD
ENDROOT
BRANCH   1  10
HETATM   10  C9  UNL     1      23.995  17.955  20.552  1.00  0.00     0.283 C 
HETATM   11  C8  UNL     1      25.408  17.408  20.520  1.00  0.00     0.300 C 
HETATM   12  O5  UNL     1      25.711  16.664  21.632  1.00  0.00    -0.346 OA
HETATM   13  C4  UNL     1      24.720  16.555  22.559  1.00  0.00     0.195 C 
HETATM   14  C3  UNL     1      23.384  16.155  21.956  1.00  0.00     0.219 C 
HETATM   15  N11 UNL     1      23.112  16.843  20.732  1.00  0.00    -0.142 NA
BRANCH  11  16
HETATM   16  O6  UNL     1      25.606  16.579  19.403  1.00  0.00    -0.368 OA
ATOM     17  H6  UNL     1      24.756  16.234  19.159  1.00  0.00     0.212 HD
ENDBRANCH  11  16
BRANCH  13  18
HETATM   18  C5  UNL     1      25.059  15.575  23.628  1.00  0.00     0.181 C 
BRANCH  18  19
HETATM   19  O2  UNL     1      26.413  15.285  23.753  1.00  0.00    -0.390 OA
ATOM     20  H2  UNL     1      26.975  15.698  23.108  1.00  0.00     0.210 HD
ENDBRANCH  18  19
BRANCH  18  21
HETATM   21  C6  UNL     1      24.454  15.778  24.982  1.00  0.00     0.173 C 
BRANCH  21  22
HETATM   22  O3  UNL     1      23.391  14.824  25.133  1.00  0.00    -0.391 OA
ATOM     23  H3  UNL     1      23.084  14.874  26.030  1.00  0.00     0.210 HD
ENDBRANCH  21  22
BRANCH  21  24
HETATM   24  C7  UNL     1      25.369  15.627  26.154  1.00  0.00     0.198 C 
BRANCH  24  25
HETATM   25  O4  UNL     1      26.451  16.451  26.220  1.00  0.00    -0.398 OA
ATOM     26  H4  UNL     1      26.484  17.079  26.932  1.00  0.00     0.209 HD
ENDBRANCH  24  25
ENDBRANCH  21  24
ENDBRANCH  18  21
ENDBRANCH  13  18
BRANCH  14  27
HETATM   27  N1  UNL     1      23.255  14.729  21.796  1.00  0.00    -0.340 N 
HETATM   28  C2  UNL     1      22.004  14.055  21.878  1.00  0.00     0.214 C 
HETATM   29  C1  UNL     1      21.855  12.608  21.719  1.00  0.00     0.117 C 
HETATM   30  O1  UNL     1      20.977  14.742  22.099  1.00  0.00    -0.274 OA
ATOM     31  H1  UNL     1      24.095  14.180  21.617  1.00  0.00     0.164 HD
ENDBRANCH  14  27
BRANCH  15  32
HETATM   32  O10 UNL     1      23.280  15.961  19.710  1.00  0.00    -0.309 OA
ATOM     33  H10 UNL     1      24.162  15.611  19.768  1.00  0.00     0.237 HD
ENDBRANCH  15  32
ENDBRANCH   1  10
BRANCH   4  34
HETATM   34  C11 UNL     1      21.347  18.592  16.589  1.00  0.00     0.286 C 
HETATM   35  N4  UNL     1      20.056  18.588  17.186  1.00  0.00    -0.056 NA
HETATM   36  O7  UNL     1      21.400  18.243  15.386  1.00  0.00    -0.269 OA
ENDBRANCH   4  34
BRANCH   5  37
HETATM   37  N5  UNL     1      23.141  20.641  15.989  1.00  0.00    -0.362 NA
HETATM   38  C13 UNL     1      22.980  21.334  14.878  1.00  0.00     0.271 C 
HETATM   39  N6  UNL     1      22.669  22.616  14.953  1.00  0.00    -0.358 N 
HETATM   40  N7  UNL     1      23.108  20.842  13.523  1.00  0.00    -0.218 N 
ATOM     41  H62 UNL     1      22.579  22.962  15.909  1.00  0.00     0.160 HD
ATOM     42  H61 UNL     1      22.544  23.152  14.094  1.00  0.00     0.160 HD
ATOM     43  H7  UNL     1      22.510  21.233  12.795  1.00  0.00     0.195 HD
BRANCH  40  44
HETATM   44  N8  UNL     1      24.019  19.858  13.188  1.00  0.00    -0.098 N 
BRANCH  44  45
HETATM   45  N9  UNL     1      23.897  18.701  13.744  1.00  0.00    -0.303 N 
ATOM     46  H92 UNL     1      24.003  17.890  13.135  1.00  0.00     0.181 HD
ATOM     47  H91 UNL     1      23.704  18.666  14.746  1.00  0.00     0.181 HD
ENDBRANCH  44  45
BRANCH  44  48
HETATM   48  O8  UNL     1      25.054  20.003  12.304  1.00  0.00    -0.254 OA
ATOM     49  H8  UNL     1      25.586  20.784  12.203  1.00  0.00     0.248 HD
ENDBRANCH  44  48
ENDBRANCH  40  44
ENDBRANCH   5  37
TORSDOF 15
ENDMDL
