MODEL 1
REMARK VINA RESULT: -9.639515185      0.000      0.000
REMARK  12 active torsions:
REMARK  status: ('A' for Active; 'I' for Inactive)
REMARK    1  A    between atoms: N1_1  and  C1_4 
REMARK    2  A    between atoms: C2_9  and  N4_10 
REMARK    3  A    between atoms: N4_10  and  C3_12 
REMARK    4  A    between atoms: C3_12  and  C4_13 
REMARK    5  A    between atoms: C5_17  and  O1_18 
REMARK    6  A    between atoms: C6_20  and  N6_21 
REMARK    7  A    between atoms: C7_26  and  C8_27 
REMARK       I    between atoms: C8_27  and  N9_29 
REMARK    8  A    between atoms: N9_29  and  N10_31 
REMARK       I    between atoms: N10_31  and  C9_33 
REMARK    9  A    between atoms: C9_33  and  C10_35 
REMARK       I    between atoms: C10_35  and  N11_37 
REMARK   10  A    between atoms: N11_37  and  N12_39 
REMARK   11  A    between atoms: C12_46  and  O5_47 
REMARK   12  A    between atoms: C13_49  and  O6_50 
ROOT
HETATM    1  C4  UNL     1      22.027  19.066  18.521  1.00  0.00     0.237 C 
HETATM    2  N5  UNL     1      21.345  18.440  19.636  1.00  0.00    -0.038 N 
ATOM      3  H51 UNL     1      20.406  18.822  19.736  1.00  0.00     0.281 HD
ATOM      4  H52 UNL     1      21.755  18.745  20.518  1.00  0.00     0.281 HD
HETATM    5  C5  UNL     1      21.297  17.014  19.579  1.00  0.00     0.348 C 
HETATM    6  C6  UNL     1      22.643  16.353  19.426  1.00  0.00     0.215 C 
HETATM    7  C12 UNL     1      23.673  17.443  19.301  1.00  0.00     0.179 C 
HETATM    8  C13 UNL     1      23.245  18.296  18.113  1.00  0.00     0.181 C 
ENDROOT
BRANCH   6   9
HETATM    9  N6  UNL     1      22.969  15.536  20.591  1.00  0.00    -0.206 N 
HETATM   10  N7  UNL     1      22.738  14.225  20.746  1.00  0.00    -0.224 N 
HETATM   11  N8  UNL     1      23.171  13.883  21.930  1.00  0.00    -0.264 N 
ATOM     12  H7  UNL     1      22.301  13.606  20.063  1.00  0.00     0.210 HD
HETATM   13  C7  UNL     1      23.681  14.962  22.535  1.00  0.00     0.208 A 
ATOM     14  H8  UNL     1      23.129  12.945  22.328  1.00  0.00     0.190 HD
HETATM   15  N15 UNL     1      23.546  15.985  21.683  1.00  0.00    -0.261 N 
ATOM     16  H15 UNL     1      23.840  16.948  21.851  1.00  0.00     0.190 HD
BRANCH  13  17
HETATM   17  C8  UNL     1      24.255  14.960  23.879  1.00  0.00     0.306 C 
HETATM   18  O2  UNL     1      23.685  14.383  24.827  1.00  0.00    -0.262 OA
HETATM   19  N9  UNL     1      25.495  15.623  24.155  1.00  0.00    -0.260 N 
ATOM     20  H9  UNL     1      25.985  16.099  23.399  1.00  0.00     0.190 HD
BRANCH  19  21
HETATM   21  N10 UNL     1      26.039  15.630  25.419  1.00  0.00    -0.259 N 
HETATM   22  C9  UNL     1      25.952  16.787  26.246  1.00  0.00     0.329 C 
HETATM   23  O3  UNL     1      25.370  17.802  25.802  1.00  0.00    -0.261 OA
ATOM     24  H10 UNL     1      26.510  14.796  25.768  1.00  0.00     0.190 HD
BRANCH  22  25
HETATM   25  C10 UNL     1      26.522  16.815  27.580  1.00  0.00     0.329 C 
HETATM   26  O4  UNL     1      26.362  15.812  28.352  1.00  0.00    -0.261 OA
HETATM   27  N11 UNL     1      27.255  17.898  28.088  1.00  0.00    -0.260 N 
ATOM     28  H11 UNL     1      27.396  18.713  27.492  1.00  0.00     0.190 HD
BRANCH  27  29
HETATM   29  N12 UNL     1      27.801  17.909  29.373  1.00  0.00    -0.273 N 
HETATM   30  C11 UNL     1      27.320  18.771  30.207  1.00  0.00     0.215 C 
HETATM   31  N13 UNL     1      26.290  19.671  29.857  1.00  0.00    -0.065 NA
HETATM   32  N14 UNL     1      27.820  18.847  31.553  1.00  0.00    -0.065 NA
ATOM     33  H12 UNL     1      28.545  17.267  29.642  1.00  0.00     0.189 HD
ENDBRANCH  27  29
ENDBRANCH  22  25
ENDBRANCH  19  21
ENDBRANCH  13  17
ENDBRANCH   6   9
BRANCH   5  34
HETATM   34  O1  UNL     1      20.430  16.488  18.642  1.00  0.00    -0.368 OA
ATOM     35  H1  UNL     1      20.836  15.978  17.951  1.00  0.00     0.212 HD
ENDBRANCH   5  34
BRANCH   7  36
HETATM   36  O5  UNL     1      24.942  16.952  19.045  1.00  0.00    -0.391 OA
ATOM     37  H5  UNL     1      25.564  17.171  19.729  1.00  0.00     0.210 HD
ENDBRANCH   7  36
BRANCH   8  38
HETATM   38  O6  UNL     1      24.318  19.135  17.812  1.00  0.00    -0.391 OA
ATOM     39  H6  UNL     1      25.107  18.646  17.611  1.00  0.00     0.210 HD
ENDBRANCH   8  38
BRANCH   1  40
HETATM   40  C3  UNL     1      21.107  19.287  17.350  1.00  0.00     0.157 C 
BRANCH  40  41
HETATM   41  N4  UNL     1      21.486  18.525  16.190  1.00  0.00    -0.367 N 
ATOM     42  H4  UNL     1      22.064  17.695  16.323  1.00  0.00     0.161 HD
BRANCH  41  43
HETATM   43  C2  UNL     1      21.094  18.875  14.858  1.00  0.00     0.162 A 
HETATM   44  N3  UNL     1      20.034  18.479  14.172  1.00  0.00    -0.278 N 
HETATM   45  N2  UNL     1      19.843  18.892  12.986  1.00  0.00    -0.278 N 
ATOM     46  H3  UNL     1      19.366  17.838  14.599  1.00  0.00     0.189 HD
HETATM   47  C1  UNL     1      20.726  19.727  12.443  1.00  0.00     0.160 A 
ATOM     48  H2  UNL     1      19.026  18.587  12.457  1.00  0.00     0.189 HD
HETATM   49  S1  UNL     1      21.860  19.903  13.721  1.00  0.00    -0.016 SA
BRANCH  47  50
HETATM   50  N1  UNL     1      20.713  20.261  11.245  1.00  0.00    -0.379 N 
ATOM     51  H12 UNL     1      19.928  20.555  10.664  1.00  0.00     0.158 HD
ATOM     52  H11 UNL     1      21.505  20.493  10.647  1.00  0.00     0.158 HD
ENDBRANCH  47  50
ENDBRANCH  41  43
ENDBRANCH  40  41
ENDBRANCH   1  40
TORSDOF 12
ENDMDL
MODEL 2
REMARK VINA RESULT: -9.630128886      3.589     11.784
REMARK  12 active torsions:
REMARK  status: ('A' for Active; 'I' for Inactive)
REMARK    1  A    between atoms: N1_1  and  C1_4 
REMARK    2  A    between atoms: C2_9  and  N4_10 
REMARK    3  A    between atoms: N4_10  and  C3_12 
REMARK    4  A    between atoms: C3_12  and  C4_13 
REMARK    5  A    between atoms: C5_17  and  O1_18 
REMARK    6  A    between atoms: C6_20  and  N6_21 
REMARK    7  A    between atoms: C7_26  and  C8_27 
REMARK       I    between atoms: C8_27  and  N9_29 
REMARK    8  A    between atoms: N9_29  and  N10_31 
REMARK       I    between atoms: N10_31  and  C9_33 
REMARK    9  A    between atoms: C9_33  and  C10_35 
REMARK       I    between atoms: C10_35  and  N11_37 
REMARK   10  A    between atoms: N11_37  and  N12_39 
REMARK   11  A    between atoms: C12_46  and  O5_47 
REMARK   12  A    between atoms: C13_49  and  O6_50 
ROOT
HETATM    1  C4  UNL     1      24.800  16.046  26.538  1.00  0.00     0.237 C 
HETATM    2  N5  UNL     1      24.661  16.581  25.198  1.00  0.00    -0.038 N 
ATOM      3  H51 UNL     1      25.290  17.372  25.066  1.00  0.00     0.281 HD
ATOM      4  H52 UNL     1      23.762  17.051  25.096  1.00  0.00     0.281 HD
HETATM    5  C5  UNL     1      24.841  15.624  24.154  1.00  0.00     0.348 C 
HETATM    6  C6  UNL     1      23.954  14.410  24.265  1.00  0.00     0.215 C 
HETATM    7  C12 UNL     1      23.162  14.541  25.537  1.00  0.00     0.179 C 
HETATM    8  C13 UNL     1      24.183  14.687  26.660  1.00  0.00     0.181 C 
ENDROOT
BRANCH   6   9
HETATM    9  N6  UNL     1      23.023  14.328  23.143  1.00  0.00    -0.206 N 
HETATM   10  N7  UNL     1      22.141  13.348  22.899  1.00  0.00    -0.224 N 
HETATM   11  N8  UNL     1      21.509  13.650  21.797  1.00  0.00    -0.264 N 
ATOM     12  H7  UNL     1      21.990  12.517  23.471  1.00  0.00     0.210 HD
HETATM   13  C7  UNL     1      21.976  14.816  21.332  1.00  0.00     0.208 A 
ATOM     14  H8  UNL     1      20.777  13.090  21.360  1.00  0.00     0.190 HD
HETATM   15  N15 UNL     1      22.922  15.223  22.188  1.00  0.00    -0.261 N 
ATOM     16  H15 UNL     1      23.469  16.081  22.111  1.00  0.00     0.190 HD
BRANCH  13  17
HETATM   17  C8  UNL     1      21.506  15.464  20.110  1.00  0.00     0.306 C 
HETATM   18  O2  UNL     1      20.443  15.117  19.559  1.00  0.00    -0.262 OA
HETATM   19  N9  UNL     1      22.254  16.524  19.501  1.00  0.00    -0.260 N 
ATOM     20  H9  UNL     1      23.125  16.831  19.932  1.00  0.00     0.190 HD
BRANCH  19  21
HETATM   21  N10 UNL     1      21.821  17.136  18.347  1.00  0.00    -0.259 N 
HETATM   22  C9  UNL     1      21.171  18.404  18.391  1.00  0.00     0.329 C 
HETATM   23  O3  UNL     1      21.000  18.955  19.501  1.00  0.00    -0.261 OA
ATOM     24  H10 UNL     1      21.968  16.676  17.448  1.00  0.00     0.190 HD
BRANCH  22  25
HETATM   25  C10 UNL     1      20.706  19.063  17.185  1.00  0.00     0.329 C 
HETATM   26  O4  UNL     1      19.610  18.692  16.648  1.00  0.00    -0.261 OA
HETATM   27  N11 UNL     1      21.398  20.110  16.556  1.00  0.00    -0.260 N 
ATOM     28  H11 UNL     1      22.279  20.425  16.964  1.00  0.00     0.190 HD
BRANCH  27  29
HETATM   29  N12 UNL     1      20.937  20.738  15.398  1.00  0.00    -0.273 N 
HETATM   30  C11 UNL     1      21.536  20.442  14.293  1.00  0.00     0.215 C 
HETATM   31  N13 UNL     1      22.610  19.529  14.232  1.00  0.00    -0.065 NA
HETATM   32  N14 UNL     1      21.120  21.040  13.052  1.00  0.00    -0.065 NA
ATOM     33  H12 UNL     1      20.163  21.401  15.424  1.00  0.00     0.189 HD
ENDBRANCH  27  29
ENDBRANCH  22  25
ENDBRANCH  19  21
ENDBRANCH  13  17
ENDBRANCH   6   9
BRANCH   5  34
HETATM   34  O1  UNL     1      26.143  15.212  23.947  1.00  0.00    -0.368 OA
ATOM     35  H1  UNL     1      26.580  15.604  23.200  1.00  0.00     0.212 HD
ENDBRANCH   5  34
BRANCH   7  36
HETATM   36  O5  UNL     1      22.387  13.424  25.801  1.00  0.00    -0.391 OA
ATOM     37  H5  UNL     1      21.613  13.627  26.313  1.00  0.00     0.210 HD
ENDBRANCH   7  36
BRANCH   8  38
HETATM   38  O6  UNL     1      23.488  14.533  27.859  1.00  0.00    -0.391 OA
ATOM     39  H6  UNL     1      22.708  14.000  27.754  1.00  0.00     0.210 HD
ENDBRANCH   8  38
BRANCH   1  40
HETATM   40  C3  UNL     1      26.235  16.033  26.993  1.00  0.00     0.157 C 
BRANCH  40  41
HETATM   41  N4  UNL     1      26.851  17.332  26.938  1.00  0.00    -0.367 N 
ATOM     42  H4  UNL     1      26.615  17.948  26.159  1.00  0.00     0.161 HD
BRANCH  41  43
HETATM   43  C2  UNL     1      27.779  17.803  27.922  1.00  0.00     0.162 A 
HETATM   44  N3  UNL     1      28.901  18.483  27.748  1.00  0.00    -0.278 N 
HETATM   45  N2  UNL     1      29.611  18.819  28.746  1.00  0.00    -0.278 N 
ATOM     46  H3  UNL     1      29.197  18.739  26.806  1.00  0.00     0.189 HD
HETATM   47  C1  UNL     1      29.211  18.476  29.968  1.00  0.00     0.160 A 
ATOM     48  H2  UNL     1      30.476  19.344  28.612  1.00  0.00     0.189 HD
HETATM   49  S1  UNL     1      27.751  17.639  29.626  1.00  0.00    -0.016 SA
BRANCH  47  50
HETATM   50  N1  UNL     1      29.796  18.722  31.116  1.00  0.00    -0.379 N 
ATOM     51  H12 UNL     1      30.594  18.267  31.559  1.00  0.00     0.158 HD
ATOM     52  H11 UNL     1      29.562  19.436  31.806  1.00  0.00     0.158 HD
ENDBRANCH  47  50
ENDBRANCH  41  43
ENDBRANCH  40  41
ENDBRANCH   1  40
TORSDOF 12
ENDMDL
MODEL 3
REMARK VINA RESULT: -9.571744973      1.430      1.508
REMARK  12 active torsions:
REMARK  status: ('A' for Active; 'I' for Inactive)
REMARK    1  A    between atoms: N1_1  and  C1_4 
REMARK    2  A    between atoms: C2_9  and  N4_10 
REMARK    3  A    between atoms: N4_10  and  C3_12 
REMARK    4  A    between atoms: C3_12  and  C4_13 
REMARK    5  A    between atoms: C5_17  and  O1_18 
REMARK    6  A    between atoms: C6_20  and  N6_21 
REMARK    7  A    between atoms: C7_26  and  C8_27 
REMARK       I    between atoms: C8_27  and  N9_29 
REMARK    8  A    between atoms: N9_29  and  N10_31 
REMARK       I    between atoms: N10_31  and  C9_33 
REMARK    9  A    between atoms: C9_33  and  C10_35 
REMARK       I    between atoms: C10_35  and  N11_37 
REMARK   10  A    between atoms: N11_37  and  N12_39 
REMARK   11  A    between atoms: C12_46  and  O5_47 
REMARK   12  A    between atoms: C13_49  and  O6_50 
ROOT
HETATM    1  C4  UNL     1      22.087  18.851  18.442  1.00  0.00     0.237 C 
HETATM    2  N5  UNL     1      21.332  18.270  19.534  1.00  0.00    -0.038 N 
ATOM      3  H51 UNL     1      20.387  18.652  19.554  1.00  0.00     0.281 HD
ATOM      4  H52 UNL     1      21.680  18.615  20.428  1.00  0.00     0.281 HD
HETATM    5  C5  UNL     1      21.291  16.843  19.536  1.00  0.00     0.348 C 
HETATM    6  C6  UNL     1      22.646  16.183  19.504  1.00  0.00     0.215 C 
HETATM    7  C12 UNL     1      23.679  17.271  19.402  1.00  0.00     0.179 C 
HETATM    8  C13 UNL     1      23.331  18.070  18.151  1.00  0.00     0.181 C 
ENDROOT
BRANCH   6   9
HETATM    9  N6  UNL     1      22.894  15.418  20.723  1.00  0.00    -0.206 N 
HETATM   10  N7  UNL     1      22.454  14.183  21.003  1.00  0.00    -0.224 N 
HETATM   11  N8  UNL     1      22.888  13.868  22.194  1.00  0.00    -0.264 N 
ATOM     12  H7  UNL     1      21.883  13.595  20.395  1.00  0.00     0.210 HD
HETATM   13  C7  UNL     1      23.604  14.889  22.680  1.00  0.00     0.208 A 
ATOM     14  H8  UNL     1      22.711  12.987  22.675  1.00  0.00     0.190 HD
HETATM   15  N15 UNL     1      23.596  15.848  21.746  1.00  0.00    -0.261 N 
ATOM     16  H15 UNL     1      24.056  16.756  21.817  1.00  0.00     0.190 HD
BRANCH  13  17
HETATM   17  C8  UNL     1      24.242  14.897  23.995  1.00  0.00     0.306 C 
HETATM   18  O2  UNL     1      23.737  14.296  24.964  1.00  0.00    -0.262 OA
HETATM   19  N9  UNL     1      25.472  15.597  24.216  1.00  0.00    -0.260 N 
ATOM     20  H9  UNL     1      25.909  16.095  23.441  1.00  0.00     0.190 HD
BRANCH  19  21
HETATM   21  N10 UNL     1      26.076  15.614  25.452  1.00  0.00    -0.259 N 
HETATM   22  C9  UNL     1      25.923  16.729  26.326  1.00  0.00     0.329 C 
HETATM   23  O3  UNL     1      25.227  17.699  25.950  1.00  0.00    -0.261 OA
ATOM     24  H10 UNL     1      26.641  14.817  25.747  1.00  0.00     0.190 HD
BRANCH  22  25
HETATM   25  C10 UNL     1      26.554  16.766  27.632  1.00  0.00     0.329 C 
HETATM   26  O4  UNL     1      26.368  15.803  28.447  1.00  0.00    -0.261 OA
HETATM   27  N11 UNL     1      27.376  17.817  28.068  1.00  0.00    -0.260 N 
ATOM     28  H11 UNL     1      27.539  18.601  27.436  1.00  0.00     0.190 HD
BRANCH  27  29
HETATM   29  N12 UNL     1      27.979  17.838  29.326  1.00  0.00    -0.273 N 
HETATM   30  C11 UNL     1      29.098  18.475  29.429  1.00  0.00     0.215 C 
HETATM   31  N13 UNL     1      29.704  19.127  28.334  1.00  0.00    -0.065 NA
HETATM   32  N14 UNL     1      29.785  18.551  30.691  1.00  0.00    -0.065 NA
ATOM     33  H12 UNL     1      27.556  17.372  30.128  1.00  0.00     0.189 HD
ENDBRANCH  27  29
ENDBRANCH  22  25
ENDBRANCH  19  21
ENDBRANCH  13  17
ENDBRANCH   6   9
BRANCH   5  34
HETATM   34  O1  UNL     1      20.490  16.272  18.566  1.00  0.00    -0.368 OA
ATOM     35  H1  UNL     1      19.591  16.576  18.550  1.00  0.00     0.212 HD
ENDBRANCH   5  34
BRANCH   7  36
HETATM   36  O5  UNL     1      24.964  16.776  19.254  1.00  0.00    -0.391 OA
ATOM     37  H5  UNL     1      24.981  15.916  18.850  1.00  0.00     0.210 HD
ENDBRANCH   7  36
BRANCH   8  38
HETATM   38  O6  UNL     1      24.421  18.900  17.888  1.00  0.00    -0.391 OA
ATOM     39  H6  UNL     1      24.351  19.734  18.337  1.00  0.00     0.210 HD
ENDBRANCH   8  38
BRANCH   1  40
HETATM   40  C3  UNL     1      21.248  19.016  17.203  1.00  0.00     0.157 C 
BRANCH  40  41
HETATM   41  N4  UNL     1      21.736  20.053  16.333  1.00  0.00    -0.367 N 
ATOM     42  H4  UNL     1      21.572  21.025  16.597  1.00  0.00     0.161 HD
BRANCH  41  43
HETATM   43  C2  UNL     1      22.440  19.789  15.114  1.00  0.00     0.162 A 
HETATM   44  N3  UNL     1      21.983  19.272  13.985  1.00  0.00    -0.278 N 
HETATM   45  N2  UNL     1      22.758  19.102  12.994  1.00  0.00    -0.278 N 
ATOM     46  H3  UNL     1      21.000  19.008  13.910  1.00  0.00     0.189 HD
HETATM   47  C1  UNL     1      24.038  19.450  13.108  1.00  0.00     0.160 A 
ATOM     48  H2  UNL     1      22.406  18.705  12.123  1.00  0.00     0.189 HD
HETATM   49  S1  UNL     1      24.087  20.042  14.720  1.00  0.00    -0.016 SA
BRANCH  47  50
HETATM   50  N1  UNL     1      24.992  19.355  12.213  1.00  0.00    -0.379 N 
ATOM     51  H12 UNL     1      25.952  19.697  12.235  1.00  0.00     0.158 HD
ATOM     52  H11 UNL     1      24.958  18.907  11.298  1.00  0.00     0.158 HD
ENDBRANCH  47  50
ENDBRANCH  41  43
ENDBRANCH  40  41
ENDBRANCH   1  40
TORSDOF 12
ENDMDL
MODEL 4
REMARK VINA RESULT: -9.550951193      0.933      1.053
REMARK  12 active torsions:
REMARK  status: ('A' for Active; 'I' for Inactive)
REMARK    1  A    between atoms: N1_1  and  C1_4 
REMARK    2  A    between atoms: C2_9  and  N4_10 
REMARK    3  A    between atoms: N4_10  and  C3_12 
REMARK    4  A    between atoms: C3_12  and  C4_13 
REMARK    5  A    between atoms: C5_17  and  O1_18 
REMARK    6  A    between atoms: C6_20  and  N6_21 
REMARK    7  A    between atoms: C7_26  and  C8_27 
REMARK       I    between atoms: C8_27  and  N9_29 
REMARK    8  A    between atoms: N9_29  and  N10_31 
REMARK       I    between atoms: N10_31  and  C9_33 
REMARK    9  A    between atoms: C9_33  and  C10_35 
REMARK       I    between atoms: C10_35  and  N11_37 
REMARK   10  A    between atoms: N11_37  and  N12_39 
REMARK   11  A    between atoms: C12_46  and  O5_47 
REMARK   12  A    between atoms: C13_49  and  O6_50 
ROOT
HETATM    1  C4  UNL     1      22.122  18.994  18.608  1.00  0.00     0.237 C 
HETATM    2  N5  UNL     1      21.412  18.373  19.707  1.00  0.00    -0.038 N 
ATOM      3  H51 UNL     1      20.470  18.758  19.783  1.00  0.00     0.281 HD
ATOM      4  H52 UNL     1      21.800  18.681  20.599  1.00  0.00     0.281 HD
HETATM    5  C5  UNL     1      21.362  16.947  19.654  1.00  0.00     0.348 C 
HETATM    6  C6  UNL     1      22.711  16.284  19.537  1.00  0.00     0.215 C 
HETATM    7  C12 UNL     1      23.745  17.371  19.435  1.00  0.00     0.179 C 
HETATM    8  C13 UNL     1      23.349  18.221  18.233  1.00  0.00     0.181 C 
ENDROOT
BRANCH   6   9
HETATM    9  N6  UNL     1      23.006  15.470  20.714  1.00  0.00    -0.206 N 
HETATM   10  N7  UNL     1      22.707  14.176  20.893  1.00  0.00    -0.224 N 
HETATM   11  N8  UNL     1      23.135  13.831  22.078  1.00  0.00    -0.264 N 
ATOM     12  H7  UNL     1      22.232  13.569  20.225  1.00  0.00     0.210 HD
HETATM   13  C7  UNL     1      23.707  14.892  22.660  1.00  0.00     0.208 A 
ATOM     14  H8  UNL     1      23.048  12.903  22.493  1.00  0.00     0.190 HD
HETATM   15  N15 UNL     1      23.617  15.906  21.791  1.00  0.00    -0.261 N 
ATOM     16  H15 UNL     1      23.963  16.855  21.940  1.00  0.00     0.190 HD
BRANCH  13  17
HETATM   17  C8  UNL     1      24.294  14.882  23.998  1.00  0.00     0.306 C 
HETATM   18  O2  UNL     1      23.725  14.315  24.952  1.00  0.00    -0.262 OA
HETATM   19  N9  UNL     1      25.548  15.525  24.261  1.00  0.00    -0.260 N 
ATOM     20  H9  UNL     1      26.037  15.994  23.499  1.00  0.00     0.190 HD
BRANCH  19  21
HETATM   21  N10 UNL     1      26.104  15.525  25.519  1.00  0.00    -0.259 N 
HETATM   22  C9  UNL     1      26.089  16.699  26.326  1.00  0.00     0.329 C 
HETATM   23  O3  UNL     1      25.557  17.737  25.870  1.00  0.00    -0.261 OA
ATOM     24  H10 UNL     1      26.534  14.673  25.879  1.00  0.00     0.190 HD
BRANCH  22  25
HETATM   25  C10 UNL     1      26.672  16.720  27.654  1.00  0.00     0.329 C 
HETATM   26  O4  UNL     1      26.482  15.733  28.439  1.00  0.00    -0.261 OA
HETATM   27  N11 UNL     1      27.453  17.778  28.143  1.00  0.00    -0.260 N 
ATOM     28  H11 UNL     1      27.620  18.581  27.536  1.00  0.00     0.190 HD
BRANCH  27  29
HETATM   29  N12 UNL     1      28.012  17.783  29.422  1.00  0.00    -0.273 N 
HETATM   30  C11 UNL     1      29.099  18.462  29.585  1.00  0.00     0.215 C 
HETATM   31  N13 UNL     1      29.713  19.174  28.532  1.00  0.00    -0.065 NA
HETATM   32  N14 UNL     1      29.738  18.525  30.872  1.00  0.00    -0.065 NA
ATOM     33  H12 UNL     1      27.582  17.273  30.193  1.00  0.00     0.189 HD
ENDBRANCH  27  29
ENDBRANCH  22  25
ENDBRANCH  19  21
ENDBRANCH  13  17
ENDBRANCH   6   9
BRANCH   5  34
HETATM   34  O1  UNL     1      20.518  16.419  18.697  1.00  0.00    -0.368 OA
ATOM     35  H1  UNL     1      20.753  15.556  18.378  1.00  0.00     0.212 HD
ENDBRANCH   5  34
BRANCH   7  36
HETATM   36  O5  UNL     1      25.019  16.877  19.213  1.00  0.00    -0.391 OA
ATOM     37  H5  UNL     1      25.150  16.589  18.317  1.00  0.00     0.210 HD
ENDBRANCH   7  36
BRANCH   8  38
HETATM   38  O6  UNL     1      24.431  19.057  17.957  1.00  0.00    -0.391 OA
ATOM     39  H6  UNL     1      24.573  19.159  17.023  1.00  0.00     0.210 HD
ENDBRANCH   8  38
BRANCH   1  40
HETATM   40  C3  UNL     1      21.233  19.213  17.414  1.00  0.00     0.157 C 
BRANCH  40  41
HETATM   41  N4  UNL     1      21.593  18.390  16.290  1.00  0.00    -0.367 N 
ATOM     42  H4  UNL     1      21.873  17.424  16.466  1.00  0.00     0.161 HD
BRANCH  41  43
HETATM   43  C2  UNL     1      21.581  18.858  14.937  1.00  0.00     0.162 A 
HETATM   44  N3  UNL     1      22.573  18.900  14.062  1.00  0.00    -0.278 N 
HETATM   45  N2  UNL     1      22.382  19.357  12.893  1.00  0.00    -0.278 N 
ATOM     46  H3  UNL     1      23.497  18.563  14.329  1.00  0.00     0.189 HD
HETATM   47  C1  UNL     1      21.169  19.795  12.561  1.00  0.00     0.160 A 
ATOM     48  H2  UNL     1      23.146  19.388  12.218  1.00  0.00     0.189 HD
HETATM   49  S1  UNL     1      20.298  19.520  14.015  1.00  0.00    -0.016 SA
BRANCH  47  50
HETATM   50  N1  UNL     1      20.770  20.301  11.419  1.00  0.00    -0.379 N 
ATOM     51  H12 UNL     1      19.891  20.756  11.172  1.00  0.00     0.158 HD
ATOM     52  H11 UNL     1      21.274  20.340  10.533  1.00  0.00     0.158 HD
ENDBRANCH  47  50
ENDBRANCH  41  43
ENDBRANCH  40  41
ENDBRANCH   1  40
TORSDOF 12
ENDMDL
MODEL 5
REMARK VINA RESULT: -9.306994117      3.415     11.859
REMARK  12 active torsions:
REMARK  status: ('A' for Active; 'I' for Inactive)
REMARK    1  A    between atoms: N1_1  and  C1_4 
REMARK    2  A    between atoms: C2_9  and  N4_10 
REMARK    3  A    between atoms: N4_10  and  C3_12 
REMARK    4  A    between atoms: C3_12  and  C4_13 
REMARK    5  A    between atoms: C5_17  and  O1_18 
REMARK    6  A    between atoms: C6_20  and  N6_21 
REMARK    7  A    between atoms: C7_26  and  C8_27 
REMARK       I    between atoms: C8_27  and  N9_29 
REMARK    8  A    between atoms: N9_29  and  N10_31 
REMARK       I    between atoms: N10_31  and  C9_33 
REMARK    9  A    between atoms: C9_33  and  C10_35 
REMARK       I    between atoms: C10_35  and  N11_37 
REMARK   10  A    between atoms: N11_37  and  N12_39 
REMARK   11  A    between atoms: C12_46  and  O5_47 
REMARK   12  A    between atoms: C13_49  and  O6_50 
ROOT
HETATM    1  C4  UNL     1      24.097  16.318  27.542  1.00  0.00     0.237 C 
HETATM    2  N5  UNL     1      24.303  16.829  26.202  1.00  0.00    -0.038 N 
ATOM      3  H51 UNL     1      24.914  17.644  26.224  1.00  0.00     0.281 HD
ATOM      4  H52 UNL     1      23.447  17.259  25.852  1.00  0.00     0.281 HD
HETATM    5  C5  UNL     1      24.792  15.867  25.267  1.00  0.00     0.348 C 
HETATM    6  C6  UNL     1      23.954  14.618  25.166  1.00  0.00     0.215 C 
HETATM    7  C12 UNL     1      22.845  14.731  26.176  1.00  0.00     0.179 C 
HETATM    8  C13 UNL     1      23.521  14.936  27.527  1.00  0.00     0.181 C 
ENDROOT
BRANCH   6   9
HETATM    9  N6  UNL     1      23.362  14.481  23.839  1.00  0.00    -0.206 N 
HETATM   10  N7  UNL     1      22.584  13.480  23.403  1.00  0.00    -0.224 N 
HETATM   11  N8  UNL     1      22.272  13.733  22.160  1.00  0.00    -0.264 N 
ATOM     12  H7  UNL     1      22.290  12.667  23.943  1.00  0.00     0.210 HD
HETATM   13  C7  UNL     1      22.840  14.889  21.795  1.00  0.00     0.208 A 
ATOM     14  H8  UNL     1      21.689  13.145  21.564  1.00  0.00     0.190 HD
HETATM   15  N15 UNL     1      23.517  15.341  22.858  1.00  0.00    -0.261 N 
ATOM     16  H15 UNL     1      24.059  16.204  22.899  1.00  0.00     0.190 HD
BRANCH  13  17
HETATM   17  C8  UNL     1      22.714  15.487  20.468  1.00  0.00     0.306 C 
HETATM   18  O2  UNL     1      23.719  15.820  19.808  1.00  0.00    -0.262 OA
HETATM   19  N9  UNL     1      21.428  15.711  19.877  1.00  0.00    -0.260 N 
ATOM     20  H9  UNL     1      20.590  15.445  20.392  1.00  0.00     0.190 HD
BRANCH  19  21
HETATM   21  N10 UNL     1      21.301  16.279  18.630  1.00  0.00    -0.259 N 
HETATM   22  C9  UNL     1      21.019  17.668  18.484  1.00  0.00     0.329 C 
HETATM   23  O3  UNL     1      20.889  18.368  19.513  1.00  0.00    -0.261 OA
ATOM     24  H10 UNL     1      21.410  15.698  17.799  1.00  0.00     0.190 HD
BRANCH  22  25
HETATM   25  C10 UNL     1      20.878  18.284  17.178  1.00  0.00     0.329 C 
HETATM   26  O4  UNL     1      19.745  18.749  16.821  1.00  0.00    -0.261 OA
HETATM   27  N11 UNL     1      21.933  18.407  16.260  1.00  0.00    -0.260 N 
ATOM     28  H11 UNL     1      22.849  18.042  16.520  1.00  0.00     0.190 HD
BRANCH  27  29
HETATM   29  N12 UNL     1      21.784  19.005  15.008  1.00  0.00    -0.273 N 
HETATM   30  C11 UNL     1      22.864  19.374  14.402  1.00  0.00     0.215 C 
HETATM   31  N13 UNL     1      24.148  19.191  14.961  1.00  0.00    -0.065 NA
HETATM   32  N14 UNL     1      22.802  19.993  13.105  1.00  0.00    -0.065 NA
ATOM     33  H12 UNL     1      20.865  19.146  14.590  1.00  0.00     0.189 HD
ENDBRANCH  27  29
ENDBRANCH  22  25
ENDBRANCH  19  21
ENDBRANCH  13  17
ENDBRANCH   6   9
BRANCH   5  34
HETATM   34  O1  UNL     1      26.116  15.508  25.425  1.00  0.00    -0.368 OA
ATOM     35  H1  UNL     1      26.444  14.874  24.798  1.00  0.00     0.212 HD
ENDBRANCH   5  34
BRANCH   7  36
HETATM   36  O5  UNL     1      22.071  13.586  26.251  1.00  0.00    -0.391 OA
ATOM     37  H5  UNL     1      21.330  13.605  25.655  1.00  0.00     0.210 HD
ENDBRANCH   7  36
BRANCH   8  38
HETATM   38  O6  UNL     1      22.536  14.768  28.500  1.00  0.00    -0.391 OA
ATOM     39  H6  UNL     1      22.720  14.031  29.071  1.00  0.00     0.210 HD
ENDBRANCH   8  38
BRANCH   1  40
HETATM   40  C3  UNL     1      25.357  16.372  28.365  1.00  0.00     0.157 C 
BRANCH  40  41
HETATM   41  N4  UNL     1      26.230  17.449  27.980  1.00  0.00    -0.367 N 
ATOM     42  H4  UNL     1      25.989  17.997  27.154  1.00  0.00     0.161 HD
BRANCH  41  43
HETATM   43  C2  UNL     1      27.422  17.788  28.698  1.00  0.00     0.162 A 
HETATM   44  N3  UNL     1      27.767  17.470  29.935  1.00  0.00    -0.278 N 
HETATM   45  N2  UNL     1      28.873  17.865  30.418  1.00  0.00    -0.278 N 
ATOM     46  H3  UNL     1      27.139  16.903  30.505  1.00  0.00     0.189 HD
HETATM   47  C1  UNL     1      29.680  18.605  29.660  1.00  0.00     0.160 A 
ATOM     48  H2  UNL     1      29.140  17.619  31.371  1.00  0.00     0.189 HD
HETATM   49  S1  UNL     1      28.776  18.714  28.204  1.00  0.00    -0.016 SA
BRANCH  47  50
HETATM   50  N1  UNL     1      30.851  19.109  29.968  1.00  0.00    -0.379 N 
ATOM     51  H12 UNL     1      31.196  19.480  30.854  1.00  0.00     0.158 HD
ATOM     52  H11 UNL     1      31.667  19.229  29.368  1.00  0.00     0.158 HD
ENDBRANCH  47  50
ENDBRANCH  41  43
ENDBRANCH  40  41
ENDBRANCH   1  40
TORSDOF 12
ENDMDL
