MODEL 1
REMARK VINA RESULT: -8.508205615      0.000      0.000
REMARK  15 active torsions:
REMARK  status: ('A' for Active; 'I' for Inactive)
REMARK       I    between atoms: C2_2  and  N1_4 
REMARK    1  A    between atoms: N1_4  and  C3_5 
REMARK    2  A    between atoms: C4_6  and  O2_7 
REMARK    3  A    between atoms: O2_7  and  C5_8 
REMARK    4  A    between atoms: C5_8  and  C6_9 
REMARK    5  A    between atoms: C7_11  and  N2_12 
REMARK    6  A    between atoms: C10_21  and  N6_22 
REMARK    7  A    between atoms: C12_28  and  O4_29 
REMARK    8  A    between atoms: C13_31  and  O5_32 
REMARK    9  A    between atoms: C14_34  and  C15_35 
REMARK   10  A    between atoms: C15_35  and  O6_36 
REMARK   11  A    between atoms: C16_38  and  N8_39 
REMARK   12  A    between atoms: C16_38  and  O7_43 
REMARK   13  A    between atoms: C17_45  and  O8_46 
REMARK   14  A    between atoms: C17_45  and  O9_48 
REMARK   15  A    between atoms: C18_50  and  O10_51 
ROOT
HETATM    1  C6  UNL     1      25.721  19.562  20.002  1.00  0.00     0.157 C 
HETATM    2  O3  UNL     1      24.713  18.617  20.390  1.00  0.00    -0.353 OA
HETATM    3  C7  UNL     1      25.411  17.622  21.098  1.00  0.00     0.294 C 
HETATM    4  C12 UNL     1      26.007  18.166  22.360  1.00  0.00     0.199 C 
HETATM    5  C13 UNL     1      26.853  19.371  22.136  1.00  0.00     0.160 C 
HETATM    6  C14 UNL     1      26.027  20.327  21.236  1.00  0.00     0.072 C 
ENDROOT
BRANCH   1   7
HETATM    7  C5  UNL     1      25.255  20.342  18.825  1.00  0.00     0.201 C 
BRANCH   7   8
HETATM    8  O2  UNL     1      23.894  20.606  18.831  1.00  0.00    -0.375 OA
BRANCH   8   9
HETATM    9  C4  UNL     1      23.400  20.751  17.528  1.00  0.00     0.228 C 
HETATM   10  C3  UNL     1      23.697  19.430  16.758  1.00  0.00     0.234 C 
HETATM   11  C18 UNL     1      22.432  18.696  17.008  1.00  0.00     0.224 C 
HETATM   12  C17 UNL     1      21.305  19.689  16.902  1.00  0.00     0.251 C 
HETATM   13  C16 UNL     1      21.941  20.959  17.498  1.00  0.00     0.310 C 
BRANCH  10  14
HETATM   14  N1  UNL     1      24.080  19.613  15.445  1.00  0.00    -0.404 NA
HETATM   15  C2  UNL     1      24.462  19.794  14.136  1.00  0.00     0.283 C 
HETATM   16  C1  UNL     1      24.484  21.232  13.552  1.00  0.00     0.134 C 
HETATM   17  O1  UNL     1      24.798  18.938  13.350  1.00  0.00    -0.258 OA
ENDBRANCH  10  14
BRANCH  11  18
HETATM   18  O10 UNL     1      22.416  18.235  18.325  1.00  0.00    -0.387 OA
ATOM     19  H10 UNL     1      21.881  18.815  18.855  1.00  0.00     0.210 HD
ENDBRANCH  11  18
BRANCH  12  20
HETATM   20  O8  UNL     1      20.896  19.908  15.610  1.00  0.00    -0.360 OA
ATOM     21  H8  UNL     1      20.070  19.474  15.438  1.00  0.00     0.213 HD
ENDBRANCH  12  20
BRANCH  12  22
HETATM   22  O9  UNL     1      20.260  19.243  17.717  1.00  0.00    -0.360 OA
ATOM     23  H9  UNL     1      19.436  19.277  17.245  1.00  0.00     0.213 HD
ENDBRANCH  12  22
BRANCH  13  24
HETATM   24  N8  UNL     1      21.588  22.102  16.633  1.00  0.00    -0.039 N 
ATOM     25  H83 UNL     1      21.736  21.887  15.647  1.00  0.00     0.278 HD
ATOM     26  H82 UNL     1      20.580  22.257  16.608  1.00  0.00     0.278 HD
ATOM     27  H81 UNL     1      22.092  22.943  16.915  1.00  0.00     0.278 HD
ENDBRANCH  13  24
BRANCH  13  28
HETATM   28  O7  UNL     1      21.333  21.183  18.711  1.00  0.00    -0.359 OA
ATOM     29  H7  UNL     1      21.122  22.086  18.914  1.00  0.00     0.212 HD
ENDBRANCH  13  28
ENDBRANCH   8   9
ENDBRANCH   7   8
ENDBRANCH   1   7
BRANCH   6  30
HETATM   30  C15 UNL     1      26.801  21.573  21.108  1.00  0.00     0.174 C 
BRANCH  30  31
HETATM   31  O6  UNL     1      27.588  21.783  22.254  1.00  0.00    -0.400 OA
ATOM     32  H6  UNL     1      27.356  22.605  22.669  1.00  0.00     0.209 HD
ENDBRANCH  30  31
ENDBRANCH   6  30
BRANCH   3  33
HETATM   33  N2  UNL     1      24.481  16.565  21.452  1.00  0.00    -0.199 N 
HETATM   34  N3  UNL     1      24.502  15.831  22.531  1.00  0.00    -0.264 N 
HETATM   35  C8  UNL     1      23.458  14.963  22.486  1.00  0.00     0.154 A 
ATOM     36  H3  UNL     1      25.188  15.898  23.283  1.00  0.00     0.190 HD
HETATM   37  N4  UNL     1      22.989  14.011  23.275  1.00  0.00    -0.335 N 
HETATM   38  C11 UNL     1      22.805  15.228  21.307  1.00  0.00     0.139 A 
HETATM   39  C9  UNL     1      21.905  13.254  23.032  1.00  0.00     0.183 A 
ATOM     40  H4  UNL     1      23.495  13.836  24.144  1.00  0.00     0.168 HD
HETATM   41  N5  UNL     1      21.264  13.517  21.876  1.00  0.00    -0.337 N 
HETATM   42  C10 UNL     1      21.672  14.461  21.023  1.00  0.00     0.132 A 
ATOM     43  H5  UNL     1      20.434  12.972  21.643  1.00  0.00     0.168 HD
HETATM   44  N7  UNL     1      23.461  16.210  20.704  1.00  0.00    -0.275 N 
ATOM     45  H7  UNL     1      23.212  16.624  19.805  1.00  0.00     0.189 HD
BRANCH  42  46
HETATM   46  N6  UNL     1      21.057  14.714  19.920  1.00  0.00    -0.383 N 
ATOM     47  H62 UNL     1      20.199  14.193  19.739  1.00  0.00     0.157 HD
ATOM     48  H61 UNL     1      21.397  15.397  19.245  1.00  0.00     0.157 HD
ENDBRANCH  42  46
ENDBRANCH   3  33
BRANCH   5  49
HETATM   49  O5  UNL     1      27.999  19.025  21.419  1.00  0.00    -0.392 OA
ATOM     50  H5  UNL     1      27.930  19.335  20.524  1.00  0.00     0.210 HD
ENDBRANCH   5  49
BRANCH   4  51
HETATM   51  O4  UNL     1      25.055  18.500  23.323  1.00  0.00    -0.388 OA
ATOM     52  H4  UNL     1      25.330  19.205  23.897  1.00  0.00     0.210 HD
ENDBRANCH   4  51
TORSDOF 15
ENDMDL
MODEL 2
REMARK VINA RESULT: -8.366967084      1.123      1.354
REMARK  15 active torsions:
REMARK  status: ('A' for Active; 'I' for Inactive)
REMARK       I    between atoms: C2_2  and  N1_4 
REMARK    1  A    between atoms: N1_4  and  C3_5 
REMARK    2  A    between atoms: C4_6  and  O2_7 
REMARK    3  A    between atoms: O2_7  and  C5_8 
REMARK    4  A    between atoms: C5_8  and  C6_9 
REMARK    5  A    between atoms: C7_11  and  N2_12 
REMARK    6  A    between atoms: C10_21  and  N6_22 
REMARK    7  A    between atoms: C12_28  and  O4_29 
REMARK    8  A    between atoms: C13_31  and  O5_32 
REMARK    9  A    between atoms: C14_34  and  C15_35 
REMARK   10  A    between atoms: C15_35  and  O6_36 
REMARK   11  A    between atoms: C16_38  and  N8_39 
REMARK   12  A    between atoms: C16_38  and  O7_43 
REMARK   13  A    between atoms: C17_45  and  O8_46 
REMARK   14  A    between atoms: C17_45  and  O9_48 
REMARK   15  A    between atoms: C18_50  and  O10_51 
ROOT
HETATM    1  C6  UNL     1      25.315  18.310  20.026  1.00  0.00     0.157 C 
HETATM    2  O3  UNL     1      24.450  17.510  20.845  1.00  0.00    -0.353 OA
HETATM    3  C7  UNL     1      25.307  16.893  21.774  1.00  0.00     0.294 C 
HETATM    4  C12 UNL     1      25.949  17.900  22.676  1.00  0.00     0.199 C 
HETATM    5  C13 UNL     1      26.642  18.991  21.936  1.00  0.00     0.160 C 
HETATM    6  C14 UNL     1      25.645  19.494  20.859  1.00  0.00     0.072 C 
ENDROOT
BRANCH   1   7
HETATM    7  C5  UNL     1      24.669  18.570  18.714  1.00  0.00     0.201 C 
BRANCH   7   8
HETATM    8  O2  UNL     1      23.489  19.292  18.801  1.00  0.00    -0.375 OA
BRANCH   8   9
HETATM    9  C4  UNL     1      23.191  19.928  17.590  1.00  0.00     0.228 C 
HETATM   10  C3  UNL     1      23.271  18.860  16.460  1.00  0.00     0.234 C 
HETATM   11  C18 UNL     1      21.854  18.423  16.418  1.00  0.00     0.224 C 
HETATM   12  C17 UNL     1      20.997  19.650  16.581  1.00  0.00     0.251 C 
HETATM   13  C16 UNL     1      21.829  20.491  17.567  1.00  0.00     0.310 C 
BRANCH  10  14
HETATM   14  N1  UNL     1      23.833  19.316  15.285  1.00  0.00    -0.404 NA
HETATM   15  C2  UNL     1      24.393  19.771  14.114  1.00  0.00     0.283 C 
HETATM   16  C1  UNL     1      24.232  21.268  13.736  1.00  0.00     0.134 C 
HETATM   17  O1  UNL     1      25.021  19.124  13.307  1.00  0.00    -0.258 OA
ENDBRANCH  10  14
BRANCH  11  18
HETATM   18  O10 UNL     1      21.585  17.616  17.525  1.00  0.00    -0.387 OA
ATOM     19  H10 UNL     1      20.855  17.982  18.011  1.00  0.00     0.210 HD
ENDBRANCH  11  18
BRANCH  12  20
HETATM   20  O8  UNL     1      20.799  20.331  15.406  1.00  0.00    -0.360 OA
ATOM     21  H8  UNL     1      20.168  19.881  14.857  1.00  0.00     0.213 HD
ENDBRANCH  12  20
BRANCH  12  22
HETATM   22  O9  UNL     1      19.793  19.259  17.175  1.00  0.00    -0.360 OA
ATOM     23  H9  UNL     1      19.122  19.913  17.018  1.00  0.00     0.213 HD
ENDBRANCH  12  22
BRANCH  13  24
HETATM   24  N8  UNL     1      21.842  21.887  17.087  1.00  0.00    -0.039 N 
ATOM     25  H83 UNL     1      22.192  22.527  17.799  1.00  0.00     0.278 HD
ATOM     26  H82 UNL     1      22.562  22.034  16.379  1.00  0.00     0.278 HD
ATOM     27  H81 UNL     1      20.920  22.166  16.750  1.00  0.00     0.278 HD
ENDBRANCH  13  24
BRANCH  13  28
HETATM   28  O7  UNL     1      21.153  20.495  18.765  1.00  0.00    -0.359 OA
ATOM     29  H7  UNL     1      21.688  20.476  19.549  1.00  0.00     0.212 HD
ENDBRANCH  13  28
ENDBRANCH   8   9
ENDBRANCH   7   8
ENDBRANCH   1   7
BRANCH   6  30
HETATM   30  C15 UNL     1      26.270  20.654  20.202  1.00  0.00     0.174 C 
BRANCH  30  31
HETATM   31  O6  UNL     1      27.133  21.316  21.091  1.00  0.00    -0.400 OA
ATOM     32  H6  UNL     1      27.069  22.257  20.977  1.00  0.00     0.209 HD
ENDBRANCH  30  31
ENDBRANCH   6  30
BRANCH   3  33
HETATM   33  N2  UNL     1      24.528  15.980  22.591  1.00  0.00    -0.199 N 
HETATM   34  N3  UNL     1      24.688  15.734  23.863  1.00  0.00    -0.264 N 
HETATM   35  C8  UNL     1      23.754  14.828  24.251  1.00  0.00     0.154 A 
ATOM     36  H3  UNL     1      25.398  16.152  24.464  1.00  0.00     0.190 HD
HETATM   37  N4  UNL     1      23.440  14.225  25.385  1.00  0.00    -0.335 N 
HETATM   38  C11 UNL     1      23.016  14.549  23.126  1.00  0.00     0.139 A 
HETATM   39  C9  UNL     1      22.442  13.339  25.552  1.00  0.00     0.183 A 
ATOM     40  H4  UNL     1      24.005  14.451  26.204  1.00  0.00     0.168 HD
HETATM   41  N5  UNL     1      21.719  13.068  24.448  1.00  0.00    -0.337 N 
HETATM   42  C10 UNL     1      21.969  13.634  23.264  1.00  0.00     0.132 A 
ATOM     43  H5  UNL     1      20.949  12.403  24.520  1.00  0.00     0.168 HD
HETATM   44  N7  UNL     1      23.520  15.270  22.134  1.00  0.00    -0.275 N 
ATOM     45  H7  UNL     1      23.181  15.273  21.172  1.00  0.00     0.189 HD
BRANCH  42  46
HETATM   46  N6  UNL     1      21.276  13.376  22.211  1.00  0.00    -0.383 N 
ATOM     47  H62 UNL     1      20.743  14.147  21.807  1.00  0.00     0.157 HD
ATOM     48  H61 UNL     1      21.245  12.451  21.785  1.00  0.00     0.157 HD
ENDBRANCH  42  46
ENDBRANCH   3  33
BRANCH   5  49
HETATM   49  O5  UNL     1      27.752  18.483  21.260  1.00  0.00    -0.392 OA
ATOM     50  H5  UNL     1      27.485  18.115  20.426  1.00  0.00     0.210 HD
ENDBRANCH   5  49
BRANCH   4  51
HETATM   51  O4  UNL     1      25.055  18.501  23.562  1.00  0.00    -0.388 OA
ATOM     52  H4  UNL     1      25.481  18.934  24.292  1.00  0.00     0.210 HD
ENDBRANCH   4  51
TORSDOF 15
ENDMDL
MODEL 3
REMARK VINA RESULT: -8.316257285      1.729      2.234
REMARK  15 active torsions:
REMARK  status: ('A' for Active; 'I' for Inactive)
REMARK       I    between atoms: C2_2  and  N1_4 
REMARK    1  A    between atoms: N1_4  and  C3_5 
REMARK    2  A    between atoms: C4_6  and  O2_7 
REMARK    3  A    between atoms: O2_7  and  C5_8 
REMARK    4  A    between atoms: C5_8  and  C6_9 
REMARK    5  A    between atoms: C7_11  and  N2_12 
REMARK    6  A    between atoms: C10_21  and  N6_22 
REMARK    7  A    between atoms: C12_28  and  O4_29 
REMARK    8  A    between atoms: C13_31  and  O5_32 
REMARK    9  A    between atoms: C14_34  and  C15_35 
REMARK   10  A    between atoms: C15_35  and  O6_36 
REMARK   11  A    between atoms: C16_38  and  N8_39 
REMARK   12  A    between atoms: C16_38  and  O7_43 
REMARK   13  A    between atoms: C17_45  and  O8_46 
REMARK   14  A    between atoms: C17_45  and  O9_48 
REMARK   15  A    between atoms: C18_50  and  O10_51 
ROOT
HETATM    1  C6  UNL     1      25.473  17.742  20.479  1.00  0.00     0.157 C 
HETATM    2  O3  UNL     1      24.619  17.052  21.403  1.00  0.00    -0.353 OA
HETATM    3  C7  UNL     1      25.484  16.591  22.412  1.00  0.00     0.294 C 
HETATM    4  C12 UNL     1      26.105  17.729  23.160  1.00  0.00     0.199 C 
HETATM    5  C13 UNL     1      26.781  18.715  22.272  1.00  0.00     0.160 C 
HETATM    6  C14 UNL     1      25.779  19.039  21.133  1.00  0.00     0.072 C 
ENDROOT
BRANCH   1   7
HETATM    7  C5  UNL     1      24.826  17.799  19.142  1.00  0.00     0.201 C 
BRANCH   7   8
HETATM    8  O2  UNL     1      23.636  18.511  19.123  1.00  0.00    -0.375 OA
BRANCH   8   9
HETATM    9  C4  UNL     1      23.590  19.394  18.037  1.00  0.00     0.228 C 
HETATM   10  C3  UNL     1      22.540  18.848  17.025  1.00  0.00     0.234 C 
HETATM   11  C18 UNL     1      21.333  19.575  17.489  1.00  0.00     0.224 C 
HETATM   12  C17 UNL     1      21.756  20.977  17.840  1.00  0.00     0.251 C 
HETATM   13  C16 UNL     1      23.160  20.748  18.430  1.00  0.00     0.310 C 
BRANCH  10  14
HETATM   14  N1  UNL     1      22.901  18.991  15.700  1.00  0.00    -0.404 NA
HETATM   15  C2  UNL     1      23.260  19.133  14.380  1.00  0.00     0.283 C 
HETATM   16  C1  UNL     1      22.400  20.040  13.460  1.00  0.00     0.134 C 
HETATM   17  O1  UNL     1      24.203  18.617  13.823  1.00  0.00    -0.258 OA
ENDBRANCH  10  14
BRANCH  11  18
HETATM   18  O10 UNL     1      20.876  19.003  18.677  1.00  0.00    -0.387 OA
ATOM     19  H10 UNL     1      20.043  19.394  18.914  1.00  0.00     0.210 HD
ENDBRANCH  11  18
BRANCH  12  20
HETATM   20  O8  UNL     1      21.814  21.813  16.752  1.00  0.00    -0.360 OA
ATOM     21  H8  UNL     1      21.005  22.302  16.659  1.00  0.00     0.213 HD
ENDBRANCH  12  20
BRANCH  12  22
HETATM   22  O9  UNL     1      20.889  21.455  18.827  1.00  0.00    -0.360 OA
ATOM     23  H9  UNL     1      20.081  21.764  18.434  1.00  0.00     0.213 HD
ENDBRANCH  12  22
BRANCH  13  24
HETATM   24  N8  UNL     1      24.067  21.772  17.874  1.00  0.00    -0.039 N 
ATOM     25  H83 UNL     1      24.255  21.611  16.885  1.00  0.00     0.278 HD
ATOM     26  H82 UNL     1      23.608  22.680  17.798  1.00  0.00     0.278 HD
ATOM     27  H81 UNL     1      24.929  21.831  18.416  1.00  0.00     0.278 HD
ENDBRANCH  13  24
BRANCH  13  28
HETATM   28  O7  UNL     1      23.075  20.992  19.780  1.00  0.00    -0.359 OA
ATOM     29  H7  UNL     1      23.241  21.885  20.057  1.00  0.00     0.212 HD
ENDBRANCH  13  28
ENDBRANCH   8   9
ENDBRANCH   7   8
ENDBRANCH   1   7
BRANCH   6  30
HETATM   30  C15 UNL     1      26.385  20.104  20.316  1.00  0.00     0.174 C 
BRANCH  30  31
HETATM   31  O6  UNL     1      25.785  21.342  20.599  1.00  0.00    -0.400 OA
ATOM     32  H6  UNL     1      26.439  21.974  20.872  1.00  0.00     0.209 HD
ENDBRANCH  30  31
ENDBRANCH   6  30
BRANCH   3  33
HETATM   33  N2  UNL     1      24.718  15.792  23.351  1.00  0.00    -0.199 N 
HETATM   34  N3  UNL     1      24.935  15.664  24.632  1.00  0.00    -0.264 N 
HETATM   35  C8  UNL     1      23.993  14.835  25.152  1.00  0.00     0.154 A 
ATOM     36  H3  UNL     1      25.688  16.111  25.155  1.00  0.00     0.190 HD
HETATM   37  N4  UNL     1      23.719  14.357  26.353  1.00  0.00    -0.335 N 
HETATM   38  C11 UNL     1      23.190  14.476  24.096  1.00  0.00     0.139 A 
HETATM   39  C9  UNL     1      22.702  13.529  26.654  1.00  0.00     0.183 A 
ATOM     40  H4  UNL     1      24.331  14.640  27.118  1.00  0.00     0.168 HD
HETATM   41  N5  UNL     1      21.915  13.179  25.618  1.00  0.00    -0.337 N 
HETATM   42  C10 UNL     1      22.123  13.618  24.373  1.00  0.00     0.132 A 
ATOM     43  H5  UNL     1      21.128  12.554  25.792  1.00  0.00     0.168 HD
HETATM   44  N7  UNL     1      23.667  15.078  23.015  1.00  0.00    -0.275 N 
ATOM     45  H7  UNL     1      23.279  15.001  22.074  1.00  0.00     0.189 HD
BRANCH  42  46
HETATM   46  N6  UNL     1      21.368  13.286  23.385  1.00  0.00    -0.383 N 
ATOM     47  H62 UNL     1      21.804  12.762  22.626  1.00  0.00     0.157 HD
ATOM     48  H61 UNL     1      20.379  13.528  23.342  1.00  0.00     0.157 HD
ENDBRANCH  42  46
ENDBRANCH   3  33
BRANCH   5  49
HETATM   49  O5  UNL     1      27.902  18.135  21.677  1.00  0.00    -0.392 OA
ATOM     50  H5  UNL     1      28.183  18.656  20.934  1.00  0.00     0.210 HD
ENDBRANCH   5  49
BRANCH   4  51
HETATM   51  O4  UNL     1      25.198  18.434  23.950  1.00  0.00    -0.388 OA
ATOM     52  H4  UNL     1      25.573  18.754  24.762  1.00  0.00     0.210 HD
ENDBRANCH   4  51
TORSDOF 15
ENDMDL
MODEL 4
REMARK VINA RESULT: -8.181258594      4.137      9.511
REMARK  15 active torsions:
REMARK  status: ('A' for Active; 'I' for Inactive)
REMARK       I    between atoms: C2_2  and  N1_4 
REMARK    1  A    between atoms: N1_4  and  C3_5 
REMARK    2  A    between atoms: C4_6  and  O2_7 
REMARK    3  A    between atoms: O2_7  and  C5_8 
REMARK    4  A    between atoms: C5_8  and  C6_9 
REMARK    5  A    between atoms: C7_11  and  N2_12 
REMARK    6  A    between atoms: C10_21  and  N6_22 
REMARK    7  A    between atoms: C12_28  and  O4_29 
REMARK    8  A    between atoms: C13_31  and  O5_32 
REMARK    9  A    between atoms: C14_34  and  C15_35 
REMARK   10  A    between atoms: C15_35  and  O6_36 
REMARK   11  A    between atoms: C16_38  and  N8_39 
REMARK   12  A    between atoms: C16_38  and  O7_43 
REMARK   13  A    between atoms: C17_45  and  O8_46 
REMARK   14  A    between atoms: C17_45  and  O9_48 
REMARK   15  A    between atoms: C18_50  and  O10_51 
ROOT
HETATM    1  C6  UNL     1      23.366  14.483  23.483  1.00  0.00     0.157 C 
HETATM    2  O3  UNL     1      23.706  15.793  23.005  1.00  0.00    -0.353 OA
HETATM    3  C7  UNL     1      23.868  15.636  21.616  1.00  0.00     0.294 C 
HETATM    4  C12 UNL     1      22.579  15.253  20.958  1.00  0.00     0.199 C 
HETATM    5  C13 UNL     1      21.940  14.056  21.571  1.00  0.00     0.160 C 
HETATM    6  C14 UNL     1      21.944  14.293  23.104  1.00  0.00     0.072 C 
ENDROOT
BRANCH   1   7
HETATM    7  C5  UNL     1      23.699  14.372  24.927  1.00  0.00     0.201 C 
BRANCH   7   8
HETATM    8  O2  UNL     1      24.838  15.071  25.297  1.00  0.00    -0.375 OA
BRANCH   8   9
HETATM    9  C4  UNL     1      24.530  16.115  26.177  1.00  0.00     0.228 C 
HETATM   10  C3  UNL     1      24.584  15.547  27.626  1.00  0.00     0.234 C 
HETATM   11  C18 UNL     1      25.992  15.857  27.972  1.00  0.00     0.224 C 
HETATM   12  C17 UNL     1      26.305  17.221  27.416  1.00  0.00     0.251 C 
HETATM   13  C16 UNL     1      25.501  17.222  26.102  1.00  0.00     0.310 C 
BRANCH  10  14
HETATM   14  N1  UNL     1      23.599  16.033  28.463  1.00  0.00    -0.404 NA
HETATM   15  C2  UNL     1      22.618  16.516  29.297  1.00  0.00     0.283 C 
HETATM   16  C1  UNL     1      22.888  17.818  30.098  1.00  0.00     0.134 C 
HETATM   17  O1  UNL     1      21.526  16.034  29.493  1.00  0.00    -0.258 OA
ENDBRANCH  10  14
BRANCH  11  18
HETATM   18  O10 UNL     1      26.839  14.968  27.309  1.00  0.00    -0.387 OA
ATOM     19  H10 UNL     1      27.742  15.213  27.471  1.00  0.00     0.210 HD
ENDBRANCH  11  18
BRANCH  12  20
HETATM   20  O8  UNL     1      25.902  18.245  28.235  1.00  0.00    -0.360 OA
ATOM     21  H8  UNL     1      26.010  18.009  29.149  1.00  0.00     0.213 HD
ENDBRANCH  12  20
BRANCH  12  22
HETATM   22  O9  UNL     1      27.676  17.271  27.144  1.00  0.00    -0.360 OA
ATOM     23  H9  UNL     1      27.881  16.735  26.387  1.00  0.00     0.213 HD
ENDBRANCH  12  22
BRANCH  13  24
HETATM   24  N8  UNL     1      24.813  18.522  25.984  1.00  0.00    -0.039 N 
ATOM     25  H83 UNL     1      24.415  18.820  26.874  1.00  0.00     0.278 HD
ATOM     26  H82 UNL     1      25.474  19.286  25.845  1.00  0.00     0.278 HD
ATOM     27  H81 UNL     1      24.108  18.497  25.246  1.00  0.00     0.278 HD
ENDBRANCH  13  24
BRANCH  13  28
HETATM   28  O7  UNL     1      26.411  17.164  25.072  1.00  0.00    -0.359 OA
ATOM     29  H7  UNL     1      26.314  17.818  24.390  1.00  0.00     0.212 HD
ENDBRANCH  13  28
ENDBRANCH   8   9
ENDBRANCH   7   8
ENDBRANCH   1   7
BRANCH   6  30
HETATM   30  C15 UNL     1      21.206  13.176  23.715  1.00  0.00     0.174 C 
BRANCH  30  31
HETATM   31  O6  UNL     1      20.287  12.635  22.799  1.00  0.00    -0.400 OA
ATOM     32  H6  UNL     1      20.528  11.744  22.575  1.00  0.00     0.209 HD
ENDBRANCH  30  31
ENDBRANCH   6  30
BRANCH   3  33
HETATM   33  N2  UNL     1      24.310  16.898  21.053  1.00  0.00    -0.199 N 
HETATM   34  N3  UNL     1      25.004  17.826  21.655  1.00  0.00    -0.264 N 
HETATM   35  C8  UNL     1      25.216  18.844  20.781  1.00  0.00     0.154 A 
ATOM     36  H3  UNL     1      25.331  17.792  22.620  1.00  0.00     0.190 HD
HETATM   37  N4  UNL     1      25.836  20.011  20.827  1.00  0.00    -0.335 N 
HETATM   38  C11 UNL     1      24.606  18.464  19.610  1.00  0.00     0.139 A 
HETATM   39  C9  UNL     1      25.932  20.889  19.813  1.00  0.00     0.183 A 
ATOM     40  H4  UNL     1      26.280  20.268  21.710  1.00  0.00     0.168 HD
HETATM   41  N5  UNL     1      25.335  20.513  18.665  1.00  0.00    -0.337 N 
HETATM   42  C10 UNL     1      24.688  19.351  18.535  1.00  0.00     0.132 A 
ATOM     43  H5  UNL     1      25.379  21.142  17.863  1.00  0.00     0.168 HD
HETATM   44  N7  UNL     1      24.063  17.272  19.817  1.00  0.00    -0.275 N 
ATOM     45  H7  UNL     1      23.539  16.732  19.128  1.00  0.00     0.189 HD
BRANCH  42  46
HETATM   46  N6  UNL     1      24.121  18.992  17.436  1.00  0.00    -0.383 N 
ATOM     47  H62 UNL     1      24.026  19.703  16.711  1.00  0.00     0.157 HD
ATOM     48  H61 UNL     1      23.773  18.047  17.280  1.00  0.00     0.157 HD
ENDBRANCH  42  46
ENDBRANCH   3  33
BRANCH   5  49
HETATM   49  O5  UNL     1      22.716  12.922  21.332  1.00  0.00    -0.392 OA
ATOM     50  H5  UNL     1      23.433  12.880  21.954  1.00  0.00     0.210 HD
ENDBRANCH   5  49
BRANCH   4  51
HETATM   51  O4  UNL     1      21.631  16.277  20.957  1.00  0.00    -0.388 OA
ATOM     52  H4  UNL     1      21.927  17.065  20.518  1.00  0.00     0.210 HD
ENDBRANCH   4  51
TORSDOF 15
ENDMDL
MODEL 5
REMARK VINA RESULT: -8.107427826      3.907      9.275
REMARK  15 active torsions:
REMARK  status: ('A' for Active; 'I' for Inactive)
REMARK       I    between atoms: C2_2  and  N1_4 
REMARK    1  A    between atoms: N1_4  and  C3_5 
REMARK    2  A    between atoms: C4_6  and  O2_7 
REMARK    3  A    between atoms: O2_7  and  C5_8 
REMARK    4  A    between atoms: C5_8  and  C6_9 
REMARK    5  A    between atoms: C7_11  and  N2_12 
REMARK    6  A    between atoms: C10_21  and  N6_22 
REMARK    7  A    between atoms: C12_28  and  O4_29 
REMARK    8  A    between atoms: C13_31  and  O5_32 
REMARK    9  A    between atoms: C14_34  and  C15_35 
REMARK   10  A    between atoms: C15_35  and  O6_36 
REMARK   11  A    between atoms: C16_38  and  N8_39 
REMARK   12  A    between atoms: C16_38  and  O7_43 
REMARK   13  A    between atoms: C17_45  and  O8_46 
REMARK   14  A    between atoms: C17_45  and  O9_48 
REMARK   15  A    between atoms: C18_50  and  O10_51 
ROOT
HETATM    1  C6  UNL     1      23.493  14.634  23.115  1.00  0.00     0.157 C 
HETATM    2  O3  UNL     1      23.672  15.879  22.423  1.00  0.00    -0.353 OA
HETATM    3  C7  UNL     1      23.610  15.540  21.059  1.00  0.00     0.294 C 
HETATM    4  C12 UNL     1      22.253  15.026  20.687  1.00  0.00     0.199 C 
HETATM    5  C13 UNL     1      21.796  13.901  21.549  1.00  0.00     0.160 C 
HETATM    6  C14 UNL     1      22.041  14.344  23.015  1.00  0.00     0.072 C 
ENDROOT
BRANCH   1   7
HETATM    7  C5  UNL     1      24.067  14.732  24.483  1.00  0.00     0.201 C 
BRANCH   7   8
HETATM    8  O2  UNL     1      24.975  15.768  24.639  1.00  0.00    -0.375 OA
BRANCH   8   9
HETATM    9  C4  UNL     1      24.552  16.670  25.623  1.00  0.00     0.228 C 
HETATM   10  C3  UNL     1      24.502  15.904  26.978  1.00  0.00     0.234 C 
HETATM   11  C18 UNL     1      25.862  16.198  27.491  1.00  0.00     0.224 C 
HETATM   12  C17 UNL     1      26.170  17.634  27.159  1.00  0.00     0.251 C 
HETATM   13  C16 UNL     1      25.483  17.800  25.791  1.00  0.00     0.310 C 
BRANCH  10  14
HETATM   14  N1  UNL     1      23.430  16.241  27.782  1.00  0.00    -0.404 NA
HETATM   15  C2  UNL     1      22.364  16.577  28.582  1.00  0.00     0.283 C 
HETATM   16  C1  UNL     1      21.960  18.070  28.710  1.00  0.00     0.134 C 
HETATM   17  O1  UNL     1      21.670  15.822  29.225  1.00  0.00    -0.258 OA
ENDBRANCH  10  14
BRANCH  11  18
HETATM   18  O10 UNL     1      26.796  15.433  26.791  1.00  0.00    -0.387 OA
ATOM     19  H10 UNL     1      26.448  15.219  25.933  1.00  0.00     0.210 HD
ENDBRANCH  11  18
BRANCH  12  20
HETATM   20  O8  UNL     1      25.659  18.522  28.073  1.00  0.00    -0.360 OA
ATOM     21  H8  UNL     1      26.332  18.811  28.677  1.00  0.00     0.213 HD
ENDBRANCH  12  20
BRANCH  12  22
HETATM   22  O9  UNL     1      27.557  17.757  27.023  1.00  0.00    -0.360 OA
ATOM     23  H9  UNL     1      27.766  18.323  26.290  1.00  0.00     0.213 HD
ENDBRANCH  12  22
BRANCH  13  24
HETATM   24  N8  UNL     1      24.759  19.086  25.792  1.00  0.00    -0.039 N 
ATOM     25  H83 UNL     1      24.992  19.650  24.975  1.00  0.00     0.278 HD
ATOM     26  H82 UNL     1      23.763  18.957  25.612  1.00  0.00     0.278 HD
ATOM     27  H81 UNL     1      24.921  19.597  26.660  1.00  0.00     0.278 HD
ENDBRANCH  13  24
BRANCH  13  28
HETATM   28  O7  UNL     1      26.480  17.912  24.850  1.00  0.00    -0.359 OA
ATOM     29  H7  UNL     1      27.212  18.473  25.078  1.00  0.00     0.212 HD
ENDBRANCH  13  28
ENDBRANCH   8   9
ENDBRANCH   7   8
ENDBRANCH   1   7
BRANCH   6  30
HETATM   30  C15 UNL     1      21.481  13.294  23.881  1.00  0.00     0.174 C 
BRANCH  30  31
HETATM   31  O6  UNL     1      20.622  12.458  23.147  1.00  0.00    -0.400 OA
ATOM     32  H6  UNL     1      20.449  11.657  23.627  1.00  0.00     0.209 HD
ENDBRANCH  30  31
ENDBRANCH   6  30
BRANCH   3  33
HETATM   33  N2  UNL     1      23.878  16.730  20.271  1.00  0.00    -0.199 N 
HETATM   34  N3  UNL     1      23.338  17.053  19.128  1.00  0.00    -0.264 N 
HETATM   35  C8  UNL     1      23.851  18.244  18.726  1.00  0.00     0.154 A 
ATOM     36  H3  UNL     1      22.645  16.502  18.622  1.00  0.00     0.190 HD
HETATM   37  N4  UNL     1      23.682  19.038  17.683  1.00  0.00    -0.335 N 
HETATM   38  C11 UNL     1      24.736  18.618  19.708  1.00  0.00     0.139 A 
HETATM   39  C9  UNL     1      24.309  20.211  17.481  1.00  0.00     0.183 A 
ATOM     40  H4  UNL     1      23.019  18.735  16.969  1.00  0.00     0.168 HD
HETATM   41  N5  UNL     1      25.175  20.577  18.446  1.00  0.00    -0.337 N 
HETATM   42  C10 UNL     1      25.403  19.833  19.531  1.00  0.00     0.132 A 
ATOM     43  H5  UNL     1      25.676  21.460  18.343  1.00  0.00     0.168 HD
HETATM   44  N7  UNL     1      24.726  17.668  20.632  1.00  0.00    -0.275 N 
ATOM     45  H7  UNL     1      25.285  17.665  21.486  1.00  0.00     0.189 HD
BRANCH  42  46
HETATM   46  N6  UNL     1      26.229  20.186  20.454  1.00  0.00    -0.383 N 
ATOM     47  H62 UNL     1      26.249  21.174  20.704  1.00  0.00     0.157 HD
ATOM     48  H61 UNL     1      26.844  19.523  20.924  1.00  0.00     0.157 HD
ENDBRANCH  42  46
ENDBRANCH   3  33
BRANCH   5  49
HETATM   49  O5  UNL     1      22.587  12.774  21.326  1.00  0.00    -0.392 OA
ATOM     50  H5  UNL     1      22.067  11.985  21.428  1.00  0.00     0.210 HD
ENDBRANCH   5  49
BRANCH   4  51
HETATM   51  O4  UNL     1      21.261  16.006  20.719  1.00  0.00    -0.388 OA
ATOM     52  H4  UNL     1      20.469  15.726  21.162  1.00  0.00     0.210 HD
ENDBRANCH   4  51
TORSDOF 15
ENDMDL
