MODEL 1
REMARK VINA RESULT: -10.115914226      0.000      0.000
REMARK  10 active torsions:
REMARK  status: ('A' for Active; 'I' for Inactive)
REMARK    1  A    between atoms: C2_2  and  C3_3 
REMARK    2  A    between atoms: C2_2  and  C13_13 
REMARK    3  A    between atoms: C3_3  and  C4_4 
REMARK    4  A    between atoms: C4_4  and  C5_5 
REMARK    5  A    between atoms: C6_6  and  C7_7 
REMARK    6  A    between atoms: C13_13  and  C14_14 
REMARK    7  A    between atoms: C14_14  and  C15_15 
REMARK    8  A    between atoms: C15_15  and  N2_25 
REMARK    9  A    between atoms: N1_16  and  C16_18 
REMARK   10  A    between atoms: N2_25  and  C23_27 
ROOT
HETATM    1  C15 UNL     1      -3.689   8.645  19.436  1.00  0.00     0.082 C 
HETATM    2  N1  UNL     1      -3.577   7.391  19.732  1.00  0.00    -0.346 N 
ATOM      3  H1  UNL     1      -4.304   6.972  20.313  1.00  0.00     0.167 HD
ENDROOT
BRANCH   1   4
HETATM    4  C14 UNL     1      -2.726   9.404  18.606  1.00  0.00     0.081 C 
BRANCH   4   5
HETATM    5  C13 UNL     1      -3.313   9.716  17.227  1.00  0.00     0.045 C 
BRANCH   5   6
HETATM    6  C2  UNL     1      -3.566  11.162  17.072  1.00  0.00    -0.060 C 
HETATM    7  C1  UNL     1      -3.717  11.687  15.854  1.00  0.00     0.019 C 
BRANCH   6   8
HETATM    8  C3  UNL     1      -3.664  12.047  18.204  1.00  0.00     0.061 C 
BRANCH   8   9
HETATM    9  C4  UNL     1      -2.947  13.012  18.562  1.00  0.00    -0.128 C 
BRANCH   9  10
HETATM   10  C5  UNL     1      -2.150  14.085  18.959  1.00  0.00     0.056 C 
HETATM   11  C6  UNL     1      -2.254  15.351  18.718  1.00  0.00     0.019 C 
BRANCH  11  12
HETATM   12  C7  UNL     1      -3.209  16.092  17.968  1.00  0.00    -0.036 A 
HETATM   13  C8  UNL     1      -4.013  15.694  16.947  1.00  0.00     0.011 A 
HETATM   14  C9  UNL     1      -4.864  16.539  16.233  1.00  0.00     0.001 A 
HETATM   15  C10 UNL     1      -4.910  17.856  16.565  1.00  0.00     0.000 A 
HETATM   16  C11 UNL     1      -4.125  18.327  17.586  1.00  0.00     0.001 A 
HETATM   17  C12 UNL     1      -3.302  17.473  18.267  1.00  0.00     0.011 A 
ENDBRANCH  11  12
ENDBRANCH   9  10
ENDBRANCH   8   9
ENDBRANCH   6   8
ENDBRANCH   5   6
ENDBRANCH   4   5
ENDBRANCH   1   4
BRANCH   1  18
HETATM   18  N2  UNL     1      -4.844   9.287  19.952  1.00  0.00    -0.346 N 
ATOM     19  H2  UNL     1      -5.686   9.319  19.377  1.00  0.00     0.167 HD
BRANCH  18  20
HETATM   20  C23 UNL     1      -4.874   9.891  21.251  1.00  0.00     0.033 A 
HETATM   21  C24 UNL     1      -5.267   9.180  22.363  1.00  0.00     0.029 A 
HETATM   22  C25 UNL     1      -5.320   9.697  23.638  1.00  0.00     0.002 A 
HETATM   23  C26 UNL     1      -4.950  11.029  23.807  1.00  0.00     0.000 A 
HETATM   24  C27 UNL     1      -4.549  11.793  22.732  1.00  0.00     0.002 A 
HETATM   25  C28 UNL     1      -4.519  11.202  21.469  1.00  0.00     0.029 A 
ENDBRANCH  18  20
ENDBRANCH   1  18
BRANCH   2  26
HETATM   26  C16 UNL     1      -2.505   6.557  19.301  1.00  0.00     0.033 A 
HETATM   27  C17 UNL     1      -2.538   5.851  18.141  1.00  0.00     0.029 A 
HETATM   28  C18 UNL     1      -1.487   5.055  17.763  1.00  0.00     0.003 A 
HETATM   29  C19 UNL     1      -0.371   4.964  18.568  1.00  0.00     0.007 A 
HETATM   30  C20 UNL     1      -0.328   5.677  19.749  1.00  0.00    -0.060 A 
HETATM   31  C21 UNL     1       0.851   5.605  20.642  1.00  0.00     0.048 C 
HETATM   32  C22 UNL     1      -1.397   6.473  20.114  1.00  0.00     0.036 A 
ENDBRANCH   2  26
TORSDOF 10
ENDMDL
MODEL 2
REMARK VINA RESULT: -10.105275204      0.643      1.293
REMARK  10 active torsions:
REMARK  status: ('A' for Active; 'I' for Inactive)
REMARK    1  A    between atoms: C2_2  and  C3_3 
REMARK    2  A    between atoms: C2_2  and  C13_13 
REMARK    3  A    between atoms: C3_3  and  C4_4 
REMARK    4  A    between atoms: C4_4  and  C5_5 
REMARK    5  A    between atoms: C6_6  and  C7_7 
REMARK    6  A    between atoms: C13_13  and  C14_14 
REMARK    7  A    between atoms: C14_14  and  C15_15 
REMARK    8  A    between atoms: C15_15  and  N2_25 
REMARK    9  A    between atoms: N1_16  and  C16_18 
REMARK   10  A    between atoms: N2_25  and  C23_27 
ROOT
HETATM    1  C15 UNL     1      -3.608   8.242  19.099  1.00  0.00     0.082 C 
HETATM    2  N1  UNL     1      -3.161   7.252  19.799  1.00  0.00    -0.346 N 
ATOM      3  H1  UNL     1      -3.670   6.999  20.646  1.00  0.00     0.167 HD
ENDROOT
BRANCH   1   4
HETATM    4  C14 UNL     1      -2.991   8.736  17.847  1.00  0.00     0.081 C 
BRANCH   4   5
HETATM    5  C13 UNL     1      -2.436  10.150  18.027  1.00  0.00     0.045 C 
BRANCH   5   6
HETATM    6  C2  UNL     1      -3.305  11.149  17.374  1.00  0.00    -0.060 C 
HETATM    7  C1  UNL     1      -3.767  10.929  16.141  1.00  0.00     0.019 C 
BRANCH   6   8
HETATM    8  C3  UNL     1      -3.686  12.375  18.028  1.00  0.00     0.061 C 
BRANCH   8   9
HETATM    9  C4  UNL     1      -2.999  13.347  18.424  1.00  0.00    -0.128 C 
BRANCH   9  10
HETATM   10  C5  UNL     1      -2.236  14.428  18.863  1.00  0.00     0.056 C 
HETATM   11  C6  UNL     1      -2.361  15.696  18.647  1.00  0.00     0.019 C 
BRANCH  11  12
HETATM   12  C7  UNL     1      -3.314  16.433  17.890  1.00  0.00    -0.036 A 
HETATM   13  C8  UNL     1      -4.118  16.028  16.870  1.00  0.00     0.011 A 
HETATM   14  C9  UNL     1      -4.967  16.869  16.149  1.00  0.00     0.001 A 
HETATM   15  C10 UNL     1      -5.011  18.188  16.470  1.00  0.00     0.000 A 
HETATM   16  C11 UNL     1      -4.227  18.666  17.488  1.00  0.00     0.001 A 
HETATM   17  C12 UNL     1      -3.405  17.816  18.177  1.00  0.00     0.011 A 
ENDBRANCH  11  12
ENDBRANCH   9  10
ENDBRANCH   8   9
ENDBRANCH   6   8
ENDBRANCH   5   6
ENDBRANCH   4   5
ENDBRANCH   1   4
BRANCH   1  18
HETATM   18  N2  UNL     1      -4.787   8.852  19.599  1.00  0.00    -0.346 N 
ATOM     19  H2  UNL     1      -5.646   8.780  19.054  1.00  0.00     0.167 HD
BRANCH  18  20
HETATM   20  C23 UNL     1      -4.818   9.566  20.841  1.00  0.00     0.033 A 
HETATM   21  C24 UNL     1      -5.224   8.957  22.008  1.00  0.00     0.029 A 
HETATM   22  C25 UNL     1      -5.278   9.582  23.233  1.00  0.00     0.002 A 
HETATM   23  C26 UNL     1      -4.895  10.919  23.290  1.00  0.00     0.000 A 
HETATM   24  C27 UNL     1      -4.480  11.585  22.156  1.00  0.00     0.002 A 
HETATM   25  C28 UNL     1      -4.450  10.887  20.948  1.00  0.00     0.029 A 
ENDBRANCH  18  20
ENDBRANCH   1  18
BRANCH   2  26
HETATM   26  C16 UNL     1      -2.004   6.490  19.466  1.00  0.00     0.033 A 
HETATM   27  C17 UNL     1      -0.760   6.799  19.916  1.00  0.00     0.029 A 
HETATM   28  C18 UNL     1       0.330   6.043  19.569  1.00  0.00     0.003 A 
HETATM   29  C19 UNL     1       0.171   4.945  18.750  1.00  0.00     0.007 A 
HETATM   30  C20 UNL     1      -1.089   4.622  18.287  1.00  0.00    -0.060 A 
HETATM   31  C21 UNL     1      -1.301   3.453  17.404  1.00  0.00     0.048 C 
HETATM   32  C22 UNL     1      -2.175   5.397  18.646  1.00  0.00     0.036 A 
ENDBRANCH   2  26
TORSDOF 10
ENDMDL
MODEL 3
REMARK VINA RESULT: -10.078482149      1.542      8.134
REMARK  10 active torsions:
REMARK  status: ('A' for Active; 'I' for Inactive)
REMARK    1  A    between atoms: C2_2  and  C3_3 
REMARK    2  A    between atoms: C2_2  and  C13_13 
REMARK    3  A    between atoms: C3_3  and  C4_4 
REMARK    4  A    between atoms: C4_4  and  C5_5 
REMARK    5  A    between atoms: C6_6  and  C7_7 
REMARK    6  A    between atoms: C13_13  and  C14_14 
REMARK    7  A    between atoms: C14_14  and  C15_15 
REMARK    8  A    between atoms: C15_15  and  N2_25 
REMARK    9  A    between atoms: N1_16  and  C16_18 
REMARK   10  A    between atoms: N2_25  and  C23_27 
ROOT
HETATM    1  C15 UNL     1      -3.500  11.982  19.224  1.00  0.00     0.082 C 
HETATM    2  N1  UNL     1      -3.316  11.969  20.503  1.00  0.00    -0.346 N 
ATOM      3  H1  UNL     1      -2.568  12.550  20.883  1.00  0.00     0.167 HD
ENDROOT
BRANCH   1   4
HETATM    4  C14 UNL     1      -4.537  11.201  18.513  1.00  0.00     0.081 C 
BRANCH   4   5
HETATM    5  C13 UNL     1      -3.953  10.497  17.286  1.00  0.00     0.045 C 
BRANCH   5   6
HETATM    6  C2  UNL     1      -3.184   9.299  17.677  1.00  0.00    -0.060 C 
HETATM    7  C1  UNL     1      -1.878   9.396  17.932  1.00  0.00     0.019 C 
BRANCH   6   8
HETATM    8  C3  UNL     1      -3.801   8.003  17.802  1.00  0.00     0.061 C 
BRANCH   8   9
HETATM    9  C4  UNL     1      -3.985   7.270  18.803  1.00  0.00    -0.128 C 
BRANCH   9  10
HETATM   10  C5  UNL     1      -4.189   6.455  19.916  1.00  0.00     0.056 C 
HETATM   11  C6  UNL     1      -3.355   5.775  20.632  1.00  0.00     0.019 C 
BRANCH  11  12
HETATM   12  C7  UNL     1      -1.944   5.618  20.540  1.00  0.00    -0.036 A 
HETATM   13  C8  UNL     1      -1.046   6.261  19.746  1.00  0.00     0.011 A 
HETATM   14  C9  UNL     1       0.318   5.966  19.691  1.00  0.00     0.001 A 
HETATM   15  C10 UNL     1       0.804   4.971  20.477  1.00  0.00     0.000 A 
HETATM   16  C11 UNL     1      -0.045   4.280  21.303  1.00  0.00     0.001 A 
HETATM   17  C12 UNL     1      -1.376   4.594  21.334  1.00  0.00     0.011 A 
ENDBRANCH  11  12
ENDBRANCH   9  10
ENDBRANCH   8   9
ENDBRANCH   6   8
ENDBRANCH   5   6
ENDBRANCH   4   5
ENDBRANCH   1   4
BRANCH   1  18
HETATM   18  N2  UNL     1      -2.630  12.837  18.497  1.00  0.00    -0.346 N 
ATOM     19  H2  UNL     1      -1.781  12.442  18.091  1.00  0.00     0.167 HD
BRANCH  18  20
HETATM   20  C23 UNL     1      -2.898  14.232  18.311  1.00  0.00     0.033 A 
HETATM   21  C24 UNL     1      -4.012  14.662  17.626  1.00  0.00     0.029 A 
HETATM   22  C25 UNL     1      -4.330  15.984  17.410  1.00  0.00     0.002 A 
HETATM   23  C26 UNL     1      -3.462  16.945  17.922  1.00  0.00     0.000 A 
HETATM   24  C27 UNL     1      -2.330  16.577  18.617  1.00  0.00     0.002 A 
HETATM   25  C28 UNL     1      -2.072  15.218  18.798  1.00  0.00     0.029 A 
ENDBRANCH  18  20
ENDBRANCH   1  18
BRANCH   2  26
HETATM   26  C16 UNL     1      -4.089  11.197  21.418  1.00  0.00     0.033 A 
HETATM   27  C17 UNL     1      -4.381   9.885  21.216  1.00  0.00     0.029 A 
HETATM   28  C18 UNL     1      -5.132   9.177  22.118  1.00  0.00     0.003 A 
HETATM   29  C19 UNL     1      -5.603   9.798  23.256  1.00  0.00     0.007 A 
HETATM   30  C20 UNL     1      -5.312  11.130  23.471  1.00  0.00    -0.060 A 
HETATM   31  C21 UNL     1      -5.801  11.833  24.678  1.00  0.00     0.048 C 
HETATM   32  C22 UNL     1      -4.554  11.828  22.549  1.00  0.00     0.036 A 
ENDBRANCH   2  26
TORSDOF 10
ENDMDL
MODEL 4
REMARK VINA RESULT: -10.063137264      1.776      7.681
REMARK  10 active torsions:
REMARK  status: ('A' for Active; 'I' for Inactive)
REMARK    1  A    between atoms: C2_2  and  C3_3 
REMARK    2  A    between atoms: C2_2  and  C13_13 
REMARK    3  A    between atoms: C3_3  and  C4_4 
REMARK    4  A    between atoms: C4_4  and  C5_5 
REMARK    5  A    between atoms: C6_6  and  C7_7 
REMARK    6  A    between atoms: C13_13  and  C14_14 
REMARK    7  A    between atoms: C14_14  and  C15_15 
REMARK    8  A    between atoms: C15_15  and  N2_25 
REMARK    9  A    between atoms: N1_16  and  C16_18 
REMARK   10  A    between atoms: N2_25  and  C23_27 
ROOT
HETATM    1  C15 UNL     1      -3.629  12.176  19.350  1.00  0.00     0.082 C 
HETATM    2  N1  UNL     1      -3.242  11.844  20.538  1.00  0.00    -0.346 N 
ATOM      3  H1  UNL     1      -2.321  12.158  20.844  1.00  0.00     0.167 HD
ENDROOT
BRANCH   1   4
HETATM    4  C14 UNL     1      -4.931  11.805  18.753  1.00  0.00     0.081 C 
BRANCH   4   5
HETATM    5  C13 UNL     1      -4.854  10.439  18.067  1.00  0.00     0.045 C 
BRANCH   5   6
HETATM    6  C2  UNL     1      -3.730  10.387  17.111  1.00  0.00    -0.060 C 
HETATM    7  C1  UNL     1      -3.763  11.129  16.001  1.00  0.00     0.019 C 
BRANCH   6   8
HETATM    8  C3  UNL     1      -2.575   9.556  17.333  1.00  0.00     0.061 C 
BRANCH   8   9
HETATM    9  C4  UNL     1      -2.330   8.703  18.219  1.00  0.00    -0.128 C 
BRANCH   9  10
HETATM   10  C5  UNL     1      -2.057   7.755  19.204  1.00  0.00     0.056 C 
HETATM   11  C6  UNL     1      -2.692   6.682  19.544  1.00  0.00     0.019 C 
BRANCH  11  12
HETATM   12  C7  UNL     1      -3.884   6.092  19.039  1.00  0.00    -0.036 A 
HETATM   13  C8  UNL     1      -5.166   6.205  19.479  1.00  0.00     0.011 A 
HETATM   14  C9  UNL     1      -6.252   5.512  18.941  1.00  0.00     0.001 A 
HETATM   15  C10 UNL     1      -6.038   4.661  17.904  1.00  0.00     0.000 A 
HETATM   16  C11 UNL     1      -4.770   4.498  17.409  1.00  0.00     0.001 A 
HETATM   17  C12 UNL     1      -3.726   5.192  17.958  1.00  0.00     0.011 A 
ENDBRANCH  11  12
ENDBRANCH   9  10
ENDBRANCH   8   9
ENDBRANCH   6   8
ENDBRANCH   5   6
ENDBRANCH   4   5
ENDBRANCH   1   4
BRANCH   1  18
HETATM   18  N2  UNL     1      -2.709  12.968  18.615  1.00  0.00    -0.346 N 
ATOM     19  H2  UNL     1      -1.858  12.531  18.262  1.00  0.00     0.167 HD
BRANCH  18  20
HETATM   20  C23 UNL     1      -2.929  14.359  18.350  1.00  0.00     0.033 A 
HETATM   21  C24 UNL     1      -2.101  15.328  18.873  1.00  0.00     0.029 A 
HETATM   22  C25 UNL     1      -2.255  16.679  18.659  1.00  0.00     0.002 A 
HETATM   23  C26 UNL     1      -3.320  17.086  17.861  1.00  0.00     0.000 A 
HETATM   24  C27 UNL     1      -4.184  16.164  17.310  1.00  0.00     0.002 A 
HETATM   25  C28 UNL     1      -3.967  14.811  17.568  1.00  0.00     0.029 A 
ENDBRANCH  18  20
ENDBRANCH   1  18
BRANCH   2  26
HETATM   26  C16 UNL     1      -4.018  11.068  21.448  1.00  0.00     0.033 A 
HETATM   27  C17 UNL     1      -4.290   9.752  21.252  1.00  0.00     0.029 A 
HETATM   28  C18 UNL     1      -5.044   9.040  22.149  1.00  0.00     0.003 A 
HETATM   29  C19 UNL     1      -5.539   9.664  23.275  1.00  0.00     0.007 A 
HETATM   30  C20 UNL     1      -5.269  11.001  23.484  1.00  0.00    -0.060 A 
HETATM   31  C21 UNL     1      -5.784  11.707  24.679  1.00  0.00     0.048 C 
HETATM   32  C22 UNL     1      -4.507  11.702  22.568  1.00  0.00     0.036 A 
ENDBRANCH   2  26
TORSDOF 10
ENDMDL
MODEL 5
REMARK VINA RESULT: -10.063067957      1.970      7.993
REMARK  10 active torsions:
REMARK  status: ('A' for Active; 'I' for Inactive)
REMARK    1  A    between atoms: C2_2  and  C3_3 
REMARK    2  A    between atoms: C2_2  and  C13_13 
REMARK    3  A    between atoms: C3_3  and  C4_4 
REMARK    4  A    between atoms: C4_4  and  C5_5 
REMARK    5  A    between atoms: C6_6  and  C7_7 
REMARK    6  A    between atoms: C13_13  and  C14_14 
REMARK    7  A    between atoms: C14_14  and  C15_15 
REMARK    8  A    between atoms: C15_15  and  N2_25 
REMARK    9  A    between atoms: N1_16  and  C16_18 
REMARK   10  A    between atoms: N2_25  and  C23_27 
ROOT
HETATM    1  C15 UNL     1      -3.604  11.703  18.780  1.00  0.00     0.082 C 
HETATM    2  N1  UNL     1      -4.580  11.753  19.626  1.00  0.00    -0.346 N 
ATOM      3  H1  UNL     1      -5.305  12.455  19.476  1.00  0.00     0.167 HD
ENDROOT
BRANCH   1   4
HETATM    4  C14 UNL     1      -2.476  10.747  18.851  1.00  0.00     0.081 C 
BRANCH   4   5
HETATM    5  C13 UNL     1      -2.442   9.842  17.618  1.00  0.00     0.045 C 
BRANCH   5   6
HETATM    6  C2  UNL     1      -2.478   8.417  18.003  1.00  0.00    -0.060 C 
HETATM    7  C1  UNL     1      -3.209   7.552  17.297  1.00  0.00     0.019 C 
BRANCH   6   8
HETATM    8  C3  UNL     1      -1.736   7.911  19.129  1.00  0.00     0.061 C 
BRANCH   8   9
HETATM    9  C4  UNL     1      -1.989   6.984  19.935  1.00  0.00    -0.128 C 
BRANCH   9  10
HETATM   10  C5  UNL     1      -2.271   5.953  20.830  1.00  0.00     0.056 C 
HETATM   11  C6  UNL     1      -3.162   5.017  20.790  1.00  0.00     0.019 C 
BRANCH  11  12
HETATM   12  C7  UNL     1      -4.163   4.710  19.827  1.00  0.00    -0.036 A 
HETATM   13  C8  UNL     1      -4.203   3.716  18.900  1.00  0.00     0.011 A 
HETATM   14  C9  UNL     1      -5.214   3.559  17.950  1.00  0.00     0.001 A 
HETATM   15  C10 UNL     1      -6.240   4.449  17.932  1.00  0.00     0.000 A 
HETATM   16  C11 UNL     1      -6.264   5.477  18.838  1.00  0.00     0.001 A 
HETATM   17  C12 UNL     1      -5.258   5.603  19.757  1.00  0.00     0.011 A 
ENDBRANCH  11  12
ENDBRANCH   9  10
ENDBRANCH   8   9
ENDBRANCH   6   8
ENDBRANCH   5   6
ENDBRANCH   4   5
ENDBRANCH   1   4
BRANCH   1  18
HETATM   18  N2  UNL     1      -3.678  12.639  17.716  1.00  0.00    -0.346 N 
ATOM     19  H2  UNL     1      -3.930  12.305  16.786  1.00  0.00     0.167 HD
BRANCH  18  20
HETATM   20  C23 UNL     1      -3.413  14.035  17.899  1.00  0.00     0.033 A 
HETATM   21  C24 UNL     1      -4.195  14.997  17.299  1.00  0.00     0.029 A 
HETATM   22  C25 UNL     1      -3.997  16.353  17.430  1.00  0.00     0.002 A 
HETATM   23  C26 UNL     1      -2.934  16.773  18.225  1.00  0.00     0.000 A 
HETATM   24  C27 UNL     1      -2.115  15.858  18.851  1.00  0.00     0.002 A 
HETATM   25  C28 UNL     1      -2.376  14.499  18.674  1.00  0.00     0.029 A 
ENDBRANCH  18  20
ENDBRANCH   1  18
BRANCH   2  26
HETATM   26  C16 UNL     1      -4.710  10.893  20.755  1.00  0.00     0.033 A 
HETATM   27  C17 UNL     1      -4.628   9.540  20.667  1.00  0.00     0.029 A 
HETATM   28  C18 UNL     1      -4.763   8.746  21.777  1.00  0.00     0.003 A 
HETATM   29  C19 UNL     1      -4.984   9.322  23.010  1.00  0.00     0.007 A 
HETATM   30  C20 UNL     1      -5.069  10.696  23.111  1.00  0.00    -0.060 A 
HETATM   31  C21 UNL     1      -5.308  11.353  24.415  1.00  0.00     0.048 C 
HETATM   32  C22 UNL     1      -4.932  11.480  21.981  1.00  0.00     0.036 A 
ENDBRANCH   2  26
TORSDOF 10
ENDMDL
