MODEL 1
REMARK VINA RESULT: -11.624188072      0.000      0.000
REMARK  7 active torsions:
REMARK  status: ('A' for Active; 'I' for Inactive)
REMARK    1  A    between atoms: C2_2  and  C3_3 
REMARK    2  A    between atoms: C7_7  and  C8_8 
REMARK    3  A    between atoms: C13_13  and  C14_14 
REMARK    4  A    between atoms: C14_14  and  C15_15 
REMARK    5  A    between atoms: C20_20  and  O1_21 
REMARK    6  A    between atoms: O1_21  and  C21_22 
REMARK    7  A    between atoms: C21_22  and  C22_23 
ROOT
HETATM    1  C3  UNL     1      -4.890  10.667  22.026  1.00  0.00     0.032 A 
HETATM    2  C4  UNL     1      -4.806   9.305  21.866  1.00  0.00     0.043 A 
HETATM    3  C5  UNL     1      -4.147   9.041  20.661  1.00  0.00    -0.004 A 
HETATM    4  C6  UNL     1      -3.789   7.890  20.000  1.00  0.00     0.026 A 
HETATM    5  C7  UNL     1      -3.121   7.924  18.777  1.00  0.00    -0.022 A 
HETATM    6  C19 UNL     1      -2.834   9.160  18.259  1.00  0.00     0.051 A 
HETATM    7  C20 UNL     1      -3.185  10.340  18.905  1.00  0.00     0.097 A 
HETATM    8  C28 UNL     1      -3.855  10.273  20.130  1.00  0.00     0.076 A 
HETATM    9  N1  UNL     1      -4.311  11.249  20.967  1.00  0.00    -0.353 N 
ATOM     10  H1  UNL     1      -4.225  12.254  20.813  1.00  0.00     0.166 HD
ENDROOT
BRANCH   5  11
HETATM   11  C8  UNL     1      -2.684   6.732  18.067  1.00  0.00    -0.019 A 
HETATM   12  C9  UNL     1      -3.364   6.422  16.867  1.00  0.00     0.013 A 
HETATM   13  C10 UNL     1      -3.041   5.306  16.169  1.00  0.00     0.001 A 
HETATM   14  C11 UNL     1      -2.046   4.485  16.643  1.00  0.00     0.001 A 
HETATM   15  C12 UNL     1      -1.386   4.780  17.799  1.00  0.00     0.008 A 
HETATM   16  C13 UNL     1      -1.706   5.919  18.525  1.00  0.00    -0.044 A 
BRANCH  16  17
HETATM   17  C14 UNL     1      -0.938   6.220  19.741  1.00  0.00     0.066 C 
BRANCH  17  18
HETATM   18  C15 UNL     1      -1.204   5.225  20.842  1.00  0.00    -0.020 C 
HETATM   19  C16 UNL     1      -0.340   4.308  21.213  1.00  0.00    -0.091 C 
HETATM   20  C17 UNL     1       0.984   4.218  20.531  1.00  0.00     0.042 C 
HETATM   21  C18 UNL     1      -0.624   3.332  22.303  1.00  0.00     0.042 C 
ENDBRANCH  17  18
ENDBRANCH  16  17
ENDBRANCH   5  11
BRANCH   7  22
HETATM   22  O1  UNL     1      -2.916  11.585  18.420  1.00  0.00    -0.344 OA
BRANCH  22  23
HETATM   23  C21 UNL     1      -3.749  12.457  17.732  1.00  0.00     0.214 C 
BRANCH  23  24
HETATM   24  C22 UNL     1      -3.397  13.890  17.939  1.00  0.00    -0.034 A 
HETATM   25  C23 UNL     1      -4.151  14.909  17.391  1.00  0.00     0.009 A 
HETATM   26  C24 UNL     1      -3.845  16.243  17.581  1.00  0.00     0.001 A 
HETATM   27  C25 UNL     1      -2.753  16.607  18.342  1.00  0.00     0.000 A 
HETATM   28  C26 UNL     1      -1.997  15.585  18.892  1.00  0.00     0.001 A 
HETATM   29  C27 UNL     1      -2.294  14.269  18.708  1.00  0.00     0.009 A 
ENDBRANCH  23  24
ENDBRANCH  22  23
ENDBRANCH   7  22
BRANCH   1  30
HETATM   30  C2  UNL     1      -5.519  11.326  23.184  1.00  0.00     0.019 C 
HETATM   31  C1  UNL     1      -5.153  11.066  24.415  1.00  0.00     0.013 C 
ENDBRANCH   1  30
TORSDOF 7
ENDMDL
MODEL 2
REMARK VINA RESULT: -11.539562969      1.310      2.698
REMARK  7 active torsions:
REMARK  status: ('A' for Active; 'I' for Inactive)
REMARK    1  A    between atoms: C2_2  and  C3_3 
REMARK    2  A    between atoms: C7_7  and  C8_8 
REMARK    3  A    between atoms: C13_13  and  C14_14 
REMARK    4  A    between atoms: C14_14  and  C15_15 
REMARK    5  A    between atoms: C20_20  and  O1_21 
REMARK    6  A    between atoms: O1_21  and  C21_22 
REMARK    7  A    between atoms: C21_22  and  C22_23 
ROOT
HETATM    1  C3  UNL     1      -5.006  10.698  22.045  1.00  0.00     0.032 A 
HETATM    2  C4  UNL     1      -4.709   9.358  22.122  1.00  0.00     0.043 A 
HETATM    3  C5  UNL     1      -3.869   9.031  21.053  1.00  0.00    -0.004 A 
HETATM    4  C6  UNL     1      -3.268   7.867  20.631  1.00  0.00     0.026 A 
HETATM    5  C7  UNL     1      -2.460   7.829  19.497  1.00  0.00    -0.022 A 
HETATM    6  C19 UNL     1      -2.287   9.005  18.815  1.00  0.00     0.051 A 
HETATM    7  C20 UNL     1      -2.884  10.196  19.218  1.00  0.00     0.097 A 
HETATM    8  C28 UNL     1      -3.689  10.202  20.359  1.00  0.00     0.076 A 
HETATM    9  N1  UNL     1      -4.384  11.203  20.972  1.00  0.00    -0.353 N 
ATOM     10  H1  UNL     1      -4.423  12.176  20.664  1.00  0.00     0.166 HD
ENDROOT
BRANCH   5  11
HETATM   11  C8  UNL     1      -1.770   6.632  19.043  1.00  0.00    -0.019 A 
HETATM   12  C9  UNL     1      -0.522   6.351  19.644  1.00  0.00     0.013 A 
HETATM   13  C10 UNL     1       0.201   5.275  19.246  1.00  0.00     0.001 A 
HETATM   14  C11 UNL     1      -0.298   4.465  18.254  1.00  0.00     0.001 A 
HETATM   15  C12 UNL     1      -1.501   4.732  17.671  1.00  0.00     0.008 A 
HETATM   16  C13 UNL     1      -2.251   5.829  18.068  1.00  0.00    -0.044 A 
BRANCH  16  17
HETATM   17  C14 UNL     1      -3.563   6.052  17.443  1.00  0.00     0.066 C 
BRANCH  17  18
HETATM   18  C15 UNL     1      -4.419   4.810  17.463  1.00  0.00    -0.020 C 
HETATM   19  C16 UNL     1      -5.481   4.677  18.224  1.00  0.00    -0.091 C 
HETATM   20  C17 UNL     1      -5.891   5.791  19.128  1.00  0.00     0.042 C 
HETATM   21  C18 UNL     1      -6.314   3.440  18.230  1.00  0.00     0.042 C 
ENDBRANCH  17  18
ENDBRANCH  16  17
ENDBRANCH   5  11
BRANCH   7  22
HETATM   22  O1  UNL     1      -2.735  11.382  18.565  1.00  0.00    -0.344 OA
BRANCH  22  23
HETATM   23  C21 UNL     1      -3.691  12.153  17.918  1.00  0.00     0.214 C 
BRANCH  23  24
HETATM   24  C22 UNL     1      -3.417  13.616  17.996  1.00  0.00    -0.034 A 
HETATM   25  C23 UNL     1      -4.199  14.538  17.330  1.00  0.00     0.009 A 
HETATM   26  C24 UNL     1      -3.965  15.898  17.400  1.00  0.00     0.001 A 
HETATM   27  C25 UNL     1      -2.920  16.388  18.155  1.00  0.00     0.000 A 
HETATM   28  C26 UNL     1      -2.135  15.464  18.825  1.00  0.00     0.001 A 
HETATM   29  C27 UNL     1      -2.361  14.122  18.758  1.00  0.00     0.009 A 
ENDBRANCH  23  24
ENDBRANCH  22  23
ENDBRANCH   7  22
BRANCH   1  30
HETATM   30  C2  UNL     1      -5.867  11.410  23.006  1.00  0.00     0.019 C 
HETATM   31  C1  UNL     1      -5.496  11.625  24.244  1.00  0.00     0.013 C 
ENDBRANCH   1  30
TORSDOF 7
ENDMDL
MODEL 3
REMARK VINA RESULT: -11.411007617      1.109      2.998
REMARK  7 active torsions:
REMARK  status: ('A' for Active; 'I' for Inactive)
REMARK    1  A    between atoms: C2_2  and  C3_3 
REMARK    2  A    between atoms: C7_7  and  C8_8 
REMARK    3  A    between atoms: C13_13  and  C14_14 
REMARK    4  A    between atoms: C14_14  and  C15_15 
REMARK    5  A    between atoms: C20_20  and  O1_21 
REMARK    6  A    between atoms: O1_21  and  C21_22 
REMARK    7  A    between atoms: C21_22  and  C22_23 
ROOT
HETATM    1  C3  UNL     1      -5.078  10.686  21.964  1.00  0.00     0.032 A 
HETATM    2  C4  UNL     1      -4.734   9.363  22.098  1.00  0.00     0.043 A 
HETATM    3  C5  UNL     1      -3.847   9.030  21.069  1.00  0.00    -0.004 A 
HETATM    4  C6  UNL     1      -3.190   7.877  20.709  1.00  0.00     0.026 A 
HETATM    5  C7  UNL     1      -2.343   7.831  19.604  1.00  0.00    -0.022 A 
HETATM    6  C19 UNL     1      -2.191   8.988  18.886  1.00  0.00     0.051 A 
HETATM    7  C20 UNL     1      -2.845  10.168  19.226  1.00  0.00     0.097 A 
HETATM    8  C28 UNL     1      -3.688  10.183  20.340  1.00  0.00     0.076 A 
HETATM    9  N1  UNL     1      -4.440  11.178  20.893  1.00  0.00    -0.353 N 
ATOM     10  H1  UNL     1      -4.505  12.137  20.549  1.00  0.00     0.166 HD
ENDROOT
BRANCH   5  11
HETATM   11  C8  UNL     1      -1.593   6.646  19.215  1.00  0.00    -0.019 A 
HETATM   12  C9  UNL     1      -0.320   6.477  19.806  1.00  0.00     0.013 A 
HETATM   13  C10 UNL     1       0.455   5.419  19.464  1.00  0.00     0.001 A 
HETATM   14  C11 UNL     1      -0.015   4.516  18.541  1.00  0.00     0.001 A 
HETATM   15  C12 UNL     1      -1.242   4.674  17.969  1.00  0.00     0.008 A 
HETATM   16  C13 UNL     1      -2.047   5.752  18.309  1.00  0.00    -0.044 A 
BRANCH  16  17
HETATM   17  C14 UNL     1      -3.381   5.857  17.701  1.00  0.00     0.066 C 
BRANCH  17  18
HETATM   18  C15 UNL     1      -3.310   6.142  16.221  1.00  0.00    -0.020 C 
HETATM   19  C16 UNL     1      -3.452   5.218  15.299  1.00  0.00    -0.091 C 
HETATM   20  C17 UNL     1      -3.698   3.801  15.700  1.00  0.00     0.042 C 
HETATM   21  C18 UNL     1      -3.377   5.520  13.841  1.00  0.00     0.042 C 
ENDBRANCH  17  18
ENDBRANCH  16  17
ENDBRANCH   5  11
BRANCH   7  22
HETATM   22  O1  UNL     1      -2.719  11.336  18.536  1.00  0.00    -0.344 OA
BRANCH  22  23
HETATM   23  C21 UNL     1      -3.698  12.097  17.912  1.00  0.00     0.214 C 
BRANCH  23  24
HETATM   24  C22 UNL     1      -3.433  13.562  17.977  1.00  0.00    -0.034 A 
HETATM   25  C23 UNL     1      -4.195  14.470  17.270  1.00  0.00     0.009 A 
HETATM   26  C24 UNL     1      -3.970  15.832  17.326  1.00  0.00     0.001 A 
HETATM   27  C25 UNL     1      -2.953  16.339  18.110  1.00  0.00     0.000 A 
HETATM   28  C26 UNL     1      -2.189  15.428  18.821  1.00  0.00     0.001 A 
HETATM   29  C27 UNL     1      -2.406  14.085  18.768  1.00  0.00     0.009 A 
ENDBRANCH  23  24
ENDBRANCH  22  23
ENDBRANCH   7  22
BRANCH   1  30
HETATM   30  C2  UNL     1      -5.997  11.397  22.870  1.00  0.00     0.019 C 
HETATM   31  C1  UNL     1      -5.585  11.946  23.986  1.00  0.00     0.013 C 
ENDBRANCH   1  30
TORSDOF 7
ENDMDL
MODEL 4
REMARK VINA RESULT: -10.844729179      1.074      1.603
REMARK  7 active torsions:
REMARK  status: ('A' for Active; 'I' for Inactive)
REMARK    1  A    between atoms: C2_2  and  C3_3 
REMARK    2  A    between atoms: C7_7  and  C8_8 
REMARK    3  A    between atoms: C13_13  and  C14_14 
REMARK    4  A    between atoms: C14_14  and  C15_15 
REMARK    5  A    between atoms: C20_20  and  O1_21 
REMARK    6  A    between atoms: O1_21  and  C21_22 
REMARK    7  A    between atoms: C21_22  and  C22_23 
ROOT
HETATM    1  C3  UNL     1      -5.187  10.954  23.054  1.00  0.00     0.032 A 
HETATM    2  C4  UNL     1      -5.114   9.585  22.953  1.00  0.00     0.043 A 
HETATM    3  C5  UNL     1      -4.712   9.259  21.654  1.00  0.00    -0.004 A 
HETATM    4  C6  UNL     1      -4.477   8.075  20.995  1.00  0.00     0.026 A 
HETATM    5  C7  UNL     1      -4.073   8.046  19.661  1.00  0.00    -0.022 A 
HETATM    6  C19 UNL     1      -3.920   9.252  19.030  1.00  0.00     0.051 A 
HETATM    7  C20 UNL     1      -4.152  10.465  19.672  1.00  0.00     0.097 A 
HETATM    8  C28 UNL     1      -4.556  10.461  21.009  1.00  0.00     0.076 A 
HETATM    9  N1  UNL     1      -4.848  11.479  21.869  1.00  0.00    -0.353 N 
ATOM     10  H1  UNL     1      -4.813  12.475  21.648  1.00  0.00     0.166 HD
ENDROOT
BRANCH   5  11
HETATM   11  C8  UNL     1      -3.771   6.819  18.941  1.00  0.00    -0.019 A 
HETATM   12  C9  UNL     1      -4.867   6.121  18.385  1.00  0.00     0.013 A 
HETATM   13  C10 UNL     1      -4.670   4.949  17.733  1.00  0.00     0.001 A 
HETATM   14  C11 UNL     1      -3.393   4.453  17.620  1.00  0.00     0.001 A 
HETATM   15  C12 UNL     1      -2.332   5.123  18.154  1.00  0.00     0.008 A 
HETATM   16  C13 UNL     1      -2.519   6.324  18.824  1.00  0.00    -0.044 A 
BRANCH  16  17
HETATM   17  C14 UNL     1      -1.341   7.033  19.344  1.00  0.00     0.066 C 
BRANCH  17  18
HETATM   18  C15 UNL     1      -0.147   6.122  19.486  1.00  0.00    -0.020 C 
HETATM   19  C16 UNL     1      -0.019   5.243  20.452  1.00  0.00    -0.091 C 
HETATM   20  C17 UNL     1      -1.092   5.110  21.482  1.00  0.00     0.042 C 
HETATM   21  C18 UNL     1       1.171   4.352  20.575  1.00  0.00     0.042 C 
ENDBRANCH  17  18
ENDBRANCH  16  17
ENDBRANCH   5  11
BRANCH   7  22
HETATM   22  O1  UNL     1      -4.011  11.682  19.076  1.00  0.00    -0.344 OA
BRANCH  22  23
HETATM   23  C21 UNL     1      -2.871  12.275  18.550  1.00  0.00     0.214 C 
BRANCH  23  24
HETATM   24  C22 UNL     1      -3.008  13.746  18.362  1.00  0.00    -0.034 A 
HETATM   25  C23 UNL     1      -2.115  14.637  18.924  1.00  0.00     0.009 A 
HETATM   26  C24 UNL     1      -2.222  16.003  18.752  1.00  0.00     0.001 A 
HETATM   27  C25 UNL     1      -3.246  16.533  17.994  1.00  0.00     0.000 A 
HETATM   28  C26 UNL     1      -4.142  15.640  17.429  1.00  0.00     0.001 A 
HETATM   29  C27 UNL     1      -4.041  14.293  17.596  1.00  0.00     0.009 A 
ENDBRANCH  23  24
ENDBRANCH  22  23
ENDBRANCH   7  22
BRANCH   1  30
HETATM   30  C2  UNL     1      -5.578  11.672  24.280  1.00  0.00     0.019 C 
HETATM   31  C1  UNL     1      -5.253  11.238  25.473  1.00  0.00     0.013 C 
ENDBRANCH   1  30
TORSDOF 7
ENDMDL
MODEL 5
REMARK VINA RESULT: -10.829604314      1.250      1.731
REMARK  7 active torsions:
REMARK  status: ('A' for Active; 'I' for Inactive)
REMARK    1  A    between atoms: C2_2  and  C3_3 
REMARK    2  A    between atoms: C7_7  and  C8_8 
REMARK    3  A    between atoms: C13_13  and  C14_14 
REMARK    4  A    between atoms: C14_14  and  C15_15 
REMARK    5  A    between atoms: C20_20  and  O1_21 
REMARK    6  A    between atoms: O1_21  and  C21_22 
REMARK    7  A    between atoms: C21_22  and  C22_23 
ROOT
HETATM    1  C3  UNL     1      -5.191  11.086  23.395  1.00  0.00     0.032 A 
HETATM    2  C4  UNL     1      -5.425   9.747  23.200  1.00  0.00     0.043 A 
HETATM    3  C5  UNL     1      -4.987   9.404  21.917  1.00  0.00    -0.004 A 
HETATM    4  C6  UNL     1      -4.969   8.234  21.194  1.00  0.00     0.026 A 
HETATM    5  C7  UNL     1      -4.457   8.181  19.899  1.00  0.00    -0.022 A 
HETATM    6  C19 UNL     1      -3.970   9.349  19.373  1.00  0.00     0.051 A 
HETATM    7  C20 UNL     1      -3.977  10.546  20.081  1.00  0.00     0.097 A 
HETATM    8  C28 UNL     1      -4.497  10.567  21.378  1.00  0.00     0.076 A 
HETATM    9  N1  UNL     1      -4.627  11.579  22.284  1.00  0.00    -0.353 N 
ATOM     10  H1  UNL     1      -4.343  12.548  22.140  1.00  0.00     0.166 HD
ENDROOT
BRANCH   5  11
HETATM   11  C8  UNL     1      -4.378   6.957  19.117  1.00  0.00    -0.019 A 
HETATM   12  C9  UNL     1      -5.581   6.236  18.940  1.00  0.00     0.013 A 
HETATM   13  C10 UNL     1      -5.580   5.065  18.257  1.00  0.00     0.001 A 
HETATM   14  C11 UNL     1      -4.398   4.593  17.740  1.00  0.00     0.001 A 
HETATM   15  C12 UNL     1      -3.235   5.285  17.907  1.00  0.00     0.008 A 
HETATM   16  C13 UNL     1      -3.220   6.485  18.604  1.00  0.00    -0.044 A 
BRANCH  16  17
HETATM   17  C14 UNL     1      -1.951   7.218  18.720  1.00  0.00     0.066 C 
BRANCH  17  18
HETATM   18  C15 UNL     1      -1.133   6.754  19.899  1.00  0.00    -0.020 C 
HETATM   19  C16 UNL     1      -0.212   5.821  19.818  1.00  0.00    -0.091 C 
HETATM   20  C17 UNL     1       0.065   5.165  18.506  1.00  0.00     0.042 C 
HETATM   21  C18 UNL     1       0.585   5.376  20.996  1.00  0.00     0.042 C 
ENDBRANCH  17  18
ENDBRANCH  16  17
ENDBRANCH   5  11
BRANCH   7  22
HETATM   22  O1  UNL     1      -3.502  11.725  19.590  1.00  0.00    -0.344 OA
BRANCH  22  23
HETATM   23  C21 UNL     1      -3.512  12.200  18.286  1.00  0.00     0.214 C 
BRANCH  23  24
HETATM   24  C22 UNL     1      -3.329  13.676  18.197  1.00  0.00    -0.034 A 
HETATM   25  C23 UNL     1      -4.193  14.473  17.473  1.00  0.00     0.009 A 
HETATM   26  C24 UNL     1      -4.043  15.844  17.387  1.00  0.00     0.001 A 
HETATM   27  C25 UNL     1      -3.002  16.474  18.039  1.00  0.00     0.000 A 
HETATM   28  C26 UNL     1      -2.136  15.675  18.767  1.00  0.00     0.001 A 
HETATM   29  C27 UNL     1      -2.279  14.323  18.853  1.00  0.00     0.009 A 
ENDBRANCH  23  24
ENDBRANCH  22  23
ENDBRANCH   7  22
BRANCH   1  30
HETATM   30  C2  UNL     1      -5.521  11.811  24.635  1.00  0.00     0.019 C 
HETATM   31  C1  UNL     1      -5.317  11.289  25.820  1.00  0.00     0.013 C 
ENDBRANCH   1  30
TORSDOF 7
ENDMDL
