MODEL 1
REMARK VINA RESULT: -10.464448636      0.000      0.000
REMARK  7 active torsions:
REMARK  status: ('A' for Active; 'I' for Inactive)
REMARK    1  A    between atoms: C7_7  and  N1_8 
REMARK    2  A    between atoms: N1_8  and  C8_10 
REMARK    3  A    between atoms: C11_13  and  C12_14 
REMARK    4  A    between atoms: C12_14  and  C13_15 
REMARK    5  A    between atoms: C13_15  and  C14_16 
REMARK    6  A    between atoms: C14_16  and  C15_17 
REMARK    7  A    between atoms: C14_16  and  C21_23 
ROOT
HETATM    1  C8  UNL     1      -1.666   5.319  18.717  1.00  0.00     0.032 A 
HETATM    2  C9  UNL     1      -2.575   5.469  17.655  1.00  0.00     0.030 A 
HETATM    3  C10 UNL     1      -3.062   6.685  17.252  1.00  0.00     0.009 A 
HETATM    4  C11 UNL     1      -2.668   7.835  17.893  1.00  0.00    -0.058 A 
HETATM    5  C27 UNL     1      -1.777   7.727  18.938  1.00  0.00     0.009 A 
HETATM    6  C28 UNL     1      -1.291   6.489  19.333  1.00  0.00     0.030 A 
ENDROOT
BRANCH   4   7
HETATM    7  C12 UNL     1      -3.198   9.183  17.458  1.00  0.00     0.039 C 
BRANCH   7   8
HETATM    8  C13 UNL     1      -4.112   9.654  18.519  1.00  0.00     0.019 C 
BRANCH   8   9
HETATM    9  C14 UNL     1      -3.605  10.628  19.512  1.00  0.00     0.052 C 
BRANCH   9  10
HETATM   10  C15 UNL     1      -4.239  10.514  20.863  1.00  0.00    -0.050 A 
HETATM   11  C16 UNL     1      -4.671   9.294  21.337  1.00  0.00     0.008 A 
HETATM   12  C17 UNL     1      -5.248   9.205  22.584  1.00  0.00     0.001 A 
HETATM   13  C18 UNL     1      -5.420  10.300  23.405  1.00  0.00     0.000 A 
HETATM   14  C19 UNL     1      -4.987  11.510  22.926  1.00  0.00     0.001 A 
HETATM   15  C20 UNL     1      -4.411  11.608  21.682  1.00  0.00     0.008 A 
ENDBRANCH   9  10
BRANCH   9  16
HETATM   16  C21 UNL     1      -3.449  12.017  19.073  1.00  0.00    -0.050 A 
HETATM   17  C22 UNL     1      -2.372  12.738  19.532  1.00  0.00     0.008 A 
HETATM   18  C23 UNL     1      -2.183  14.065  19.118  1.00  0.00     0.001 A 
HETATM   19  C24 UNL     1      -3.081  14.648  18.248  1.00  0.00     0.000 A 
HETATM   20  C25 UNL     1      -4.150  13.912  17.803  1.00  0.00     0.001 A 
HETATM   21  C26 UNL     1      -4.324  12.606  18.217  1.00  0.00     0.008 A 
ENDBRANCH   9  16
ENDBRANCH   8   9
ENDBRANCH   7   8
ENDBRANCH   4   7
BRANCH   1  22
HETATM   22  N1  UNL     1      -1.173   4.035  19.041  1.00  0.00    -0.356 N 
ATOM     23  H1  UNL     1      -0.666   3.542  18.307  1.00  0.00     0.166 HD
BRANCH  22  24
HETATM   24  C7  UNL     1      -1.308   3.369  20.262  1.00  0.00     0.039 A 
HETATM   25  C5  UNL     1      -0.180   3.244  21.081  1.00  0.00    -0.035 A 
HETATM   26  C4  UNL     1      -0.289   2.569  22.255  1.00  0.00     0.009 A 
HETATM   27  C6  UNL     1       1.104   3.867  20.619  1.00  0.00     0.050 C 
HETATM   28  C3  UNL     1      -1.457   1.992  22.694  1.00  0.00     0.007 A 
HETATM   29  C2  UNL     1      -2.574   2.107  21.898  1.00  0.00    -0.060 A 
HETATM   30  C1  UNL     1      -3.873   1.510  22.307  1.00  0.00     0.048 C 
HETATM   31  C29 UNL     1      -2.466   2.802  20.686  1.00  0.00     0.036 A 
ENDBRANCH  22  24
ENDBRANCH   1  22
TORSDOF 7
ENDMDL
MODEL 2
REMARK VINA RESULT: -10.431408510      0.126      1.224
REMARK  7 active torsions:
REMARK  status: ('A' for Active; 'I' for Inactive)
REMARK    1  A    between atoms: C7_7  and  N1_8 
REMARK    2  A    between atoms: N1_8  and  C8_10 
REMARK    3  A    between atoms: C11_13  and  C12_14 
REMARK    4  A    between atoms: C12_14  and  C13_15 
REMARK    5  A    between atoms: C13_15  and  C14_16 
REMARK    6  A    between atoms: C14_16  and  C15_17 
REMARK    7  A    between atoms: C14_16  and  C21_23 
ROOT
HETATM    1  C8  UNL     1      -1.634   5.281  18.506  1.00  0.00     0.032 A 
HETATM    2  C9  UNL     1      -1.240   6.455  19.173  1.00  0.00     0.030 A 
HETATM    3  C10 UNL     1      -1.738   7.693  18.868  1.00  0.00     0.009 A 
HETATM    4  C11 UNL     1      -2.670   7.837  17.867  1.00  0.00    -0.058 A 
HETATM    5  C27 UNL     1      -3.080   6.709  17.191  1.00  0.00     0.009 A 
HETATM    6  C28 UNL     1      -2.567   5.461  17.513  1.00  0.00     0.030 A 
ENDROOT
BRANCH   4   7
HETATM    7  C12 UNL     1      -3.228   9.199  17.519  1.00  0.00     0.039 C 
BRANCH   7   8
HETATM    8  C13 UNL     1      -4.096   9.613  18.641  1.00  0.00     0.019 C 
BRANCH   8   9
HETATM    9  C14 UNL     1      -3.578  10.604  19.610  1.00  0.00     0.052 C 
BRANCH   9  10
HETATM   10  C15 UNL     1      -4.223  10.539  20.959  1.00  0.00    -0.050 A 
HETATM   11  C16 UNL     1      -4.709   9.346  21.449  1.00  0.00     0.008 A 
HETATM   12  C17 UNL     1      -5.295   9.301  22.695  1.00  0.00     0.001 A 
HETATM   13  C18 UNL     1      -5.425  10.414  23.498  1.00  0.00     0.000 A 
HETATM   14  C19 UNL     1      -4.938  11.597  23.002  1.00  0.00     0.001 A 
HETATM   15  C20 UNL     1      -4.353  11.651  21.760  1.00  0.00     0.008 A 
ENDBRANCH   9  10
BRANCH   9  16
HETATM   16  C21 UNL     1      -3.395  11.978  19.135  1.00  0.00    -0.050 A 
HETATM   17  C22 UNL     1      -4.329  12.511  18.278  1.00  0.00     0.008 A 
HETATM   18  C23 UNL     1      -4.194  13.830  17.819  1.00  0.00     0.001 A 
HETATM   19  C24 UNL     1      -3.121  14.594  18.227  1.00  0.00     0.000 A 
HETATM   20  C25 UNL     1      -2.200  14.043  19.082  1.00  0.00     0.001 A 
HETATM   21  C26 UNL     1      -2.344  12.743  19.528  1.00  0.00     0.008 A 
ENDBRANCH   9  16
ENDBRANCH   8   9
ENDBRANCH   7   8
ENDBRANCH   4   7
BRANCH   1  22
HETATM   22  N1  UNL     1      -1.107   4.034  18.912  1.00  0.00    -0.356 N 
ATOM     23  H1  UNL     1      -0.532   3.539  18.231  1.00  0.00     0.166 HD
BRANCH  22  24
HETATM   24  C7  UNL     1      -1.292   3.407  20.147  1.00  0.00     0.039 A 
HETATM   25  C5  UNL     1      -0.205   3.330  21.024  1.00  0.00    -0.035 A 
HETATM   26  C4  UNL     1      -0.362   2.693  22.214  1.00  0.00     0.009 A 
HETATM   27  C6  UNL     1       1.090   3.961  20.606  1.00  0.00     0.050 C 
HETATM   28  C3  UNL     1      -1.540   2.111  22.614  1.00  0.00     0.007 A 
HETATM   29  C2  UNL     1      -2.618   2.178  21.760  1.00  0.00    -0.060 A 
HETATM   30  C1  UNL     1      -3.925   1.572  22.126  1.00  0.00     0.048 C 
HETATM   31  C29 UNL     1      -2.461   2.834  20.532  1.00  0.00     0.036 A 
ENDBRANCH  22  24
ENDBRANCH   1  22
TORSDOF 7
ENDMDL
MODEL 3
REMARK VINA RESULT: -10.274111425      0.410      3.456
REMARK  7 active torsions:
REMARK  status: ('A' for Active; 'I' for Inactive)
REMARK    1  A    between atoms: C7_7  and  N1_8 
REMARK    2  A    between atoms: N1_8  and  C8_10 
REMARK    3  A    between atoms: C11_13  and  C12_14 
REMARK    4  A    between atoms: C12_14  and  C13_15 
REMARK    5  A    between atoms: C13_15  and  C14_16 
REMARK    6  A    between atoms: C14_16  and  C15_17 
REMARK    7  A    between atoms: C14_16  and  C21_23 
ROOT
HETATM    1  C8  UNL     1      -1.654   5.028  18.560  1.00  0.00     0.032 A 
HETATM    2  C9  UNL     1      -1.282   6.211  19.222  1.00  0.00     0.030 A 
HETATM    3  C10 UNL     1      -1.788   7.442  18.898  1.00  0.00     0.009 A 
HETATM    4  C11 UNL     1      -2.704   7.567  17.880  1.00  0.00    -0.058 A 
HETATM    5  C27 UNL     1      -3.093   6.429  17.209  1.00  0.00     0.009 A 
HETATM    6  C28 UNL     1      -2.573   5.190  17.550  1.00  0.00     0.030 A 
ENDROOT
BRANCH   4   7
HETATM    7  C12 UNL     1      -3.269   8.921  17.512  1.00  0.00     0.039 C 
BRANCH   7   8
HETATM    8  C13 UNL     1      -2.837   9.873  18.555  1.00  0.00     0.019 C 
BRANCH   8   9
HETATM    9  C14 UNL     1      -3.827  10.829  19.098  1.00  0.00     0.052 C 
BRANCH   9  10
HETATM   10  C15 UNL     1      -3.492  12.267  18.850  1.00  0.00    -0.050 A 
HETATM   11  C16 UNL     1      -2.415  12.857  19.476  1.00  0.00     0.008 A 
HETATM   12  C17 UNL     1      -2.116  14.179  19.234  1.00  0.00     0.001 A 
HETATM   13  C18 UNL     1      -2.857  14.965  18.376  1.00  0.00     0.000 A 
HETATM   14  C19 UNL     1      -3.927  14.370  17.756  1.00  0.00     0.001 A 
HETATM   15  C20 UNL     1      -4.232  13.051  17.994  1.00  0.00     0.008 A 
ENDBRANCH   9  10
BRANCH   9  16
HETATM   16  C21 UNL     1      -4.322  10.589  20.456  1.00  0.00    -0.050 A 
HETATM   17  C22 UNL     1      -4.360   9.297  20.926  1.00  0.00     0.008 A 
HETATM   18  C23 UNL     1      -4.811   9.033  22.228  1.00  0.00     0.001 A 
HETATM   19  C24 UNL     1      -5.217  10.072  23.039  1.00  0.00     0.000 A 
HETATM   20  C25 UNL     1      -5.172  11.353  22.551  1.00  0.00     0.001 A 
HETATM   21  C26 UNL     1      -4.725  11.601  21.267  1.00  0.00     0.008 A 
ENDBRANCH   9  16
ENDBRANCH   8   9
ENDBRANCH   7   8
ENDBRANCH   4   7
BRANCH   1  22
HETATM   22  N1  UNL     1      -1.123   3.789  18.985  1.00  0.00    -0.356 N 
ATOM     23  H1  UNL     1      -0.563   3.276  18.304  1.00  0.00     0.166 HD
BRANCH  22  24
HETATM   24  C7  UNL     1      -1.283   3.194  20.239  1.00  0.00     0.039 A 
HETATM   25  C5  UNL     1      -0.174   3.124  21.089  1.00  0.00    -0.035 A 
HETATM   26  C4  UNL     1      -0.307   2.517  22.297  1.00  0.00     0.009 A 
HETATM   27  C6  UNL     1       1.118   3.728  20.622  1.00  0.00     0.050 C 
HETATM   28  C3  UNL     1      -1.482   1.958  22.741  1.00  0.00     0.007 A 
HETATM   29  C2  UNL     1      -2.580   2.020  21.914  1.00  0.00    -0.060 A 
HETATM   30  C1  UNL     1      -3.885   1.438  22.327  1.00  0.00     0.048 C 
HETATM   31  C29 UNL     1      -2.448   2.645  20.667  1.00  0.00     0.036 A 
ENDBRANCH  22  24
ENDBRANCH   1  22
TORSDOF 7
ENDMDL
MODEL 4
REMARK VINA RESULT: -10.236610525      2.694      9.527
REMARK  7 active torsions:
REMARK  status: ('A' for Active; 'I' for Inactive)
REMARK    1  A    between atoms: C7_7  and  N1_8 
REMARK    2  A    between atoms: N1_8  and  C8_10 
REMARK    3  A    between atoms: C11_13  and  C12_14 
REMARK    4  A    between atoms: C12_14  and  C13_15 
REMARK    5  A    between atoms: C13_15  and  C14_16 
REMARK    6  A    between atoms: C14_16  and  C15_17 
REMARK    7  A    between atoms: C14_16  and  C21_23 
ROOT
HETATM    1  C8  UNL     1      -3.913  12.395  18.013  1.00  0.00     0.032 A 
HETATM    2  C9  UNL     1      -3.090  11.279  17.778  1.00  0.00     0.030 A 
HETATM    3  C10 UNL     1      -3.102  10.160  18.567  1.00  0.00     0.009 A 
HETATM    4  C11 UNL     1      -3.944  10.087  19.652  1.00  0.00    -0.058 A 
HETATM    5  C27 UNL     1      -4.765  11.161  19.913  1.00  0.00     0.009 A 
HETATM    6  C28 UNL     1      -4.743  12.287  19.103  1.00  0.00     0.030 A 
ENDROOT
BRANCH   4   7
HETATM    7  C12 UNL     1      -3.967   8.857  20.532  1.00  0.00     0.039 C 
BRANCH   7   8
HETATM    8  C13 UNL     1      -2.834   8.004  20.118  1.00  0.00     0.019 C 
BRANCH   8   9
HETATM    9  C14 UNL     1      -2.960   6.537  20.266  1.00  0.00     0.052 C 
BRANCH   9  10
HETATM   10  C15 UNL     1      -1.653   5.818  20.392  1.00  0.00    -0.050 A 
HETATM   11  C16 UNL     1      -0.526   6.290  19.754  1.00  0.00     0.008 A 
HETATM   12  C17 UNL     1       0.671   5.621  19.884  1.00  0.00     0.001 A 
HETATM   13  C18 UNL     1       0.805   4.474  20.638  1.00  0.00     0.000 A 
HETATM   14  C19 UNL     1      -0.322   4.011  21.269  1.00  0.00     0.001 A 
HETATM   15  C20 UNL     1      -1.520   4.673  21.144  1.00  0.00     0.008 A 
ENDBRANCH   9  10
BRANCH   9  16
HETATM   16  C21 UNL     1      -3.902   5.849  19.380  1.00  0.00    -0.050 A 
HETATM   17  C22 UNL     1      -5.169   5.582  19.841  1.00  0.00     0.008 A 
HETATM   18  C23 UNL     1      -6.102   4.941  19.012  1.00  0.00     0.001 A 
HETATM   19  C24 UNL     1      -5.746   4.577  17.730  1.00  0.00     0.000 A 
HETATM   20  C25 UNL     1      -4.477   4.852  17.289  1.00  0.00     0.001 A 
HETATM   21  C26 UNL     1      -3.567   5.485  18.115  1.00  0.00     0.008 A 
ENDBRANCH   9  16
ENDBRANCH   8   9
ENDBRANCH   7   8
ENDBRANCH   4   7
BRANCH   1  22
HETATM   22  N1  UNL     1      -3.875  13.493  17.124  1.00  0.00    -0.356 N 
ATOM     23  H1  UNL     1      -4.025  13.286  16.137  1.00  0.00     0.166 HD
BRANCH  22  24
HETATM   24  C7  UNL     1      -3.655  14.833  17.456  1.00  0.00     0.039 A 
HETATM   25  C5  UNL     1      -2.641  15.134  18.371  1.00  0.00    -0.035 A 
HETATM   26  C4  UNL     1      -2.439  16.429  18.728  1.00  0.00     0.009 A 
HETATM   27  C6  UNL     1      -1.818  14.004  18.917  1.00  0.00     0.050 C 
HETATM   28  C3  UNL     1      -3.182  17.477  18.239  1.00  0.00     0.007 A 
HETATM   29  C2  UNL     1      -4.184  17.194  17.339  1.00  0.00    -0.060 A 
HETATM   30  C1  UNL     1      -5.028  18.276  16.766  1.00  0.00     0.048 C 
HETATM   31  C29 UNL     1      -4.396  15.860  16.967  1.00  0.00     0.036 A 
ENDBRANCH  22  24
ENDBRANCH   1  22
TORSDOF 7
ENDMDL
MODEL 5
REMARK VINA RESULT: -10.105664938      0.628      1.486
REMARK  7 active torsions:
REMARK  status: ('A' for Active; 'I' for Inactive)
REMARK    1  A    between atoms: C7_7  and  N1_8 
REMARK    2  A    between atoms: N1_8  and  C8_10 
REMARK    3  A    between atoms: C11_13  and  C12_14 
REMARK    4  A    between atoms: C12_14  and  C13_15 
REMARK    5  A    between atoms: C13_15  and  C14_16 
REMARK    6  A    between atoms: C14_16  and  C15_17 
REMARK    7  A    between atoms: C14_16  and  C21_23 
ROOT
HETATM    1  C8  UNL     1      -1.742   5.390  19.330  1.00  0.00     0.032 A 
HETATM    2  C9  UNL     1      -2.605   5.404  18.220  1.00  0.00     0.030 A 
HETATM    3  C10 UNL     1      -3.035   6.557  17.619  1.00  0.00     0.009 A 
HETATM    4  C11 UNL     1      -2.626   7.780  18.097  1.00  0.00    -0.058 A 
HETATM    5  C27 UNL     1      -1.780   7.806  19.184  1.00  0.00     0.009 A 
HETATM    6  C28 UNL     1      -1.352   6.629  19.780  1.00  0.00     0.030 A 
ENDROOT
BRANCH   4   7
HETATM    7  C12 UNL     1      -3.094   9.061  17.444  1.00  0.00     0.039 C 
BRANCH   7   8
HETATM    8  C13 UNL     1      -4.053   9.698  18.370  1.00  0.00     0.019 C 
BRANCH   8   9
HETATM    9  C14 UNL     1      -3.534  10.623  19.402  1.00  0.00     0.052 C 
BRANCH   9  10
HETATM   10  C15 UNL     1      -4.188  10.479  20.741  1.00  0.00    -0.050 A 
HETATM   11  C16 UNL     1      -4.465  11.588  21.512  1.00  0.00     0.008 A 
HETATM   12  C17 UNL     1      -5.071  11.439  22.739  1.00  0.00     0.001 A 
HETATM   13  C18 UNL     1      -5.426  10.209  23.251  1.00  0.00     0.000 A 
HETATM   14  C19 UNL     1      -5.147   9.111  22.477  1.00  0.00     0.001 A 
HETATM   15  C20 UNL     1      -4.541   9.250  21.252  1.00  0.00     0.008 A 
ENDBRANCH   9  10
BRANCH   9  16
HETATM   16  C21 UNL     1      -3.339  12.022  19.014  1.00  0.00    -0.050 A 
HETATM   17  C22 UNL     1      -4.202  12.582  18.102  1.00  0.00     0.008 A 
HETATM   18  C23 UNL     1      -4.054  13.925  17.723  1.00  0.00     0.001 A 
HETATM   19  C24 UNL     1      -3.040  14.685  18.265  1.00  0.00     0.000 A 
HETATM   20  C25 UNL     1      -2.189  14.108  19.173  1.00  0.00     0.001 A 
HETATM   21  C26 UNL     1      -2.345  12.785  19.540  1.00  0.00     0.008 A 
ENDBRANCH   9  16
ENDBRANCH   8   9
ENDBRANCH   7   8
ENDBRANCH   4   7
BRANCH   1  22
HETATM   22  N1  UNL     1      -1.306   4.156  19.864  1.00  0.00    -0.356 N 
ATOM     23  H1  UNL     1      -0.398   3.818  19.547  1.00  0.00     0.166 HD
BRANCH  22  24
HETATM   24  C7  UNL     1      -1.987   3.352  20.781  1.00  0.00     0.039 A 
HETATM   25  C5  UNL     1      -1.241   2.502  21.605  1.00  0.00    -0.035 A 
HETATM   26  C4  UNL     1      -1.893   1.690  22.477  1.00  0.00     0.009 A 
HETATM   27  C6  UNL     1       0.254   2.532  21.487  1.00  0.00     0.050 C 
HETATM   28  C3  UNL     1      -3.262   1.649  22.599  1.00  0.00     0.007 A 
HETATM   29  C2  UNL     1      -4.008   2.479  21.794  1.00  0.00    -0.060 A 
HETATM   30  C1  UNL     1      -5.493   2.491  21.871  1.00  0.00     0.048 C 
HETATM   31  C29 UNL     1      -3.340   3.319  20.893  1.00  0.00     0.036 A 
ENDBRANCH  22  24
ENDBRANCH   1  22
TORSDOF 7
ENDMDL
