MODEL 1
REMARK VINA RESULT: -11.217597686      0.000      0.000
REMARK  7 active torsions:
REMARK  status: ('A' for Active; 'I' for Inactive)
REMARK    1  A    between atoms: C2_2  and  C3_3 
REMARK    2  A    between atoms: C3_3  and  C4_4 
REMARK    3  A    between atoms: C4_4  and  C5_5 
REMARK    4  A    between atoms: C5_5  and  N1_6 
REMARK       I    between atoms: N1_6  and  C6_8 
REMARK    5  A    between atoms: C6_8  and  C7_10 
REMARK    6  A    between atoms: C13_16  and  C14_17 
REMARK    7  A    between atoms: C17_20  and  C18_21 
ROOT
HETATM    1  C7  UNL     1      -3.197   4.466  18.322  1.00  0.00     0.043 A 
HETATM    2  C8  UNL     1      -3.325   3.792  17.092  1.00  0.00     0.018 A 
HETATM    3  C9  UNL     1      -3.420   4.528  15.938  1.00  0.00     0.002 A 
HETATM    4  C10 UNL     1      -3.388   5.902  16.015  1.00  0.00     0.012 A 
HETATM    5  C11 UNL     1      -3.262   6.563  17.217  1.00  0.00    -0.024 A 
HETATM    6  C12 UNL     1      -3.247   7.937  17.247  1.00  0.00     0.024 A 
HETATM    7  C13 UNL     1      -3.138   8.665  18.423  1.00  0.00    -0.025 A 
HETATM    8  C26 UNL     1      -3.043   7.915  19.577  1.00  0.00     0.013 A 
HETATM    9  C27 UNL     1      -3.052   6.537  19.613  1.00  0.00     0.014 A 
HETATM   10  C28 UNL     1      -3.163   5.836  18.408  1.00  0.00    -0.010 A 
ENDROOT
BRANCH   7  11
HETATM   11  C14 UNL     1      -3.127  10.126  18.403  1.00  0.00    -0.026 A 
HETATM   12  C15 UNL     1      -3.612  10.804  17.276  1.00  0.00     0.013 A 
HETATM   13  C16 UNL     1      -3.638  12.173  17.187  1.00  0.00     0.013 A 
HETATM   14  C17 UNL     1      -3.177  12.930  18.230  1.00  0.00    -0.026 A 
HETATM   15  C24 UNL     1      -2.696  12.286  19.351  1.00  0.00     0.013 A 
HETATM   16  C25 UNL     1      -2.669  10.901  19.439  1.00  0.00     0.013 A 
BRANCH  14  17
HETATM   17  C18 UNL     1      -3.189  14.403  18.158  1.00  0.00    -0.026 A 
HETATM   18  C19 UNL     1      -4.205  15.017  17.468  1.00  0.00     0.012 A 
HETATM   19  C20 UNL     1      -4.217  16.403  17.409  1.00  0.00     0.001 A 
HETATM   20  C21 UNL     1      -3.230  17.135  18.035  1.00  0.00     0.000 A 
HETATM   21  C22 UNL     1      -2.227  16.480  18.717  1.00  0.00     0.001 A 
HETATM   22  C23 UNL     1      -2.196  15.111  18.787  1.00  0.00     0.012 A 
ENDBRANCH  14  17
ENDBRANCH   7  11
BRANCH   1  23
HETATM   23  C6  UNL     1      -3.079   3.688  19.556  1.00  0.00     0.252 C 
HETATM   24  N1  UNL     1      -1.795   3.195  19.913  1.00  0.00    -0.357 N 
ATOM     25  H1  UNL     1      -1.011   3.406  19.295  1.00  0.00     0.162 HD
HETATM   26  O1  UNL     1      -4.033   3.432  20.302  1.00  0.00    -0.268 OA
BRANCH  24  27
HETATM   27  C5  UNL     1      -1.535   2.416  21.097  1.00  0.00     0.123 C 
BRANCH  27  28
HETATM   28  C4  UNL     1      -0.450   2.930  21.978  1.00  0.00     0.020 C 
BRANCH  28  29
HETATM   29  C3  UNL     1      -0.304   4.431  21.686  1.00  0.00     0.001 C 
BRANCH  29  30
HETATM   30  C2  UNL     1       0.851   4.655  20.722  1.00  0.00    -0.004 C 
HETATM   31  C1  UNL     1       0.507   5.788  19.747  1.00  0.00     0.005 C 
ENDBRANCH  29  30
ENDBRANCH  28  29
ENDBRANCH  27  28
ENDBRANCH  24  27
ENDBRANCH   1  23
TORSDOF 7
ENDMDL
MODEL 2
REMARK VINA RESULT: -10.925674182      2.471      3.966
REMARK  7 active torsions:
REMARK  status: ('A' for Active; 'I' for Inactive)
REMARK    1  A    between atoms: C2_2  and  C3_3 
REMARK    2  A    between atoms: C3_3  and  C4_4 
REMARK    3  A    between atoms: C4_4  and  C5_5 
REMARK    4  A    between atoms: C5_5  and  N1_6 
REMARK       I    between atoms: N1_6  and  C6_8 
REMARK    5  A    between atoms: C6_8  and  C7_10 
REMARK    6  A    between atoms: C13_16  and  C14_17 
REMARK    7  A    between atoms: C17_20  and  C18_21 
ROOT
HETATM    1  C7  UNL     1      -2.159   4.376  20.203  1.00  0.00     0.043 A 
HETATM    2  C8  UNL     1      -0.859   3.843  20.304  1.00  0.00     0.018 A 
HETATM    3  C9  UNL     1       0.216   4.673  20.121  1.00  0.00     0.002 A 
HETATM    4  C10 UNL     1      -0.004   6.003  19.842  1.00  0.00     0.012 A 
HETATM    5  C11 UNL     1      -1.274   6.527  19.743  1.00  0.00    -0.024 A 
HETATM    6  C12 UNL     1      -1.446   7.859  19.451  1.00  0.00     0.024 A 
HETATM    7  C13 UNL     1      -2.696   8.448  19.322  1.00  0.00    -0.025 A 
HETATM    8  C26 UNL     1      -3.770   7.603  19.508  1.00  0.00     0.013 A 
HETATM    9  C27 UNL     1      -3.664   6.261  19.803  1.00  0.00     0.014 A 
HETATM   10  C28 UNL     1      -2.387   5.701  19.926  1.00  0.00    -0.010 A 
ENDROOT
BRANCH   7  11
HETATM   11  C14 UNL     1      -2.828   9.869  19.009  1.00  0.00    -0.026 A 
HETATM   12  C15 UNL     1      -2.569  10.822  20.004  1.00  0.00     0.013 A 
HETATM   13  C16 UNL     1      -2.666  12.172  19.783  1.00  0.00     0.013 A 
HETATM   14  C17 UNL     1      -3.029  12.633  18.547  1.00  0.00    -0.026 A 
HETATM   15  C24 UNL     1      -3.289  11.715  17.550  1.00  0.00     0.013 A 
HETATM   16  C25 UNL     1      -3.191  10.349  17.776  1.00  0.00     0.013 A 
BRANCH  14  17
HETATM   17  C18 UNL     1      -3.147  14.080  18.283  1.00  0.00    -0.026 A 
HETATM   18  C19 UNL     1      -2.228  14.926  18.855  1.00  0.00     0.012 A 
HETATM   19  C20 UNL     1      -2.337  16.285  18.598  1.00  0.00     0.001 A 
HETATM   20  C21 UNL     1      -3.345  16.762  17.787  1.00  0.00     0.000 A 
HETATM   21  C22 UNL     1      -4.248  15.880  17.234  1.00  0.00     0.001 A 
HETATM   22  C23 UNL     1      -4.159  14.532  17.475  1.00  0.00     0.012 A 
ENDBRANCH  14  17
ENDBRANCH   7  11
BRANCH   1  23
HETATM   23  C6  UNL     1      -3.312   3.500  20.413  1.00  0.00     0.252 C 
HETATM   24  N1  UNL     1      -3.817   3.369  21.735  1.00  0.00    -0.357 N 
ATOM     25  H1  UNL     1      -3.356   3.893  22.479  1.00  0.00     0.162 HD
HETATM   26  O1  UNL     1      -3.867   2.864  19.508  1.00  0.00    -0.268 OA
BRANCH  24  27
HETATM   27  C5  UNL     1      -4.944   2.541  22.085  1.00  0.00     0.123 C 
BRANCH  27  28
HETATM   28  C4  UNL     1      -6.284   3.142  21.837  1.00  0.00     0.020 C 
BRANCH  28  29
HETATM   29  C3  UNL     1      -7.250   2.532  22.865  1.00  0.00     0.001 C 
BRANCH  29  30
HETATM   30  C2  UNL     1      -8.523   3.362  22.927  1.00  0.00    -0.004 C 
HETATM   31  C1  UNL     1      -9.071   3.374  24.359  1.00  0.00     0.005 C 
ENDBRANCH  29  30
ENDBRANCH  28  29
ENDBRANCH  27  28
ENDBRANCH  24  27
ENDBRANCH   1  23
TORSDOF 7
ENDMDL
MODEL 3
REMARK VINA RESULT: -10.917914288      1.816      3.535
REMARK  7 active torsions:
REMARK  status: ('A' for Active; 'I' for Inactive)
REMARK    1  A    between atoms: C2_2  and  C3_3 
REMARK    2  A    between atoms: C3_3  and  C4_4 
REMARK    3  A    between atoms: C4_4  and  C5_5 
REMARK    4  A    between atoms: C5_5  and  N1_6 
REMARK       I    between atoms: N1_6  and  C6_8 
REMARK    5  A    between atoms: C6_8  and  C7_10 
REMARK    6  A    between atoms: C13_16  and  C14_17 
REMARK    7  A    between atoms: C17_20  and  C18_21 
ROOT
HETATM    1  C7  UNL     1      -1.855   4.081  20.293  1.00  0.00     0.043 A 
HETATM    2  C8  UNL     1      -0.542   3.587  20.426  1.00  0.00     0.018 A 
HETATM    3  C9  UNL     1       0.512   4.449  20.264  1.00  0.00     0.002 A 
HETATM    4  C10 UNL     1       0.258   5.771  19.974  1.00  0.00     0.012 A 
HETATM    5  C11 UNL     1      -1.024   6.256  19.844  1.00  0.00    -0.024 A 
HETATM    6  C12 UNL     1      -1.230   7.581  19.542  1.00  0.00     0.024 A 
HETATM    7  C13 UNL     1      -2.494   8.131  19.381  1.00  0.00    -0.025 A 
HETATM    8  C26 UNL     1      -3.546   7.255  19.547  1.00  0.00     0.013 A 
HETATM    9  C27 UNL     1      -3.406   5.918  19.850  1.00  0.00     0.014 A 
HETATM   10  C28 UNL     1      -2.116   5.398  20.005  1.00  0.00    -0.010 A 
ENDROOT
BRANCH   7  11
HETATM   11  C14 UNL     1      -2.660   9.547  19.059  1.00  0.00    -0.026 A 
HETATM   12  C15 UNL     1      -2.606  10.500  20.086  1.00  0.00     0.013 A 
HETATM   13  C16 UNL     1      -2.747  11.845  19.860  1.00  0.00     0.013 A 
HETATM   14  C17 UNL     1      -2.953  12.301  18.586  1.00  0.00    -0.026 A 
HETATM   15  C24 UNL     1      -3.011  11.383  17.557  1.00  0.00     0.013 A 
HETATM   16  C25 UNL     1      -2.867  10.022  17.788  1.00  0.00     0.013 A 
BRANCH  14  17
HETATM   17  C18 UNL     1      -3.115  13.742  18.314  1.00  0.00    -0.026 A 
HETATM   18  C19 UNL     1      -2.235  14.620  18.898  1.00  0.00     0.012 A 
HETATM   19  C20 UNL     1      -2.385  15.974  18.634  1.00  0.00     0.001 A 
HETATM   20  C21 UNL     1      -3.395  16.414  17.805  1.00  0.00     0.000 A 
HETATM   21  C22 UNL     1      -4.257  15.500  17.239  1.00  0.00     0.001 A 
HETATM   22  C23 UNL     1      -4.127  14.157  17.487  1.00  0.00     0.012 A 
ENDBRANCH  14  17
ENDBRANCH   7  11
BRANCH   1  23
HETATM   23  C6  UNL     1      -2.985   3.171  20.480  1.00  0.00     0.252 C 
HETATM   24  N1  UNL     1      -3.568   3.089  21.774  1.00  0.00    -0.357 N 
ATOM     25  H1  UNL     1      -3.173   3.669  22.514  1.00  0.00     0.162 HD
HETATM   26  O1  UNL     1      -3.459   2.467  19.579  1.00  0.00    -0.268 OA
BRANCH  24  27
HETATM   27  C5  UNL     1      -4.683   2.236  22.099  1.00  0.00     0.123 C 
BRANCH  27  28
HETATM   28  C4  UNL     1      -5.998   2.921  22.229  1.00  0.00     0.020 C 
BRANCH  28  29
HETATM   29  C3  UNL     1      -6.700   2.814  20.865  1.00  0.00     0.001 C 
BRANCH  29  30
HETATM   30  C2  UNL     1      -6.735   4.181  20.200  1.00  0.00    -0.004 C 
HETATM   31  C1  UNL     1      -6.489   4.036  18.693  1.00  0.00     0.005 C 
ENDBRANCH  29  30
ENDBRANCH  28  29
ENDBRANCH  27  28
ENDBRANCH  24  27
ENDBRANCH   1  23
TORSDOF 7
ENDMDL
MODEL 4
REMARK VINA RESULT: -10.878709423      1.413      3.780
REMARK  7 active torsions:
REMARK  status: ('A' for Active; 'I' for Inactive)
REMARK    1  A    between atoms: C2_2  and  C3_3 
REMARK    2  A    between atoms: C3_3  and  C4_4 
REMARK    3  A    between atoms: C4_4  and  C5_5 
REMARK    4  A    between atoms: C5_5  and  N1_6 
REMARK       I    between atoms: N1_6  and  C6_8 
REMARK    5  A    between atoms: C6_8  and  C7_10 
REMARK    6  A    between atoms: C13_16  and  C14_17 
REMARK    7  A    between atoms: C17_20  and  C18_21 
ROOT
HETATM    1  C7  UNL     1      -1.866   4.489  18.729  1.00  0.00     0.043 A 
HETATM    2  C8  UNL     1      -0.870   4.023  19.610  1.00  0.00     0.018 A 
HETATM    3  C9  UNL     1      -0.139   4.934  20.329  1.00  0.00     0.002 A 
HETATM    4  C10 UNL     1      -0.399   6.277  20.169  1.00  0.00     0.012 A 
HETATM    5  C11 UNL     1      -1.372   6.734  19.309  1.00  0.00    -0.024 A 
HETATM    6  C12 UNL     1      -1.588   8.085  19.173  1.00  0.00     0.024 A 
HETATM    7  C13 UNL     1      -2.541   8.614  18.314  1.00  0.00    -0.025 A 
HETATM    8  C26 UNL     1      -3.269   7.688  17.596  1.00  0.00     0.013 A 
HETATM    9  C27 UNL     1      -3.101   6.324  17.688  1.00  0.00     0.014 A 
HETATM   10  C28 UNL     1      -2.131   5.826  18.565  1.00  0.00    -0.010 A 
ENDROOT
BRANCH   7  11
HETATM   11  C14 UNL     1      -2.732  10.058  18.203  1.00  0.00    -0.026 A 
HETATM   12  C15 UNL     1      -2.327  10.891  19.256  1.00  0.00     0.013 A 
HETATM   13  C16 UNL     1      -2.469  12.255  19.221  1.00  0.00     0.013 A 
HETATM   14  C17 UNL     1      -3.029  12.851  18.124  1.00  0.00    -0.026 A 
HETATM   15  C24 UNL     1      -3.436  12.053  17.074  1.00  0.00     0.013 A 
HETATM   16  C25 UNL     1      -3.292  10.673  17.111  1.00  0.00     0.013 A 
BRANCH  14  17
HETATM   17  C18 UNL     1      -3.199  14.315  18.063  1.00  0.00    -0.026 A 
HETATM   18  C19 UNL     1      -2.276  15.108  18.698  1.00  0.00     0.012 A 
HETATM   19  C20 UNL     1      -2.434  16.486  18.632  1.00  0.00     0.001 A 
HETATM   20  C21 UNL     1      -3.495  17.031  17.941  1.00  0.00     0.000 A 
HETATM   21  C22 UNL     1      -4.401  16.200  17.318  1.00  0.00     0.001 A 
HETATM   22  C23 UNL     1      -4.263  14.836  17.371  1.00  0.00     0.012 A 
ENDBRANCH  14  17
ENDBRANCH   7  11
BRANCH   1  23
HETATM   23  C6  UNL     1      -2.660   3.522  17.970  1.00  0.00     0.252 C 
HETATM   24  N1  UNL     1      -2.109   3.007  16.765  1.00  0.00    -0.357 N 
ATOM     25  H1  UNL     1      -1.185   3.333  16.483  1.00  0.00     0.162 HD
HETATM   26  O1  UNL     1      -3.783   3.132  18.315  1.00  0.00    -0.268 OA
BRANCH  24  27
HETATM   27  C5  UNL     1      -2.780   2.052  15.920  1.00  0.00     0.123 C 
BRANCH  27  28
HETATM   28  C4  UNL     1      -2.982   2.475  14.507  1.00  0.00     0.020 C 
BRANCH  28  29
HETATM   29  C3  UNL     1      -2.436   3.907  14.382  1.00  0.00     0.001 C 
BRANCH  29  30
HETATM   30  C2  UNL     1      -3.586   4.873  14.142  1.00  0.00    -0.004 C 
HETATM   31  C1  UNL     1      -3.216   5.859  13.026  1.00  0.00     0.005 C 
ENDBRANCH  29  30
ENDBRANCH  28  29
ENDBRANCH  27  28
ENDBRANCH  24  27
ENDBRANCH   1  23
TORSDOF 7
ENDMDL
MODEL 5
REMARK VINA RESULT: -10.825781293      1.476      3.590
REMARK  7 active torsions:
REMARK  status: ('A' for Active; 'I' for Inactive)
REMARK    1  A    between atoms: C2_2  and  C3_3 
REMARK    2  A    between atoms: C3_3  and  C4_4 
REMARK    3  A    between atoms: C4_4  and  C5_5 
REMARK    4  A    between atoms: C5_5  and  N1_6 
REMARK       I    between atoms: N1_6  and  C6_8 
REMARK    5  A    between atoms: C6_8  and  C7_10 
REMARK    6  A    between atoms: C13_16  and  C14_17 
REMARK    7  A    between atoms: C17_20  and  C18_21 
ROOT
HETATM    1  C7  UNL     1      -1.900   4.559  18.558  1.00  0.00     0.043 A 
HETATM    2  C8  UNL     1      -0.907   4.026  19.403  1.00  0.00     0.018 A 
HETATM    3  C9  UNL     1      -0.152   4.882  20.163  1.00  0.00     0.002 A 
HETATM    4  C10 UNL     1      -0.384   6.236  20.077  1.00  0.00     0.012 A 
HETATM    5  C11 UNL     1      -1.354   6.760  19.252  1.00  0.00    -0.024 A 
HETATM    6  C12 UNL     1      -1.542   8.120  19.189  1.00  0.00     0.024 A 
HETATM    7  C13 UNL     1      -2.491   8.713  18.368  1.00  0.00    -0.025 A 
HETATM    8  C26 UNL     1      -3.244   7.842  17.609  1.00  0.00     0.013 A 
HETATM    9  C27 UNL     1      -3.104   6.472  17.627  1.00  0.00     0.014 A 
HETATM   10  C28 UNL     1      -2.138   5.908  18.467  1.00  0.00    -0.010 A 
ENDROOT
BRANCH   7  11
HETATM   11  C14 UNL     1      -2.653  10.165  18.337  1.00  0.00    -0.026 A 
HETATM   12  C15 UNL     1      -3.196  10.775  17.197  1.00  0.00     0.013 A 
HETATM   13  C16 UNL     1      -3.382  12.130  17.097  1.00  0.00     0.013 A 
HETATM   14  C17 UNL     1      -3.030  12.943  18.141  1.00  0.00    -0.026 A 
HETATM   15  C24 UNL     1      -2.493  12.366  19.274  1.00  0.00     0.013 A 
HETATM   16  C25 UNL     1      -2.305  10.995  19.373  1.00  0.00     0.013 A 
BRANCH  14  17
HETATM   17  C18 UNL     1      -3.214  14.404  18.058  1.00  0.00    -0.026 A 
HETATM   18  C19 UNL     1      -4.295  14.889  17.365  1.00  0.00     0.012 A 
HETATM   19  C20 UNL     1      -4.470  16.264  17.296  1.00  0.00     0.001 A 
HETATM   20  C21 UNL     1      -3.574  17.111  17.913  1.00  0.00     0.000 A 
HETATM   21  C22 UNL     1      -2.501  16.584  18.598  1.00  0.00     0.001 A 
HETATM   22  C23 UNL     1      -2.309  15.228  18.678  1.00  0.00     0.012 A 
ENDBRANCH  14  17
ENDBRANCH   7  11
BRANCH   1  23
HETATM   23  C6  UNL     1      -2.721   3.651  17.756  1.00  0.00     0.252 C 
HETATM   24  N1  UNL     1      -2.172   3.154  16.542  1.00  0.00    -0.357 N 
ATOM     25  H1  UNL     1      -1.232   3.451  16.284  1.00  0.00     0.162 HD
HETATM   26  O1  UNL     1      -3.864   3.296  18.071  1.00  0.00    -0.268 OA
BRANCH  24  27
HETATM   27  C5  UNL     1      -2.869   2.255  15.656  1.00  0.00     0.123 C 
BRANCH  27  28
HETATM   28  C4  UNL     1      -2.935   2.682  14.231  1.00  0.00     0.020 C 
BRANCH  28  29
HETATM   29  C3  UNL     1      -1.822   3.720  14.019  1.00  0.00     0.001 C 
BRANCH  29  30
HETATM   30  C2  UNL     1      -2.383   4.927  13.283  1.00  0.00    -0.004 C 
HETATM   31  C1  UNL     1      -3.583   5.497  14.050  1.00  0.00     0.005 C 
ENDBRANCH  29  30
ENDBRANCH  28  29
ENDBRANCH  27  28
ENDBRANCH  24  27
ENDBRANCH   1  23
TORSDOF 7
ENDMDL
