MODEL 1
REMARK VINA RESULT: -5.620849094      0.000      0.000
REMARK  4 active torsions:
REMARK  status: ('A' for Active; 'I' for Inactive)
REMARK    1  A    between atoms: O1_2  and  C2_3 
REMARK    2  A    between atoms: C2_3  and  C3_4 
REMARK    3  A    between atoms: C8_10  and  C9_11 
REMARK    4  A    between atoms: C9_11  and  N1_12 
ROOT
HETATM    1  C3  UNL     1      15.982  47.935  69.272  1.00  0.00     0.044 C 
HETATM    2  C4  UNL     1      16.368  48.425  67.920  1.00  0.00    -0.008 C 
HETATM    3  C5  UNL     1      16.637  47.211  67.022  1.00  0.00     0.010 C 
HETATM    4  C6  UNL     1      15.431  49.341  67.246  1.00  0.00     0.031 C 
HETATM    5  C7  UNL     1      14.549  50.126  68.192  1.00  0.00     0.168 C 
HETATM    6  O2  UNL     1      14.048  49.240  69.113  1.00  0.00    -0.384 OA
HETATM    7  C8  UNL     1      15.041  48.805  70.015  1.00  0.00     0.153 C 
ENDROOT
BRANCH   7   8
HETATM    8  C9  UNL     1      14.255  48.101  71.089  1.00  0.00     0.261 C 
BRANCH   8   9
HETATM    9  N1  UNL     1      13.533  46.960  70.579  1.00  0.00    -0.077 N 
ATOM     10  H13 UNL     1      14.026  46.533  69.795  1.00  0.00     0.274 HD
ATOM     11  H12 UNL     1      13.566  46.180  71.236  1.00  0.00     0.274 HD
ATOM     12  H11 UNL     1      12.572  47.192  70.329  1.00  0.00     0.274 HD
ENDBRANCH   8   9
ENDBRANCH   7   8
BRANCH   1  13
HETATM   13  C2  UNL     1      17.262  47.622  70.007  1.00  0.00     0.174 C 
BRANCH  13  14
HETATM   14  O1  UNL     1      17.509  46.291  70.175  1.00  0.00    -0.395 OA
HETATM   15  C1  UNL     1      18.840  46.053  69.840  1.00  0.00     0.201 C 
ENDBRANCH  13  14
ENDBRANCH   1  13
TORSDOF 4
ENDMDL
MODEL 2
REMARK VINA RESULT: -5.477394817      1.015      1.305
REMARK  4 active torsions:
REMARK  status: ('A' for Active; 'I' for Inactive)
REMARK    1  A    between atoms: O1_2  and  C2_3 
REMARK    2  A    between atoms: C2_3  and  C3_4 
REMARK    3  A    between atoms: C8_10  and  C9_11 
REMARK    4  A    between atoms: C9_11  and  N1_12 
ROOT
HETATM    1  C3  UNL     1      15.902  48.001  69.473  1.00  0.00     0.044 C 
HETATM    2  C4  UNL     1      16.423  48.256  68.102  1.00  0.00    -0.008 C 
HETATM    3  C5  UNL     1      16.777  46.908  67.459  1.00  0.00     0.010 C 
HETATM    4  C6  UNL     1      15.563  49.028  67.190  1.00  0.00     0.031 C 
HETATM    5  C7  UNL     1      14.593  49.953  67.893  1.00  0.00     0.168 C 
HETATM    6  O2  UNL     1      13.999  49.232  68.899  1.00  0.00    -0.384 OA
HETATM    7  C8  UNL     1      14.895  48.973  69.957  1.00  0.00     0.153 C 
ENDROOT
BRANCH   7   8
HETATM    8  C9  UNL     1      14.002  48.455  71.053  1.00  0.00     0.261 C 
BRANCH   8   9
HETATM    9  N1  UNL     1      13.693  47.054  70.890  1.00  0.00    -0.077 N 
ATOM     10  H13 UNL     1      12.859  46.925  70.317  1.00  0.00     0.274 HD
ATOM     11  H12 UNL     1      14.376  46.594  70.289  1.00  0.00     0.274 HD
ATOM     12  H11 UNL     1      13.604  46.572  71.784  1.00  0.00     0.274 HD
ENDBRANCH   8   9
ENDBRANCH   7   8
BRANCH   1  13
HETATM   13  C2  UNL     1      17.101  47.838  70.375  1.00  0.00     0.174 C 
BRANCH  13  14
HETATM   14  O1  UNL     1      16.801  47.484  71.658  1.00  0.00    -0.395 OA
HETATM   15  C1  UNL     1      17.354  48.440  72.509  1.00  0.00     0.201 C 
ENDBRANCH  13  14
ENDBRANCH   1  13
TORSDOF 4
ENDMDL
MODEL 3
REMARK VINA RESULT: -5.187856078      1.883      3.808
REMARK  4 active torsions:
REMARK  status: ('A' for Active; 'I' for Inactive)
REMARK    1  A    between atoms: O1_2  and  C2_3 
REMARK    2  A    between atoms: C2_3  and  C3_4 
REMARK    3  A    between atoms: C8_10  and  C9_11 
REMARK    4  A    between atoms: C9_11  and  N1_12 
ROOT
HETATM    1  C3  UNL     1      16.018  47.691  69.646  1.00  0.00     0.044 C 
HETATM    2  C4  UNL     1      16.544  46.855  68.532  1.00  0.00    -0.008 C 
HETATM    3  C5  UNL     1      16.421  47.652  67.227  1.00  0.00     0.010 C 
HETATM    4  C6  UNL     1      17.917  46.341  68.670  1.00  0.00     0.031 C 
HETATM    5  C7  UNL     1      18.381  46.199  70.103  1.00  0.00     0.168 C 
HETATM    6  O2  UNL     1      18.049  47.359  70.757  1.00  0.00    -0.384 OA
HETATM    7  C8  UNL     1      16.658  47.464  70.963  1.00  0.00     0.153 C 
ENDROOT
BRANCH   7   8
HETATM    8  C9  UNL     1      16.533  48.616  71.925  1.00  0.00     0.261 C 
BRANCH   8   9
HETATM    9  N1  UNL     1      17.639  48.679  72.849  1.00  0.00    -0.077 N 
ATOM     10  H13 UNL     1      17.440  48.149  73.698  1.00  0.00     0.274 HD
ATOM     11  H12 UNL     1      18.437  48.143  72.507  1.00  0.00     0.274 HD
ATOM     12  H11 UNL     1      17.906  49.638  73.068  1.00  0.00     0.274 HD
ENDBRANCH   8   9
ENDBRANCH   7   8
BRANCH   1  13
HETATM   13  C2  UNL     1      14.518  47.533  69.642  1.00  0.00     0.174 C 
BRANCH  13  14
HETATM   14  O1  UNL     1      13.826  48.674  69.932  1.00  0.00    -0.395 OA
HETATM   15  C1  UNL     1      14.339  49.701  69.141  1.00  0.00     0.201 C 
ENDBRANCH  13  14
ENDBRANCH   1  13
TORSDOF 4
ENDMDL
MODEL 4
REMARK VINA RESULT: -5.151433494      2.019      3.096
REMARK  4 active torsions:
REMARK  status: ('A' for Active; 'I' for Inactive)
REMARK    1  A    between atoms: O1_2  and  C2_3 
REMARK    2  A    between atoms: C2_3  and  C3_4 
REMARK    3  A    between atoms: C8_10  and  C9_11 
REMARK    4  A    between atoms: C9_11  and  N1_12 
ROOT
HETATM    1  C3  UNL     1      16.627  47.703  69.768  1.00  0.00     0.044 C 
HETATM    2  C4  UNL     1      15.836  48.215  70.920  1.00  0.00    -0.008 C 
HETATM    3  C5  UNL     1      16.809  48.773  71.968  1.00  0.00     0.010 C 
HETATM    4  C6  UNL     1      14.796  49.217  70.629  1.00  0.00     0.031 C 
HETATM    5  C7  UNL     1      14.256  49.150  69.217  1.00  0.00     0.168 C 
HETATM    6  O2  UNL     1      15.333  49.060  68.371  1.00  0.00    -0.384 OA
HETATM    7  C8  UNL     1      15.958  47.798  68.450  1.00  0.00     0.153 C 
ENDROOT
BRANCH   7   8
HETATM    8  C9  UNL     1      16.895  47.797  67.272  1.00  0.00     0.261 C 
BRANCH   8   9
HETATM    9  N1  UNL     1      18.112  48.525  67.541  1.00  0.00    -0.077 N 
ATOM     10  H13 UNL     1      18.542  48.214  68.411  1.00  0.00     0.274 HD
ATOM     11  H12 UNL     1      18.851  48.259  66.890  1.00  0.00     0.274 HD
ATOM     12  H11 UNL     1      17.967  49.534  67.541  1.00  0.00     0.274 HD
ENDBRANCH   8   9
ENDBRANCH   7   8
BRANCH   1  13
HETATM   13  C2  UNL     1      17.091  46.316  70.137  1.00  0.00     0.174 C 
BRANCH  13  14
HETATM   14  O1  UNL     1      18.035  45.792  69.302  1.00  0.00    -0.395 OA
HETATM   15  C1  UNL     1      19.287  46.011  69.874  1.00  0.00     0.201 C 
ENDBRANCH  13  14
ENDBRANCH   1  13
TORSDOF 4
ENDMDL
MODEL 5
REMARK VINA RESULT: -5.063442066      1.495      3.588
REMARK  4 active torsions:
REMARK  status: ('A' for Active; 'I' for Inactive)
REMARK    1  A    between atoms: O1_2  and  C2_3 
REMARK    2  A    between atoms: C2_3  and  C3_4 
REMARK    3  A    between atoms: C8_10  and  C9_11 
REMARK    4  A    between atoms: C9_11  and  N1_12 
ROOT
HETATM    1  C3  UNL     1      15.762  49.040  68.554  1.00  0.00     0.044 C 
HETATM    2  C4  UNL     1      16.707  48.722  67.449  1.00  0.00    -0.008 C 
HETATM    3  C5  UNL     1      17.809  49.790  67.429  1.00  0.00     0.010 C 
HETATM    4  C6  UNL     1      17.319  47.382  67.454  1.00  0.00     0.031 C 
HETATM    5  C7  UNL     1      16.497  46.332  68.169  1.00  0.00     0.168 C 
HETATM    6  O2  UNL     1      16.097  46.873  69.366  1.00  0.00    -0.384 OA
HETATM    7  C8  UNL     1      15.114  47.869  69.189  1.00  0.00     0.153 C 
ENDROOT
BRANCH   7   8
HETATM    8  C9  UNL     1      14.609  48.115  70.585  1.00  0.00     0.261 C 
BRANCH   8   9
HETATM    9  N1  UNL     1      13.653  47.118  71.004  1.00  0.00    -0.077 N 
ATOM     10  H13 UNL     1      12.753  47.254  70.544  1.00  0.00     0.274 HD
ATOM     11  H12 UNL     1      13.890  46.200  70.629  1.00  0.00     0.274 HD
ATOM     12  H11 UNL     1      13.548  47.086  72.018  1.00  0.00     0.274 HD
ENDBRANCH   8   9
ENDBRANCH   7   8
BRANCH   1  13
HETATM   13  C2  UNL     1      14.804  50.078  68.026  1.00  0.00     0.174 C 
BRANCH  13  14
HETATM   14  O1  UNL     1      14.860  51.282  68.668  1.00  0.00    -0.395 OA
HETATM   15  C1  UNL     1      15.194  52.256  67.729  1.00  0.00     0.201 C 
ENDBRANCH  13  14
ENDBRANCH   1  13
TORSDOF 4
ENDMDL
