MODEL 1
REMARK VINA RESULT: -5.360940852      0.000      0.000
REMARK  2 active torsions:
REMARK  status: ('A' for Active; 'I' for Inactive)
REMARK    1  A    between atoms: N1_2  and  C2_5 
REMARK    2  A    between atoms: C2_5  and  C3_6 
ROOT
HETATM    1  C3  UNL     1      14.952  50.032  68.337  1.00  0.00     0.017 C 
HETATM    2  C4  UNL     1      15.632  48.843  67.694  1.00  0.00     0.007 C 
HETATM    3  C5  UNL     1      16.173  49.481  66.429  1.00  0.00     0.007 C 
HETATM    4  C6  UNL     1      16.540  50.874  66.826  1.00  0.00     0.017 C 
HETATM    5  C7  UNL     1      15.882  51.924  65.958  1.00  0.00     0.237 C 
HETATM    6  N2  UNL     1      14.780  52.387  66.770  1.00  0.00    -0.074 N 
ATOM      7  H21 UNL     1      13.938  51.812  66.725  1.00  0.00     0.277 HD
ATOM      8  H22 UNL     1      14.330  53.242  66.441  1.00  0.00     0.277 HD
HETATM    9  C8  UNL     1      15.396  52.482  68.096  1.00  0.00     0.237 C 
HETATM   10  C9  UNL     1      15.993  51.092  68.228  1.00  0.00     0.022 C 
ENDROOT
BRANCH   1  11
HETATM   11  C2  UNL     1      14.495  49.746  69.731  1.00  0.00     0.237 C 
BRANCH  11  12
HETATM   12  N1  UNL     1      13.664  48.596  69.854  1.00  0.00    -0.079 N 
HETATM   13  C1  UNL     1      14.228  47.767  70.929  1.00  0.00     0.267 C 
ATOM     14  H12 UNL     1      13.549  48.090  68.976  1.00  0.00     0.276 HD
ATOM     15  H11 UNL     1      12.681  48.827  70.000  1.00  0.00     0.276 HD
ENDBRANCH  11  12
ENDBRANCH   1  11
TORSDOF 2
ENDMDL
MODEL 2
REMARK VINA RESULT: -5.332843489      1.914      4.712
REMARK  2 active torsions:
REMARK  status: ('A' for Active; 'I' for Inactive)
REMARK    1  A    between atoms: N1_2  and  C2_5 
REMARK    2  A    between atoms: C2_5  and  C3_6 
ROOT
HETATM    1  C3  UNL     1      15.266  48.811  68.753  1.00  0.00     0.017 C 
HETATM    2  C4  UNL     1      14.313  49.348  69.799  1.00  0.00     0.007 C 
HETATM    3  C5  UNL     1      14.555  48.366  70.929  1.00  0.00     0.007 C 
HETATM    4  C6  UNL     1      16.006  48.023  70.837  1.00  0.00     0.017 C 
HETATM    5  C7  UNL     1      16.253  46.534  70.739  1.00  0.00     0.237 C 
HETATM    6  N2  UNL     1      16.504  46.328  69.330  1.00  0.00    -0.074 N 
ATOM      7  H21 UNL     1      15.669  46.236  68.751  1.00  0.00     0.277 HD
ATOM      8  H22 UNL     1      16.890  45.415  69.089  1.00  0.00     0.277 HD
HETATM    9  C8  UNL     1      17.362  47.470  69.003  1.00  0.00     0.237 C 
HETATM   10  C9  UNL     1      16.519  48.616  69.534  1.00  0.00     0.022 C 
ENDROOT
BRANCH   1  11
HETATM   11  C2  UNL     1      15.399  49.724  67.577  1.00  0.00     0.237 C 
BRANCH  11  12
HETATM   12  N1  UNL     1      14.563  50.876  67.628  1.00  0.00    -0.079 N 
HETATM   13  C1  UNL     1      15.254  51.945  66.891  1.00  0.00     0.267 C 
ATOM     14  H12 UNL     1      14.310  51.144  68.579  1.00  0.00     0.276 HD
ATOM     15  H11 UNL     1      13.619  50.700  67.287  1.00  0.00     0.276 HD
ENDBRANCH  11  12
ENDBRANCH   1  11
TORSDOF 2
ENDMDL
MODEL 3
REMARK VINA RESULT: -5.260120697      2.544      3.486
REMARK  2 active torsions:
REMARK  status: ('A' for Active; 'I' for Inactive)
REMARK    1  A    between atoms: N1_2  and  C2_5 
REMARK    2  A    between atoms: C2_5  and  C3_6 
ROOT
HETATM    1  C3  UNL     1      16.184  47.433  68.705  1.00  0.00     0.017 C 
HETATM    2  C4  UNL     1      16.760  47.541  67.311  1.00  0.00     0.007 C 
HETATM    3  C5  UNL     1      16.021  48.760  66.795  1.00  0.00     0.007 C 
HETATM    4  C6  UNL     1      15.859  49.645  67.988  1.00  0.00     0.017 C 
HETATM    5  C7  UNL     1      14.418  50.035  68.238  1.00  0.00     0.237 C 
HETATM    6  N2  UNL     1      14.014  49.153  69.310  1.00  0.00    -0.074 N 
ATOM      7  H21 UNL     1      13.719  48.222  69.015  1.00  0.00     0.277 HD
ATOM      8  H22 UNL     1      13.131  49.396  69.760  1.00  0.00     0.277 HD
HETATM    9  C8  UNL     1      15.186  49.183  70.188  1.00  0.00     0.237 C 
HETATM   10  C9  UNL     1      16.286  48.834  69.202  1.00  0.00     0.022 C 
ENDROOT
BRANCH   1  11
HETATM   11  C2  UNL     1      16.896  46.421  69.543  1.00  0.00     0.237 C 
BRANCH  11  12
HETATM   12  N1  UNL     1      18.089  46.900  70.157  1.00  0.00    -0.079 N 
HETATM   13  C1  UNL     1      19.167  45.968  69.790  1.00  0.00     0.267 C 
ATOM     14  H12 UNL     1      17.997  47.029  71.164  1.00  0.00     0.276 HD
ATOM     15  H11 UNL     1      18.300  47.869  69.919  1.00  0.00     0.276 HD
ENDBRANCH  11  12
ENDBRANCH   1  11
TORSDOF 2
ENDMDL
MODEL 4
REMARK VINA RESULT: -5.231208812      2.483      4.634
REMARK  2 active torsions:
REMARK  status: ('A' for Active; 'I' for Inactive)
REMARK    1  A    between atoms: N1_2  and  C2_5 
REMARK    2  A    between atoms: C2_5  and  C3_6 
ROOT
HETATM    1  C3  UNL     1      16.374  48.651  68.816  1.00  0.00     0.017 C 
HETATM    2  C4  UNL     1      15.473  49.775  68.355  1.00  0.00     0.007 C 
HETATM    3  C5  UNL     1      14.286  49.581  69.279  1.00  0.00     0.007 C 
HETATM    4  C6  UNL     1      14.875  49.103  70.566  1.00  0.00     0.017 C 
HETATM    5  C7  UNL     1      14.268  47.801  71.041  1.00  0.00     0.237 C 
HETATM    6  N2  UNL     1      15.255  46.814  70.661  1.00  0.00    -0.074 N 
ATOM      7  H21 UNL     1      15.198  46.496  69.693  1.00  0.00     0.277 HD
ATOM      8  H22 UNL     1      15.122  45.890  71.074  1.00  0.00     0.277 HD
HETATM    9  C8  UNL     1      16.508  47.481  71.023  1.00  0.00     0.237 C 
HETATM   10  C9  UNL     1      16.341  48.804  70.298  1.00  0.00     0.022 C 
ENDROOT
BRANCH   1  11
HETATM   11  C2  UNL     1      17.738  48.724  68.211  1.00  0.00     0.237 C 
BRANCH  11  12
HETATM   12  N1  UNL     1      17.935  47.859  67.096  1.00  0.00    -0.079 N 
HETATM   13  C1  UNL     1      17.126  46.654  67.337  1.00  0.00     0.267 C 
ATOM     14  H12 UNL     1      18.917  47.653  66.919  1.00  0.00     0.276 HD
ATOM     15  H11 UNL     1      17.731  48.305  66.202  1.00  0.00     0.276 HD
ENDBRANCH  11  12
ENDBRANCH   1  11
TORSDOF 2
ENDMDL
MODEL 5
REMARK VINA RESULT: -5.165440751      2.781      4.821
REMARK  2 active torsions:
REMARK  status: ('A' for Active; 'I' for Inactive)
REMARK    1  A    between atoms: N1_2  and  C2_5 
REMARK    2  A    between atoms: C2_5  and  C3_6 
ROOT
HETATM    1  C3  UNL     1      16.075  47.375  68.396  1.00  0.00     0.017 C 
HETATM    2  C4  UNL     1      15.939  48.689  67.659  1.00  0.00     0.007 C 
HETATM    3  C5  UNL     1      15.052  49.458  68.618  1.00  0.00     0.007 C 
HETATM    4  C6  UNL     1      15.468  49.000  69.978  1.00  0.00     0.017 C 
HETATM    5  C7  UNL     1      14.311  48.476  70.800  1.00  0.00     0.237 C 
HETATM    6  N2  UNL     1      14.446  47.041  70.691  1.00  0.00    -0.074 N 
ATOM      7  H21 UNL     1      14.041  46.632  69.847  1.00  0.00     0.277 HD
ATOM      8  H22 UNL     1      13.874  46.502  71.342  1.00  0.00     0.277 HD
HETATM    9  C8  UNL     1      15.892  46.858  70.837  1.00  0.00     0.237 C 
HETATM   10  C9  UNL     1      16.405  47.819  69.780  1.00  0.00     0.022 C 
ENDROOT
BRANCH   1  11
HETATM   11  C2  UNL     1      17.089  46.470  67.773  1.00  0.00     0.237 C 
BRANCH  11  12
HETATM   12  N1  UNL     1      18.392  46.569  68.340  1.00  0.00    -0.079 N 
HETATM   13  C1  UNL     1      19.348  46.148  67.304  1.00  0.00     0.267 C 
ATOM     14  H12 UNL     1      18.490  46.046  69.210  1.00  0.00     0.276 HD
ATOM     15  H11 UNL     1      18.595  47.493  68.719  1.00  0.00     0.276 HD
ENDBRANCH  11  12
ENDBRANCH   1  11
TORSDOF 2
ENDMDL
