MODEL 1
REMARK VINA RESULT: -5.093520994      0.000      0.000
REMARK  2 active torsions:
REMARK  status: ('A' for Active; 'I' for Inactive)
REMARK    1  A    between atoms: C3_3  and  C4_4 
REMARK    2  A    between atoms: C6_7  and  O1_8 
ROOT
HETATM    1  C1  UNL     1      15.363  52.290  68.147  1.00  0.00     0.015 C 
HETATM    2  C2  UNL     1      15.348  51.097  68.315  1.00  0.00    -0.077 C 
HETATM    3  C3  UNL     1      15.330  49.665  68.542  1.00  0.00     0.198 C 
HETATM    4  C5  UNL     1      16.317  49.268  69.597  1.00  0.00     0.086 C 
HETATM    5  C6  UNL     1      15.388  48.916  70.766  1.00  0.00     0.149 C 
HETATM    6  C8  UNL     1      14.243  48.262  69.985  1.00  0.00     0.266 C 
HETATM    7  N1  UNL     1      14.023  49.286  68.978  1.00  0.00    -0.052 N 
ATOM      8  H11 UNL     1      13.404  48.995  68.221  1.00  0.00     0.279 HD
ATOM      9  H12 UNL     1      13.452  50.068  69.302  1.00  0.00     0.279 HD
ENDROOT
BRANCH   3  10
HETATM   10  C4  UNL     1      15.624  48.901  67.258  1.00  0.00     0.138 C 
HETATM   11  S1  UNL     1      17.268  48.138  67.484  1.00  0.00    -0.094 SA
ENDBRANCH   3  10
BRANCH   5  12
HETATM   12  O1  UNL     1      15.969  48.066  71.663  1.00  0.00    -0.389 OA
HETATM   13  C7  UNL     1      16.184  46.834  71.002  1.00  0.00     0.202 C 
ENDBRANCH   5  12
TORSDOF 2
ENDMDL
MODEL 2
REMARK VINA RESULT: -5.043243951      1.826      2.189
REMARK  2 active torsions:
REMARK  status: ('A' for Active; 'I' for Inactive)
REMARK    1  A    between atoms: C3_3  and  C4_4 
REMARK    2  A    between atoms: C6_7  and  O1_8 
ROOT
HETATM    1  C1  UNL     1      15.770  49.279  66.857  1.00  0.00     0.015 C 
HETATM    2  C2  UNL     1      15.850  48.584  67.838  1.00  0.00    -0.077 C 
HETATM    3  C3  UNL     1      15.939  47.767  69.032  1.00  0.00     0.198 C 
HETATM    4  C5  UNL     1      16.659  48.485  70.132  1.00  0.00     0.086 C 
HETATM    5  C6  UNL     1      15.506  48.802  71.094  1.00  0.00     0.149 C 
HETATM    6  C8  UNL     1      14.685  47.518  70.929  1.00  0.00     0.266 C 
HETATM    7  N1  UNL     1      14.616  47.460  69.478  1.00  0.00    -0.052 N 
ATOM      8  H11 UNL     1      14.252  46.579  69.117  1.00  0.00     0.279 HD
ATOM      9  H12 UNL     1      13.895  48.059  69.075  1.00  0.00     0.279 HD
ENDROOT
BRANCH   3  10
HETATM   10  C4  UNL     1      16.642  46.446  68.744  1.00  0.00     0.138 C 
HETATM   11  S1  UNL     1      18.342  46.622  69.385  1.00  0.00    -0.094 SA
ENDBRANCH   3  10
BRANCH   5  12
HETATM   12  O1  UNL     1      15.929  48.998  72.378  1.00  0.00    -0.389 OA
HETATM   13  C7  UNL     1      17.278  48.581  72.447  1.00  0.00     0.202 C 
ENDBRANCH   5  12
TORSDOF 2
ENDMDL
MODEL 3
REMARK VINA RESULT: -4.925817755      3.023      3.800
REMARK  2 active torsions:
REMARK  status: ('A' for Active; 'I' for Inactive)
REMARK    1  A    between atoms: C3_3  and  C4_4 
REMARK    2  A    between atoms: C6_7  and  O1_8 
ROOT
HETATM    1  C1  UNL     1      16.915  48.818  72.152  1.00  0.00     0.015 C 
HETATM    2  C2  UNL     1      16.835  48.571  70.975  1.00  0.00    -0.077 C 
HETATM    3  C3  UNL     1      16.754  48.253  69.563  1.00  0.00     0.198 C 
HETATM    4  C5  UNL     1      18.099  47.898  69.005  1.00  0.00     0.086 C 
HETATM    5  C6  UNL     1      17.953  46.385  68.797  1.00  0.00     0.149 C 
HETATM    6  C8  UNL     1      16.491  46.337  68.341  1.00  0.00     0.266 C 
HETATM    7  N1  UNL     1      15.883  47.132  69.394  1.00  0.00    -0.052 N 
ATOM      8  H11 UNL     1      14.912  47.387  69.211  1.00  0.00     0.279 HD
ATOM      9  H12 UNL     1      15.707  46.612  70.254  1.00  0.00     0.279 HD
ENDROOT
BRANCH   3  10
HETATM   10  C4  UNL     1      16.166  49.413  68.771  1.00  0.00     0.138 C 
HETATM   11  S1  UNL     1      14.372  49.405  69.110  1.00  0.00    -0.094 SA
ENDBRANCH   3  10
BRANCH   5  12
HETATM   12  O1  UNL     1      18.816  45.896  67.859  1.00  0.00    -0.389 OA
HETATM   13  C7  UNL     1      20.103  45.859  68.445  1.00  0.00     0.202 C 
ENDBRANCH   5  12
TORSDOF 2
ENDMDL
MODEL 4
REMARK VINA RESULT: -4.896871409      2.834      3.914
REMARK  2 active torsions:
REMARK  status: ('A' for Active; 'I' for Inactive)
REMARK    1  A    between atoms: C3_3  and  C4_4 
REMARK    2  A    between atoms: C6_7  and  O1_8 
ROOT
HETATM    1  C1  UNL     1      17.136  48.625  72.365  1.00  0.00     0.015 C 
HETATM    2  C2  UNL     1      16.666  48.348  71.291  1.00  0.00    -0.077 C 
HETATM    3  C3  UNL     1      16.125  48.009  69.989  1.00  0.00     0.198 C 
HETATM    4  C5  UNL     1      16.896  48.671  68.888  1.00  0.00     0.086 C 
HETATM    5  C6  UNL     1      17.646  47.478  68.282  1.00  0.00     0.149 C 
HETATM    6  C8  UNL     1      16.559  46.407  68.415  1.00  0.00     0.266 C 
HETATM    7  N1  UNL     1      16.207  46.592  69.813  1.00  0.00    -0.052 N 
ATOM      8  H11 UNL     1      15.365  46.091  70.097  1.00  0.00     0.279 HD
ATOM      9  H12 UNL     1      16.843  46.131  70.463  1.00  0.00     0.279 HD
ENDROOT
BRANCH   3  10
HETATM   10  C4  UNL     1      14.656  48.399  69.887  1.00  0.00     0.138 C 
HETATM   11  S1  UNL     1      14.581  49.803  68.721  1.00  0.00    -0.094 SA
ENDBRANCH   3  10
BRANCH   5  12
HETATM   12  O1  UNL     1      18.020  47.694  66.986  1.00  0.00    -0.389 OA
HETATM   13  C7  UNL     1      17.862  49.075  66.724  1.00  0.00     0.202 C 
ENDBRANCH   5  12
TORSDOF 2
ENDMDL
MODEL 5
REMARK VINA RESULT: -4.850102262      2.448      3.919
REMARK  2 active torsions:
REMARK  status: ('A' for Active; 'I' for Inactive)
REMARK    1  A    between atoms: C3_3  and  C4_4 
REMARK    2  A    between atoms: C6_7  and  O1_8 
ROOT
HETATM    1  C1  UNL     1      18.214  46.402  68.234  1.00  0.00     0.015 C 
HETATM    2  C2  UNL     1      17.417  46.839  69.026  1.00  0.00    -0.077 C 
HETATM    3  C3  UNL     1      16.447  47.378  69.959  1.00  0.00     0.198 C 
HETATM    4  C5  UNL     1      16.218  48.840  69.724  1.00  0.00     0.086 C 
HETATM    5  C6  UNL     1      14.812  48.832  69.110  1.00  0.00     0.149 C 
HETATM    6  C8  UNL     1      14.184  47.708  69.940  1.00  0.00     0.266 C 
HETATM    7  N1  UNL     1      15.207  46.689  69.780  1.00  0.00    -0.052 N 
ATOM      8  H11 UNL     1      15.089  45.885  70.396  1.00  0.00     0.279 HD
ATOM      9  H12 UNL     1      15.143  46.174  68.901  1.00  0.00     0.279 HD
ENDROOT
BRANCH   3  10
HETATM   10  C4  UNL     1      16.890  47.158  71.399  1.00  0.00     0.138 C 
HETATM   11  S1  UNL     1      16.944  48.811  72.174  1.00  0.00    -0.094 SA
ENDBRANCH   3  10
BRANCH   5  12
HETATM   12  O1  UNL     1      14.165  50.026  69.260  1.00  0.00    -0.389 OA
HETATM   13  C7  UNL     1      14.892  50.996  68.533  1.00  0.00     0.202 C 
ENDBRANCH   5  12
TORSDOF 2
ENDMDL
