MODEL 1
REMARK VINA RESULT: -5.698091051      0.000      0.000
REMARK  2 active torsions:
REMARK  status: ('A' for Active; 'I' for Inactive)
REMARK    1  A    between atoms: C3_6  and  C4_7 
REMARK    2  A    between atoms: C4_7  and  C5_8 
ROOT
HETATM    1  C1  UNL     1      14.532  48.997  70.599  1.00  0.00     0.259 C 
HETATM    2  C2  UNL     1      14.381  47.525  70.853  1.00  0.00     0.260 C 
HETATM    3  N1  UNL     1      15.029  46.759  69.801  1.00  0.00    -0.068 N 
ATOM      4  H11 UNL     1      14.658  46.966  68.874  1.00  0.00     0.277 HD
ATOM      5  H12 UNL     1      14.785  45.769  69.825  1.00  0.00     0.277 HD
HETATM    6  C3  UNL     1      16.437  46.987  69.900  1.00  0.00     0.211 C 
HETATM    7  C9  UNL     1      16.799  48.443  69.999  1.00  0.00     0.265 C 
HETATM    8  N2  UNL     1      15.665  49.320  69.779  1.00  0.00    -0.072 N 
ATOM      9  H21 UNL     1      15.933  50.297  69.900  1.00  0.00     0.277 HD
ATOM     10  H22 UNL     1      15.405  49.337  68.793  1.00  0.00     0.277 HD
ENDROOT
BRANCH   6  11
HETATM   11  C4  UNL     1      17.251  46.370  68.810  1.00  0.00     0.041 C 
BRANCH  11  12
HETATM   12  C5  UNL     1      18.740  46.653  68.953  1.00  0.00     0.013 C 
HETATM   13  C6  UNL     1      19.430  46.335  67.642  1.00  0.00     0.033 C 
HETATM   14  C7  UNL     1      20.643  45.524  68.050  1.00  0.00     0.168 C 
HETATM   15  O1  UNL     1      20.741  45.711  69.412  1.00  0.00    -0.391 OA
HETATM   16  C8  UNL     1      19.414  45.692  69.896  1.00  0.00     0.172 C 
ENDBRANCH  11  12
ENDBRANCH   6  11
TORSDOF 2
ENDMDL
MODEL 2
REMARK VINA RESULT: -5.671384853      3.372      5.073
REMARK  2 active torsions:
REMARK  status: ('A' for Active; 'I' for Inactive)
REMARK    1  A    between atoms: C3_6  and  C4_7 
REMARK    2  A    between atoms: C4_7  and  C5_8 
ROOT
HETATM    1  C1  UNL     1      16.521  46.635  71.003  1.00  0.00     0.259 C 
HETATM    2  C2  UNL     1      16.821  48.031  71.468  1.00  0.00     0.260 C 
HETATM    3  N1  UNL     1      16.443  48.997  70.450  1.00  0.00    -0.068 N 
ATOM      4  H11 UNL     1      16.920  48.844  69.561  1.00  0.00     0.277 HD
ATOM      5  H12 UNL     1      16.806  49.932  70.637  1.00  0.00     0.277 HD
HETATM    6  C3  UNL     1      15.018  48.968  70.328  1.00  0.00     0.211 C 
HETATM    7  C9  UNL     1      14.462  47.580  70.184  1.00  0.00     0.265 C 
HETATM    8  N2  UNL     1      15.493  46.576  70.004  1.00  0.00    -0.072 N 
ATOM      9  H21 UNL     1      15.086  45.642  69.957  1.00  0.00     0.277 HD
ATOM     10  H22 UNL     1      15.894  46.633  69.067  1.00  0.00     0.277 HD
ENDROOT
BRANCH   6  11
HETATM   11  C4  UNL     1      14.465  49.817  69.230  1.00  0.00     0.041 C 
BRANCH  11  12
HETATM   12  C5  UNL     1      15.550  50.437  68.360  1.00  0.00     0.013 C 
HETATM   13  C6  UNL     1      15.201  51.887  68.096  1.00  0.00     0.033 C 
HETATM   14  C7  UNL     1      15.418  52.054  66.606  1.00  0.00     0.168 C 
HETATM   15  O1  UNL     1      16.123  50.930  66.231  1.00  0.00    -0.391 OA
HETATM   16  C8  UNL     1      15.559  49.864  66.968  1.00  0.00     0.172 C 
ENDBRANCH  11  12
ENDBRANCH   6  11
TORSDOF 2
ENDMDL
MODEL 3
REMARK VINA RESULT: -5.593760459      3.361      4.448
REMARK  2 active torsions:
REMARK  status: ('A' for Active; 'I' for Inactive)
REMARK    1  A    between atoms: C3_6  and  C4_7 
REMARK    2  A    between atoms: C4_7  and  C5_8 
ROOT
HETATM    1  C1  UNL     1      16.025  51.052  66.649  1.00  0.00     0.259 C 
HETATM    2  C2  UNL     1      15.689  51.659  67.980  1.00  0.00     0.260 C 
HETATM    3  N1  UNL     1      14.696  50.852  68.670  1.00  0.00    -0.068 N 
ATOM      4  H11 UNL     1      13.833  50.744  68.137  1.00  0.00     0.277 HD
ATOM      5  H12 UNL     1      14.295  51.324  69.480  1.00  0.00     0.277 HD
HETATM    6  C3  UNL     1      15.304  49.600  69.001  1.00  0.00     0.211 C 
HETATM    7  C9  UNL     1      16.013  48.958  67.842  1.00  0.00     0.265 C 
HETATM    8  N2  UNL     1      15.769  49.641  66.585  1.00  0.00    -0.072 N 
ATOM      9  H21 UNL     1      16.300  49.209  65.829  1.00  0.00     0.277 HD
ATOM     10  H22 UNL     1      14.822  49.459  66.251  1.00  0.00     0.277 HD
ENDROOT
BRANCH   6  11
HETATM   11  C4  UNL     1      14.380  48.595  69.609  1.00  0.00     0.041 C 
BRANCH  11  12
HETATM   12  C5  UNL     1      14.908  48.026  70.919  1.00  0.00     0.013 C 
HETATM   13  C6  UNL     1      15.802  49.055  71.577  1.00  0.00     0.033 C 
HETATM   14  C7  UNL     1      17.030  48.269  71.990  1.00  0.00     0.168 C 
HETATM   15  O1  UNL     1      16.651  46.949  71.870  1.00  0.00    -0.391 OA
HETATM   16  C8  UNL     1      15.863  46.884  70.698  1.00  0.00     0.172 C 
ENDBRANCH  11  12
ENDBRANCH   6  11
TORSDOF 2
ENDMDL
MODEL 4
REMARK VINA RESULT: -5.454819052      2.946      5.191
REMARK  2 active torsions:
REMARK  status: ('A' for Active; 'I' for Inactive)
REMARK    1  A    between atoms: C3_6  and  C4_7 
REMARK    2  A    between atoms: C4_7  and  C5_8 
ROOT
HETATM    1  C1  UNL     1      20.247  45.813  68.054  1.00  0.00     0.259 C 
HETATM    2  C2  UNL     1      19.199  46.558  67.279  1.00  0.00     0.260 C 
HETATM    3  N1  UNL     1      17.880  46.306  67.836  1.00  0.00    -0.068 N 
ATOM      4  H11 UNL     1      17.635  45.316  67.841  1.00  0.00     0.277 HD
ATOM      5  H12 UNL     1      17.126  46.629  67.230  1.00  0.00     0.277 HD
HETATM    6  C3  UNL     1      17.837  46.895  69.139  1.00  0.00     0.211 C 
HETATM    7  C9  UNL     1      19.016  46.531  69.997  1.00  0.00     0.265 C 
HETATM    8  N2  UNL     1      19.851  45.506  69.399  1.00  0.00    -0.072 N 
ATOM      9  H21 UNL     1      20.665  45.316  69.983  1.00  0.00     0.277 HD
ATOM     10  H22 UNL     1      19.395  44.595  69.443  1.00  0.00     0.277 HD
ENDROOT
BRANCH   6  11
HETATM   11  C4  UNL     1      16.587  46.622  69.910  1.00  0.00     0.041 C 
BRANCH  11  12
HETATM   12  C5  UNL     1      15.377  47.362  69.354  1.00  0.00     0.013 C 
HETATM   13  C6  UNL     1      15.741  48.818  69.153  1.00  0.00     0.033 C 
HETATM   14  C7  UNL     1      14.577  49.577  69.755  1.00  0.00     0.168 C 
HETATM   15  O1  UNL     1      13.593  48.626  69.920  1.00  0.00    -0.391 OA
HETATM   16  C8  UNL     1      14.260  47.460  70.358  1.00  0.00     0.172 C 
ENDBRANCH  11  12
ENDBRANCH   6  11
TORSDOF 2
ENDMDL
MODEL 5
REMARK VINA RESULT: -5.441936635      0.983      1.356
REMARK  2 active torsions:
REMARK  status: ('A' for Active; 'I' for Inactive)
REMARK    1  A    between atoms: C3_6  and  C4_7 
REMARK    2  A    between atoms: C4_7  and  C5_8 
ROOT
HETATM    1  C1  UNL     1      14.269  48.185  71.245  1.00  0.00     0.259 C 
HETATM    2  C2  UNL     1      15.678  48.677  71.405  1.00  0.00     0.260 C 
HETATM    3  N1  UNL     1      16.624  47.654  70.987  1.00  0.00    -0.068 N 
ATOM      4  H11 UNL     1      16.524  46.784  71.511  1.00  0.00     0.277 HD
ATOM      5  H12 UNL     1      17.583  47.866  71.261  1.00  0.00     0.277 HD
HETATM    6  C3  UNL     1      16.475  47.473  69.576  1.00  0.00     0.211 C 
HETATM    7  C9  UNL     1      15.046  47.291  69.147  1.00  0.00     0.265 C 
HETATM    8  N2  UNL     1      14.137  47.143  70.267  1.00  0.00    -0.072 N 
ATOM      9  H21 UNL     1      13.172  47.069  69.943  1.00  0.00     0.277 HD
ATOM     10  H22 UNL     1      14.240  46.225  70.699  1.00  0.00     0.277 HD
ENDROOT
BRANCH   6  11
HETATM   11  C4  UNL     1      17.289  46.362  68.997  1.00  0.00     0.041 C 
BRANCH  11  12
HETATM   12  C5  UNL     1      18.787  46.630  69.067  1.00  0.00     0.013 C 
HETATM   13  C6  UNL     1      19.398  46.367  67.707  1.00  0.00     0.033 C 
HETATM   14  C7  UNL     1      20.626  45.532  68.008  1.00  0.00     0.168 C 
HETATM   15  O1  UNL     1      20.803  45.657  69.370  1.00  0.00    -0.391 OA
HETATM   16  C8  UNL     1      19.504  45.625  69.927  1.00  0.00     0.172 C 
ENDBRANCH  11  12
ENDBRANCH   6  11
TORSDOF 2
ENDMDL
