MODEL 1
REMARK VINA RESULT: -7.589485408      0.000      0.000
REMARK  4 active torsions:
REMARK  status: ('A' for Active; 'I' for Inactive)
REMARK    1  A    between atoms: N1_1  and  C1_4 
REMARK    2  A    between atoms: C2_9  and  C3_10 
REMARK    3  A    between atoms: C5_15  and  C6_16 
REMARK    4  A    between atoms: N6_17  and  O1_19 
ROOT
HETATM    1  C3  UNL     1      14.592  20.723  11.708  1.00  0.00     0.115 A 
HETATM    2  N4  UNL     1      14.536  21.788  12.585  1.00  0.00    -0.284 N 
ATOM      3  H4  UNL     1      15.297  22.443  12.768  1.00  0.00     0.188 HD
HETATM    4  N5  UNL     1      13.349  21.826  13.146  1.00  0.00    -0.198 N 
HETATM    5  C4  UNL     1      12.586  20.826  12.687  1.00  0.00     0.143 A 
HETATM    6  C5  UNL     1      13.373  20.101  11.756  1.00  0.00     0.048 A 
HETATM    7  C7  UNL     1      11.270  20.876  13.317  1.00  0.00     0.279 A 
HETATM    8  O2  UNL     1      10.291  20.102  13.135  1.00  0.00    -0.265 OA
HETATM    9  N7  UNL     1      11.336  22.004  14.192  1.00  0.00    -0.272 N 
ATOM     10  H7  UNL     1      10.578  22.328  14.792  1.00  0.00     0.174 HD
HETATM   11  C8  UNL     1      12.621  22.605  14.096  1.00  0.00     0.349 A 
HETATM   12  O3  UNL     1      13.027  23.627  14.732  1.00  0.00    -0.245 OA
ENDROOT
BRANCH   1  13
HETATM   13  C2  UNL     1      15.757  20.385  10.915  1.00  0.00     0.195 A 
HETATM   14  N3  UNL     1      16.573  21.352  10.374  1.00  0.00    -0.275 N 
HETATM   15  N2  UNL     1      17.552  20.799   9.706  1.00  0.00    -0.263 N 
ATOM     16  H3  UNL     1      16.434  22.358  10.479  1.00  0.00     0.189 HD
HETATM   17  C1  UNL     1      17.372  19.463   9.811  1.00  0.00     0.238 A 
ATOM     18  H2  UNL     1      18.300  21.279   9.207  1.00  0.00     0.190 HD
HETATM   19  O4  UNL     1      16.314  19.285  10.525  1.00  0.00    -0.258 OA
BRANCH  17  20
HETATM   20  N1  UNL     1      18.135  18.569   9.284  1.00  0.00    -0.364 N 
ATOM     21  H12 UNL     1      18.660  18.625   8.412  1.00  0.00     0.159 HD
ATOM     22  H11 UNL     1      18.324  17.650   9.684  1.00  0.00     0.159 HD
ENDBRANCH  17  20
ENDBRANCH   1  13
BRANCH   6  23
HETATM   23  C6  UNL     1      12.911  18.938  11.030  1.00  0.00     0.130 C 
HETATM   24  N6  UNL     1      11.724  18.545  10.832  1.00  0.00    -0.280 N 
ATOM     25  H6  UNL     1      10.965  19.102  11.225  1.00  0.00     0.193 HD
BRANCH  24  26
HETATM   26  O1  UNL     1      11.393  17.421  10.125  1.00  0.00    -0.290 OA
ATOM     27  H1  UNL     1      11.225  17.408   9.190  1.00  0.00     0.244 HD
ENDBRANCH  24  26
ENDBRANCH   6  23
TORSDOF 4
ENDMDL
MODEL 2
REMARK VINA RESULT: -7.376840522      1.498      3.699
REMARK  4 active torsions:
REMARK  status: ('A' for Active; 'I' for Inactive)
REMARK    1  A    between atoms: N1_1  and  C1_4 
REMARK    2  A    between atoms: C2_9  and  C3_10 
REMARK    3  A    between atoms: C5_15  and  C6_16 
REMARK    4  A    between atoms: N6_17  and  O1_19 
ROOT
HETATM    1  C3  UNL     1      15.044  20.173  11.273  1.00  0.00     0.115 A 
HETATM    2  N4  UNL     1      14.255  19.147  10.793  1.00  0.00    -0.284 N 
ATOM      3  H4  UNL     1      14.550  18.441  10.118  1.00  0.00     0.188 HD
HETATM    4  N5  UNL     1      13.064  19.224  11.342  1.00  0.00    -0.198 N 
HETATM    5  C4  UNL     1      13.005  20.264  12.182  1.00  0.00     0.143 A 
HETATM    6  C5  UNL     1      14.277  20.891  12.151  1.00  0.00     0.048 A 
HETATM    7  C7  UNL     1      11.679  20.340  12.787  1.00  0.00     0.279 A 
HETATM    8  O2  UNL     1      11.253  21.183  13.623  1.00  0.00    -0.265 OA
HETATM    9  N7  UNL     1      10.964  19.242  12.217  1.00  0.00    -0.272 N 
ATOM     10  H7  UNL     1       9.995  19.000  12.425  1.00  0.00     0.174 HD
HETATM   11  C8  UNL     1      11.811  18.538  11.318  1.00  0.00     0.349 A 
HETATM   12  O3  UNL     1      11.504  17.509  10.638  1.00  0.00    -0.245 OA
ENDROOT
BRANCH   1  13
HETATM   13  C2  UNL     1      16.421  20.390  10.878  1.00  0.00     0.195 A 
HETATM   14  N3  UNL     1      16.892  20.005   9.643  1.00  0.00    -0.275 N 
HETATM   15  N2  UNL     1      18.159  20.309   9.526  1.00  0.00    -0.263 N 
ATOM     16  H3  UNL     1      16.333  19.549   8.922  1.00  0.00     0.189 HD
HETATM   17  C1  UNL     1      18.517  20.893  10.691  1.00  0.00     0.238 A 
ATOM     18  H2  UNL     1      18.757  20.139   8.717  1.00  0.00     0.190 HD
HETATM   19  O4  UNL     1      17.465  20.912  11.436  1.00  0.00    -0.258 OA
BRANCH  17  20
HETATM   20  N1  UNL     1      19.695  21.335  10.968  1.00  0.00    -0.364 N 
ATOM     21  H12 UNL     1      20.595  20.922  10.726  1.00  0.00     0.159 HD
ATOM     22  H11 UNL     1      19.893  22.191  11.486  1.00  0.00     0.159 HD
ENDBRANCH  17  20
ENDBRANCH   1  13
BRANCH   6  23
HETATM   23  C6  UNL     1      14.627  22.061  12.926  1.00  0.00     0.130 C 
HETATM   24  N6  UNL     1      13.880  22.800  13.631  1.00  0.00    -0.280 N 
ATOM     25  H6  UNL     1      12.888  22.567  13.680  1.00  0.00     0.193 HD
BRANCH  24  26
HETATM   26  O1  UNL     1      14.316  23.892  14.332  1.00  0.00    -0.290 OA
ATOM     27  H1  UNL     1      13.927  24.197  15.143  1.00  0.00     0.244 HD
ENDBRANCH  24  26
ENDBRANCH   6  23
TORSDOF 4
ENDMDL
MODEL 3
REMARK VINA RESULT: -7.317946700      1.911      6.274
REMARK  4 active torsions:
REMARK  status: ('A' for Active; 'I' for Inactive)
REMARK    1  A    between atoms: N1_1  and  C1_4 
REMARK    2  A    between atoms: C2_9  and  C3_10 
REMARK    3  A    between atoms: C5_15  and  C6_16 
REMARK    4  A    between atoms: N6_17  and  O1_19 
ROOT
HETATM    1  C3  UNL     1      14.821  20.033  11.056  1.00  0.00     0.115 A 
HETATM    2  N4  UNL     1      15.581  19.230  10.228  1.00  0.00    -0.284 N 
ATOM      3  H4  UNL     1      15.288  18.331   9.846  1.00  0.00     0.188 HD
HETATM    4  N5  UNL     1      16.741  19.807  10.012  1.00  0.00    -0.198 N 
HETATM    5  C4  UNL     1      16.807  20.977  10.660  1.00  0.00     0.143 A 
HETATM    6  C5  UNL     1      15.574  21.140  11.341  1.00  0.00     0.048 A 
HETATM    7  C7  UNL     1      18.099  21.610  10.414  1.00  0.00     0.279 A 
HETATM    8  O2  UNL     1      18.521  22.714  10.854  1.00  0.00    -0.265 OA
HETATM    9  N7  UNL     1      18.787  20.694   9.558  1.00  0.00    -0.272 N 
ATOM     10  H7  UNL     1      19.728  20.827   9.189  1.00  0.00     0.174 HD
HETATM   11  C8  UNL     1      17.956  19.570   9.299  1.00  0.00     0.349 A 
HETATM   12  O3  UNL     1      18.246  18.565   8.577  1.00  0.00    -0.245 OA
ENDROOT
BRANCH   1  13
HETATM   13  C2  UNL     1      13.481  19.703  11.499  1.00  0.00     0.195 A 
HETATM   14  N3  UNL     1      12.807  18.604  11.017  1.00  0.00    -0.275 N 
HETATM   15  N2  UNL     1      11.624  18.520  11.568  1.00  0.00    -0.263 N 
ATOM     16  H3  UNL     1      13.178  17.948  10.330  1.00  0.00     0.189 HD
HETATM   17  C1  UNL     1      11.525  19.572  12.412  1.00  0.00     0.238 A 
ATOM     18  H2  UNL     1      10.917  17.805  11.395  1.00  0.00     0.190 HD
HETATM   19  O4  UNL     1      12.635  20.221  12.328  1.00  0.00    -0.258 OA
BRANCH  17  20
HETATM   20  N1  UNL     1      10.500  19.840  13.145  1.00  0.00    -0.364 N 
ATOM     21  H12 UNL     1      10.047  19.242  13.835  1.00  0.00     0.159 HD
ATOM     22  H11 UNL     1       9.984  20.720  13.132  1.00  0.00     0.159 HD
ENDBRANCH  17  20
ENDBRANCH   1  13
BRANCH   6  23
HETATM   23  C6  UNL     1      15.242  22.285  12.161  1.00  0.00     0.130 C 
HETATM   24  N6  UNL     1      14.795  22.311  13.345  1.00  0.00    -0.280 N 
ATOM     25  H6  UNL     1      14.633  21.420  13.814  1.00  0.00     0.193 HD
BRANCH  24  26
HETATM   26  O1  UNL     1      14.512  23.459  14.036  1.00  0.00    -0.290 OA
ATOM     27  H1  UNL     1      15.000  23.759  14.794  1.00  0.00     0.244 HD
ENDBRANCH  24  26
ENDBRANCH   6  23
TORSDOF 4
ENDMDL
MODEL 4
REMARK VINA RESULT: -7.292325997      1.846      2.669
REMARK  4 active torsions:
REMARK  status: ('A' for Active; 'I' for Inactive)
REMARK    1  A    between atoms: N1_1  and  C1_4 
REMARK    2  A    between atoms: C2_9  and  C3_10 
REMARK    3  A    between atoms: C5_15  and  C6_16 
REMARK    4  A    between atoms: N6_17  and  O1_19 
ROOT
HETATM    1  C3  UNL     1      14.962  20.991  11.787  1.00  0.00     0.115 A 
HETATM    2  N4  UNL     1      14.022  21.550  12.630  1.00  0.00    -0.284 N 
ATOM      3  H4  UNL     1      14.159  22.390  13.193  1.00  0.00     0.188 HD
HETATM    4  N5  UNL     1      12.923  20.831  12.591  1.00  0.00    -0.198 N 
HETATM    5  C4  UNL     1      13.073  19.798  11.753  1.00  0.00     0.143 A 
HETATM    6  C5  UNL     1      14.386  19.884  11.223  1.00  0.00     0.048 A 
HETATM    7  C7  UNL     1      11.848  19.005  11.718  1.00  0.00     0.279 A 
HETATM    8  O2  UNL     1      11.616  17.962  11.047  1.00  0.00    -0.265 OA
HETATM    9  N7  UNL     1      10.964  19.675  12.619  1.00  0.00    -0.272 N 
ATOM     10  H7  UNL     1      10.011  19.382  12.834  1.00  0.00     0.174 HD
HETATM   11  C8  UNL     1      11.617  20.811  13.169  1.00  0.00     0.349 A 
HETATM   12  O3  UNL     1      11.128  21.635  14.004  1.00  0.00    -0.245 OA
ENDROOT
BRANCH   1  13
HETATM   13  C2  UNL     1      16.292  21.530  11.584  1.00  0.00     0.195 A 
HETATM   14  N3  UNL     1      16.546  22.881  11.649  1.00  0.00    -0.275 N 
HETATM   15  N2  UNL     1      17.815  23.115  11.434  1.00  0.00    -0.263 N 
ATOM     16  H3  UNL     1      15.845  23.598  11.838  1.00  0.00     0.189 HD
HETATM   17  C1  UNL     1      18.391  21.909  11.226  1.00  0.00     0.238 A 
ATOM     18  H2  UNL     1      18.277  24.024  11.425  1.00  0.00     0.190 HD
HETATM   19  O4  UNL     1      17.456  21.028  11.327  1.00  0.00    -0.258 OA
BRANCH  17  20
HETATM   20  N1  UNL     1      19.640  21.718  10.979  1.00  0.00    -0.364 N 
ATOM     21  H12 UNL     1      20.361  22.417  10.803  1.00  0.00     0.159 HD
ATOM     22  H11 UNL     1      20.094  20.806  10.922  1.00  0.00     0.159 HD
ENDBRANCH  17  20
ENDBRANCH   1  13
BRANCH   6  23
HETATM   23  C6  UNL     1      14.943  18.948  10.272  1.00  0.00     0.130 C 
HETATM   24  N6  UNL     1      15.558  19.185   9.191  1.00  0.00    -0.280 N 
ATOM     25  H6  UNL     1      15.696  20.160   8.924  1.00  0.00     0.193 HD
BRANCH  24  26
HETATM   26  O1  UNL     1      16.049  18.217   8.356  1.00  0.00    -0.290 OA
ATOM     27  H1  UNL     1      16.507  18.395   7.543  1.00  0.00     0.244 HD
ENDBRANCH  24  26
ENDBRANCH   6  23
TORSDOF 4
ENDMDL
MODEL 5
REMARK VINA RESULT: -7.272202210      1.683      3.471
REMARK  4 active torsions:
REMARK  status: ('A' for Active; 'I' for Inactive)
REMARK    1  A    between atoms: N1_1  and  C1_4 
REMARK    2  A    between atoms: C2_9  and  C3_10 
REMARK    3  A    between atoms: C5_15  and  C6_16 
REMARK    4  A    between atoms: N6_17  and  O1_19 
ROOT
HETATM    1  C3  UNL     1      14.370  20.236  11.384  1.00  0.00     0.115 A 
HETATM    2  N4  UNL     1      13.114  19.725  11.645  1.00  0.00    -0.284 N 
ATOM      3  H4  UNL     1      12.722  18.880  11.228  1.00  0.00     0.188 HD
HETATM    4  N5  UNL     1      12.504  20.498  12.514  1.00  0.00    -0.198 N 
HETATM    5  C4  UNL     1      13.294  21.522  12.860  1.00  0.00     0.143 A 
HETATM    6  C5  UNL     1      14.506  21.369  12.140  1.00  0.00     0.048 A 
HETATM    7  C7  UNL     1      12.607  22.375  13.826  1.00  0.00     0.279 A 
HETATM    8  O2  UNL     1      13.033  23.427  14.376  1.00  0.00    -0.265 OA
HETATM    9  N7  UNL     1      11.334  21.751  14.010  1.00  0.00    -0.272 N 
ATOM     10  H7  UNL     1      10.597  22.091  14.627  1.00  0.00     0.174 HD
HETATM   11  C8  UNL     1      11.255  20.583  13.203  1.00  0.00     0.349 A 
HETATM   12  O3  UNL     1      10.269  19.786  13.119  1.00  0.00    -0.245 OA
ENDROOT
BRANCH   1  13
HETATM   13  C2  UNL     1      15.318  19.631  10.469  1.00  0.00     0.195 A 
HETATM   14  N3  UNL     1      14.920  19.064   9.280  1.00  0.00    -0.275 N 
HETATM   15  N2  UNL     1      15.953  18.590   8.635  1.00  0.00    -0.263 N 
ATOM     16  H3  UNL     1      13.956  19.020   8.949  1.00  0.00     0.189 HD
HETATM   17  C1  UNL     1      17.032  18.848   9.408  1.00  0.00     0.238 A 
ATOM     18  H2  UNL     1      15.947  18.120   7.729  1.00  0.00     0.190 HD
HETATM   19  O4  UNL     1      16.599  19.454  10.460  1.00  0.00    -0.258 OA
BRANCH  17  20
HETATM   20  N1  UNL     1      18.246  18.533   9.116  1.00  0.00    -0.364 N 
ATOM     21  H12 UNL     1      18.981  18.210   9.744  1.00  0.00     0.159 HD
ATOM     22  H11 UNL     1      18.651  18.565   8.180  1.00  0.00     0.159 HD
ENDBRANCH  17  20
ENDBRANCH   1  13
BRANCH   6  23
HETATM   23  C6  UNL     1      15.629  22.276  12.235  1.00  0.00     0.130 C 
HETATM   24  N6  UNL     1      16.850  22.009  12.436  1.00  0.00    -0.280 N 
ATOM     25  H6  UNL     1      17.112  21.030  12.551  1.00  0.00     0.193 HD
BRANCH  24  26
HETATM   26  O1  UNL     1      17.842  22.950  12.508  1.00  0.00    -0.290 OA
ATOM     27  H1  UNL     1      17.971  23.535  13.245  1.00  0.00     0.244 HD
ENDBRANCH  24  26
ENDBRANCH   6  23
TORSDOF 4
ENDMDL
