MODEL 1
REMARK VINA RESULT: -6.969663862      0.000      0.000
REMARK  6 active torsions:
REMARK  status: ('A' for Active; 'I' for Inactive)
REMARK    1  A    between atoms: C2_2  and  C3_7 
REMARK    2  A    between atoms: N1_3  and  O1_5 
REMARK    3  A    between atoms: C4_8  and  O2_9 
REMARK    4  A    between atoms: C7_14  and  S1_15 
REMARK    5  A    between atoms: S1_15  and  N3_16 
REMARK    6  A    between atoms: S1_15  and  N4_19 
ROOT
HETATM    1  C3  UNL     1      18.430  19.861  13.213  1.00  0.00     0.091 A 
HETATM    2  C4  UNL     1      18.662  19.239  12.007  1.00  0.00     0.107 A 
HETATM    3  C5  UNL     1      17.740  19.298  10.968  1.00  0.00     0.117 A 
HETATM    4  C6  UNL     1      18.043  18.616   9.736  1.00  0.00     0.105 C 
HETATM    5  N2  UNL     1      18.310  18.044   8.746  1.00  0.00    -0.191 NA
HETATM    6  C7  UNL     1      16.554  19.987  11.113  1.00  0.00     0.155 A 
HETATM    7  N5  UNL     1      16.346  20.586  12.296  1.00  0.00    -0.307 N 
HETATM    8  C8  UNL     1      15.122  21.318  12.523  1.00  0.00     0.160 C 
HETATM    9  C9  UNL     1      17.232  20.538  13.316  1.00  0.00     0.263 A 
HETATM   10  O4  UNL     1      16.979  21.130  14.420  1.00  0.00    -0.267 OA
ENDROOT
BRANCH   2  11
HETATM   11  O2  UNL     1      19.835  18.542  11.824  1.00  0.00    -0.358 OA
ATOM     12  H2  UNL     1      19.809  17.595  11.775  1.00  0.00     0.217 HD
ENDBRANCH   2  11
BRANCH   6  13
HETATM   13  S1  UNL     1      15.407  20.078   9.843  1.00  0.00     0.148 S 
HETATM   14  O3  UNL     1      13.986  20.066  10.396  1.00  0.00    -0.222 OA
BRANCH  13  15
HETATM   15  N3  UNL     1      15.458  21.432   9.041  1.00  0.00    -0.340 N 
ATOM     16  H32 UNL     1      16.212  22.108   9.161  1.00  0.00     0.167 HD
ATOM     17  H31 UNL     1      14.674  21.560   8.402  1.00  0.00     0.167 HD
ENDBRANCH  13  15
BRANCH  13  18
HETATM   18  N4  UNL     1      15.516  18.801   8.705  1.00  0.00    -0.340 N 
ATOM     19  H42 UNL     1      16.300  18.720   8.057  1.00  0.00     0.167 HD
ATOM     20  H41 UNL     1      14.737  18.144   8.738  1.00  0.00     0.167 HD
ENDBRANCH  13  18
ENDBRANCH   6  13
BRANCH   1  21
HETATM   21  C2  UNL     1      19.364  19.829  14.333  1.00  0.00     0.046 C 
HETATM   22  C1  UNL     1      19.431  18.709  15.287  1.00  0.00     0.071 C 
HETATM   23  N1  UNL     1      20.162  20.836  14.484  1.00  0.00    -0.273 N 
ATOM     24  H1  UNL     1      20.107  21.607  13.817  1.00  0.00     0.194 HD
BRANCH  23  25
HETATM   25  O1  UNL     1      21.070  20.911  15.489  1.00  0.00    -0.290 OA
ATOM     26  H1  UNL     1      20.931  21.431  16.272  1.00  0.00     0.244 HD
ENDBRANCH  23  25
ENDBRANCH   1  21
TORSDOF 6
ENDMDL
MODEL 2
REMARK VINA RESULT: -6.835117885      2.328      3.294
REMARK  6 active torsions:
REMARK  status: ('A' for Active; 'I' for Inactive)
REMARK    1  A    between atoms: C2_2  and  C3_7 
REMARK    2  A    between atoms: N1_3  and  O1_5 
REMARK    3  A    between atoms: C4_8  and  O2_9 
REMARK    4  A    between atoms: C7_14  and  S1_15 
REMARK    5  A    between atoms: S1_15  and  N3_16 
REMARK    6  A    between atoms: S1_15  and  N4_19 
ROOT
HETATM    1  C3  UNL     1      18.331  19.239  13.071  1.00  0.00     0.091 A 
HETATM    2  C4  UNL     1      17.309  19.222  12.149  1.00  0.00     0.107 A 
HETATM    3  C5  UNL     1      16.303  20.182  12.159  1.00  0.00     0.117 A 
HETATM    4  C6  UNL     1      15.259  20.099  11.172  1.00  0.00     0.105 C 
HETATM    5  N2  UNL     1      14.415  20.003  10.361  1.00  0.00    -0.191 NA
HETATM    6  C7  UNL     1      16.298  21.190  13.101  1.00  0.00     0.155 A 
HETATM    7  N5  UNL     1      17.302  21.188  13.992  1.00  0.00    -0.307 N 
HETATM    8  C8  UNL     1      17.356  22.209  15.012  1.00  0.00     0.160 C 
HETATM    9  C9  UNL     1      18.287  20.263  13.994  1.00  0.00     0.263 A 
HETATM   10  O4  UNL     1      19.219  20.314  14.868  1.00  0.00    -0.267 OA
ENDROOT
BRANCH   2  11
HETATM   11  O2  UNL     1      17.282  18.232  11.193  1.00  0.00    -0.358 OA
ATOM     12  H2  UNL     1      17.825  17.462  11.307  1.00  0.00     0.217 HD
ENDBRANCH   2  11
BRANCH   6  13
HETATM   13  S1  UNL     1      15.071  22.387  13.128  1.00  0.00     0.148 S 
HETATM   14  O3  UNL     1      15.036  23.095  14.478  1.00  0.00    -0.222 OA
BRANCH  13  15
HETATM   15  N3  UNL     1      15.321  23.570  12.119  1.00  0.00    -0.340 N 
ATOM     16  H32 UNL     1      16.258  23.854  11.835  1.00  0.00     0.167 HD
ATOM     17  H31 UNL     1      14.465  24.014  11.788  1.00  0.00     0.167 HD
ENDBRANCH  13  15
BRANCH  13  18
HETATM   18  N4  UNL     1      13.494  21.784  12.833  1.00  0.00    -0.340 N 
ATOM     19  H42 UNL     1      13.331  20.949  12.271  1.00  0.00     0.167 HD
ATOM     20  H41 UNL     1      12.750  22.330  13.267  1.00  0.00     0.167 HD
ENDBRANCH  13  18
ENDBRANCH   6  13
BRANCH   1  21
HETATM   21  C2  UNL     1      19.409  18.257  13.102  1.00  0.00     0.046 C 
HETATM   22  C1  UNL     1      19.501  17.204  14.129  1.00  0.00     0.071 C 
HETATM   23  N1  UNL     1      20.316  18.324  12.183  1.00  0.00    -0.273 N 
ATOM     24  H1  UNL     1      20.242  19.057  11.477  1.00  0.00     0.194 HD
BRANCH  23  25
HETATM   25  O1  UNL     1      21.362  17.461  12.116  1.00  0.00    -0.290 OA
ATOM     26  H1  UNL     1      21.858  17.192  12.880  1.00  0.00     0.244 HD
ENDBRANCH  23  25
ENDBRANCH   1  21
TORSDOF 6
ENDMDL
MODEL 3
REMARK VINA RESULT: -6.818981940      2.550      5.440
REMARK  6 active torsions:
REMARK  status: ('A' for Active; 'I' for Inactive)
REMARK    1  A    between atoms: C2_2  and  C3_7 
REMARK    2  A    between atoms: N1_3  and  O1_5 
REMARK    3  A    between atoms: C4_8  and  O2_9 
REMARK    4  A    between atoms: C7_14  and  S1_15 
REMARK    5  A    between atoms: S1_15  and  N3_16 
REMARK    6  A    between atoms: S1_15  and  N4_19 
ROOT
HETATM    1  C3  UNL     1      16.630  19.832  11.912  1.00  0.00     0.091 A 
HETATM    2  C4  UNL     1      17.643  18.923  12.118  1.00  0.00     0.107 A 
HETATM    3  C5  UNL     1      18.487  19.010  13.219  1.00  0.00     0.117 A 
HETATM    4  C6  UNL     1      19.532  18.030  13.368  1.00  0.00     0.105 C 
HETATM    5  N2  UNL     1      20.382  17.225  13.461  1.00  0.00    -0.191 NA
HETATM    6  C7  UNL     1      18.335  20.018  14.149  1.00  0.00     0.155 A 
HETATM    7  N5  UNL     1      17.343  20.894  13.930  1.00  0.00    -0.307 N 
HETATM    8  C8  UNL     1      17.130  21.981  14.857  1.00  0.00     0.160 C 
HETATM    9  C9  UNL     1      16.514  20.824  12.864  1.00  0.00     0.263 A 
HETATM   10  O4  UNL     1      15.585  21.688  12.710  1.00  0.00    -0.267 OA
ENDROOT
BRANCH   2  11
HETATM   11  O2  UNL     1      17.825  17.902  11.212  1.00  0.00    -0.358 OA
ATOM     12  H2  UNL     1      18.404  17.183  11.434  1.00  0.00     0.217 HD
ENDBRANCH   2  11
BRANCH   6  13
HETATM   13  S1  UNL     1      19.360  20.139  15.518  1.00  0.00     0.148 S 
HETATM   14  O3  UNL     1      18.754  21.067  16.565  1.00  0.00    -0.222 OA
BRANCH  13  15
HETATM   15  N3  UNL     1      19.526  18.785  16.304  1.00  0.00    -0.340 N 
ATOM     16  H32 UNL     1      19.148  17.904  15.958  1.00  0.00     0.167 HD
ATOM     17  H31 UNL     1      20.041  18.880  17.179  1.00  0.00     0.167 HD
ENDBRANCH  13  15
BRANCH  13  18
HETATM   18  N4  UNL     1      20.931  20.728  15.169  1.00  0.00    -0.340 N 
ATOM     19  H42 UNL     1      21.321  20.703  14.226  1.00  0.00     0.167 HD
ATOM     20  H41 UNL     1      21.427  21.099  15.978  1.00  0.00     0.167 HD
ENDBRANCH  13  18
ENDBRANCH   6  13
BRANCH   1  21
HETATM   21  C2  UNL     1      15.720  19.785  10.774  1.00  0.00     0.046 C 
HETATM   22  C1  UNL     1      15.988  20.483   9.505  1.00  0.00     0.071 C 
HETATM   23  N1  UNL     1      14.632  19.096  10.898  1.00  0.00    -0.273 N 
ATOM     24  H1  UNL     1      14.455  18.617  11.781  1.00  0.00     0.194 HD
BRANCH  23  25
HETATM   25  O1  UNL     1      13.715  18.983   9.904  1.00  0.00    -0.290 OA
ATOM     26  H1  UNL     1      13.199  18.198   9.765  1.00  0.00     0.244 HD
ENDBRANCH  23  25
ENDBRANCH   1  21
TORSDOF 6
ENDMDL
MODEL 4
REMARK VINA RESULT: -6.696302925      3.882      6.044
REMARK  6 active torsions:
REMARK  status: ('A' for Active; 'I' for Inactive)
REMARK    1  A    between atoms: C2_2  and  C3_7 
REMARK    2  A    between atoms: N1_3  and  O1_5 
REMARK    3  A    between atoms: C4_8  and  O2_9 
REMARK    4  A    between atoms: C7_14  and  S1_15 
REMARK    5  A    between atoms: S1_15  and  N3_16 
REMARK    6  A    between atoms: S1_15  and  N4_19 
ROOT
HETATM    1  C3  UNL     1      12.556  21.676  13.376  1.00  0.00     0.091 A 
HETATM    2  C4  UNL     1      12.043  20.548  12.777  1.00  0.00     0.107 A 
HETATM    3  C5  UNL     1      12.744  19.863  11.792  1.00  0.00     0.117 A 
HETATM    4  C6  UNL     1      12.143  18.695  11.201  1.00  0.00     0.105 C 
HETATM    5  N2  UNL     1      11.627  17.752  10.729  1.00  0.00    -0.191 NA
HETATM    6  C7  UNL     1      13.987  20.295  11.379  1.00  0.00     0.155 A 
HETATM    7  N5  UNL     1      14.470  21.397  11.974  1.00  0.00    -0.307 N 
HETATM    8  C8  UNL     1      15.762  21.912  11.586  1.00  0.00     0.160 C 
HETATM    9  C9  UNL     1      13.801  22.074  12.934  1.00  0.00     0.263 A 
HETATM   10  O4  UNL     1      14.313  23.117  13.465  1.00  0.00    -0.267 OA
ENDROOT
BRANCH   2  11
HETATM   11  O2  UNL     1      10.804  20.086  13.164  1.00  0.00    -0.358 OA
ATOM     12  H2  UNL     1      10.198  19.776  12.502  1.00  0.00     0.217 HD
ENDBRANCH   2  11
BRANCH   6  13
HETATM   13  S1  UNL     1      14.872  19.461  10.171  1.00  0.00     0.148 S 
HETATM   14  O3  UNL     1      15.676  18.318  10.781  1.00  0.00    -0.222 OA
BRANCH  13  15
HETATM   15  N3  UNL     1      13.963  18.725   9.117  1.00  0.00    -0.340 N 
ATOM     16  H32 UNL     1      13.048  18.344   9.358  1.00  0.00     0.167 HD
ATOM     17  H31 UNL     1      14.377  18.670   8.186  1.00  0.00     0.167 HD
ENDBRANCH  13  15
BRANCH  13  18
HETATM   18  N4  UNL     1      15.974  20.445   9.302  1.00  0.00    -0.340 N 
ATOM     19  H42 UNL     1      16.583  20.066   8.577  1.00  0.00     0.167 HD
ATOM     20  H41 UNL     1      15.961  21.428   9.575  1.00  0.00     0.167 HD
ENDBRANCH  13  18
ENDBRANCH   6  13
BRANCH   1  21
HETATM   21  C2  UNL     1      11.861  22.429  14.413  1.00  0.00     0.046 C 
HETATM   22  C1  UNL     1      12.478  22.767  15.707  1.00  0.00     0.071 C 
HETATM   23  N1  UNL     1      10.649  22.813  14.173  1.00  0.00    -0.273 N 
ATOM     24  H1  UNL     1      10.230  22.574  13.274  1.00  0.00     0.194 HD
BRANCH  23  25
HETATM   25  O1  UNL     1       9.909  23.519  15.065  1.00  0.00    -0.290 OA
ATOM     26  H1  UNL     1       9.945  24.466  15.130  1.00  0.00     0.244 HD
ENDBRANCH  23  25
ENDBRANCH   1  21
TORSDOF 6
ENDMDL
MODEL 5
REMARK VINA RESULT: -6.686815210      2.432      4.074
REMARK  6 active torsions:
REMARK  status: ('A' for Active; 'I' for Inactive)
REMARK    1  A    between atoms: C2_2  and  C3_7 
REMARK    2  A    between atoms: N1_3  and  O1_5 
REMARK    3  A    between atoms: C4_8  and  O2_9 
REMARK    4  A    between atoms: C7_14  and  S1_15 
REMARK    5  A    between atoms: S1_15  and  N3_16 
REMARK    6  A    between atoms: S1_15  and  N4_19 
ROOT
HETATM    1  C3  UNL     1      18.391  19.317  13.149  1.00  0.00     0.091 A 
HETATM    2  C4  UNL     1      18.375  20.373  14.031  1.00  0.00     0.107 A 
HETATM    3  C5  UNL     1      17.362  21.324  14.012  1.00  0.00     0.117 A 
HETATM    4  C6  UNL     1      17.414  22.409  14.958  1.00  0.00     0.105 C 
HETATM    5  N2  UNL     1      17.484  23.287  15.734  1.00  0.00    -0.191 NA
HETATM    6  C7  UNL     1      16.331  21.240  13.099  1.00  0.00     0.155 A 
HETATM    7  N5  UNL     1      16.364  20.204  12.247  1.00  0.00    -0.307 N 
HETATM    8  C8  UNL     1      15.322  20.056  11.258  1.00  0.00     0.160 C 
HETATM    9  C9  UNL     1      17.342  19.271  12.254  1.00  0.00     0.263 A 
HETATM   10  O4  UNL     1      17.319  18.305  11.417  1.00  0.00    -0.267 OA
ENDROOT
BRANCH   2  11
HETATM   11  O2  UNL     1      19.388  20.490  14.958  1.00  0.00    -0.358 OA
ATOM     12  H2  UNL     1      19.191  20.363  15.878  1.00  0.00     0.217 HD
ENDBRANCH   2  11
BRANCH   6  13
HETATM   13  S1  UNL     1      15.068  22.398  13.062  1.00  0.00     0.148 S 
HETATM   14  O3  UNL     1      13.770  21.768  12.567  1.00  0.00    -0.222 OA
BRANCH  13  15
HETATM   15  N3  UNL     1      14.670  22.945  14.484  1.00  0.00    -0.340 N 
ATOM     16  H32 UNL     1      15.342  23.015  15.248  1.00  0.00     0.167 HD
ATOM     17  H31 UNL     1      13.690  23.217  14.559  1.00  0.00     0.167 HD
ENDBRANCH  13  15
BRANCH  13  18
HETATM   18  N4  UNL     1      15.385  23.752  12.060  1.00  0.00    -0.340 N 
ATOM     19  H42 UNL     1      14.736  24.535  11.986  1.00  0.00     0.167 HD
ATOM     20  H41 UNL     1      16.270  23.699  11.555  1.00  0.00     0.167 HD
ENDBRANCH  13  18
ENDBRANCH   6  13
BRANCH   1  21
HETATM   21  C2  UNL     1      19.430  18.294  13.129  1.00  0.00     0.046 C 
HETATM   22  C1  UNL     1      19.505  17.210  14.124  1.00  0.00     0.071 C 
HETATM   23  N1  UNL     1      20.318  18.352  12.191  1.00  0.00    -0.273 N 
ATOM     24  H1  UNL     1      20.257  19.106  11.507  1.00  0.00     0.194 HD
BRANCH  23  25
HETATM   25  O1  UNL     1      21.328  17.453  12.076  1.00  0.00    -0.290 OA
ATOM     26  H1  UNL     1      21.391  16.837  11.356  1.00  0.00     0.244 HD
ENDBRANCH  23  25
ENDBRANCH   1  21
TORSDOF 6
ENDMDL
