MODEL 1
REMARK VINA RESULT: -6.403958406      0.000      0.000
REMARK  5 active torsions:
REMARK  status: ('A' for Active; 'I' for Inactive)
REMARK    1  A    between atoms: O1_2  and  C2_3 
REMARK    2  A    between atoms: C2_3  and  C3_5 
REMARK    3  A    between atoms: C4_6  and  C5_7 
REMARK    4  A    between atoms: C8_19  and  N5_20 
REMARK    5  A    between atoms: N6_23  and  N7_24 
ROOT
HETATM    1  C3  UNL     1      17.108  19.988  11.059  1.00  0.00     0.171 A 
HETATM    2  C4  UNL     1      15.892  20.602  11.006  1.00  0.00     0.146 A 
HETATM    3  O3  UNL     1      16.168  21.914  10.876  1.00  0.00    -0.273 OA
HETATM    4  C8  UNL     1      17.452  22.102  10.850  1.00  0.00     0.244 A 
HETATM    5  N6  UNL     1      18.098  20.937  10.961  1.00  0.00    -0.217 N 
ENDROOT
BRANCH   2   6
HETATM    6  C5  UNL     1      14.562  20.034  11.068  1.00  0.00     0.131 A 
HETATM    7  N1  UNL     1      13.589  20.058  11.975  1.00  0.00    -0.278 N 
HETATM    8  N2  UNL     1      12.523  19.389  11.606  1.00  0.00    -0.237 N 
ATOM      9  H1  UNL     1      13.664  20.547  12.867  1.00  0.00     0.189 HD
HETATM   10  C6  UNL     1      11.268  19.190  12.324  1.00  0.00     0.200 C 
HETATM   11  N3  UNL     1      12.740  18.876  10.409  1.00  0.00    -0.268 N 
HETATM   12  C7  UNL     1      14.008  19.259  10.041  1.00  0.00     0.146 A 
ATOM     13  H3  UNL     1      12.093  18.305   9.864  1.00  0.00     0.190 HD
HETATM   14  N4  UNL     1      14.522  18.927   8.938  1.00  0.00    -0.382 N 
ATOM     15  H42 UNL     1      15.463  19.212   8.665  1.00  0.00     0.157 HD
ATOM     16  H41 UNL     1      14.118  18.363   8.190  1.00  0.00     0.157 HD
ENDBRANCH   2   6
BRANCH   1  17
HETATM   17  C2  UNL     1      17.416  18.584  11.195  1.00  0.00     0.314 C 
HETATM   18  O2  UNL     1      16.945  17.646  10.523  1.00  0.00    -0.257 OA
BRANCH  17  19
HETATM   19  O1  UNL     1      18.344  18.138  12.172  1.00  0.00    -0.321 OA
HETATM   20  C1  UNL     1      18.269  18.572  13.515  1.00  0.00     0.213 C 
ENDBRANCH  17  19
ENDBRANCH   1  17
BRANCH   5  21
HETATM   21  N7  UNL     1      19.463  20.688  10.979  1.00  0.00    -0.335 N 
ATOM     22  H72 UNL     1      20.030  20.158  10.318  1.00  0.00     0.177 HD
ATOM     23  H71 UNL     1      20.119  21.018  11.687  1.00  0.00     0.177 HD
ENDBRANCH   5  21
BRANCH   4  24
HETATM   24  N5  UNL     1      18.013  23.275  10.733  1.00  0.00    -0.363 N 
ATOM     25  H52 UNL     1      17.798  23.968  10.017  1.00  0.00     0.159 HD
ATOM     26  H51 UNL     1      18.739  23.623  11.360  1.00  0.00     0.159 HD
ENDBRANCH   4  24
TORSDOF 5
ENDMDL
MODEL 2
REMARK VINA RESULT: -6.346538711      2.164      3.378
REMARK  5 active torsions:
REMARK  status: ('A' for Active; 'I' for Inactive)
REMARK    1  A    between atoms: O1_2  and  C2_3 
REMARK    2  A    between atoms: C2_3  and  C3_5 
REMARK    3  A    between atoms: C4_6  and  C5_7 
REMARK    4  A    between atoms: C8_19  and  N5_20 
REMARK    5  A    between atoms: N6_23  and  N7_24 
ROOT
HETATM    1  C3  UNL     1      15.491  20.221  11.512  1.00  0.00     0.171 A 
HETATM    2  C4  UNL     1      14.138  20.103  11.389  1.00  0.00     0.146 A 
HETATM    3  O3  UNL     1      13.948  19.424  10.242  1.00  0.00    -0.273 OA
HETATM    4  C8  UNL     1      15.090  19.142   9.693  1.00  0.00     0.244 A 
HETATM    5  N6  UNL     1      16.095  19.613  10.437  1.00  0.00    -0.217 N 
ENDROOT
BRANCH   2   6
HETATM    6  C5  UNL     1      13.083  20.576  12.261  1.00  0.00     0.131 A 
HETATM    7  N1  UNL     1      12.929  21.657  13.021  1.00  0.00    -0.278 N 
HETATM    8  N2  UNL     1      11.784  21.680  13.660  1.00  0.00    -0.237 N 
ATOM      9  H1  UNL     1      13.630  22.394  13.100  1.00  0.00     0.189 HD
HETATM   10  C6  UNL     1      11.261  22.689  14.575  1.00  0.00     0.200 C 
HETATM   11  N3  UNL     1      11.105  20.591  13.348  1.00  0.00    -0.268 N 
HETATM   12  C7  UNL     1      11.889  19.876  12.474  1.00  0.00     0.146 A 
ATOM     13  H3  UNL     1      10.180  20.330  13.690  1.00  0.00     0.190 HD
HETATM   14  N4  UNL     1      11.523  18.773  11.983  1.00  0.00    -0.382 N 
ATOM     15  H42 UNL     1      12.105  18.243  11.335  1.00  0.00     0.157 HD
ATOM     16  H41 UNL     1      10.654  18.263  12.139  1.00  0.00     0.157 HD
ENDBRANCH   2   6
BRANCH   1  17
HETATM   17  C2  UNL     1      16.260  20.858  12.553  1.00  0.00     0.314 C 
HETATM   18  O2  UNL     1      16.080  21.998  13.027  1.00  0.00    -0.257 OA
BRANCH  17  19
HETATM   19  O1  UNL     1      17.355  20.187  13.158  1.00  0.00    -0.321 OA
HETATM   20  C1  UNL     1      18.552  20.864  13.480  1.00  0.00     0.213 C 
ENDBRANCH  17  19
ENDBRANCH   1  17
BRANCH   5  21
HETATM   21  N7  UNL     1      17.463  19.532  10.217  1.00  0.00    -0.335 N 
ATOM     22  H72 UNL     1      17.984  18.881   9.630  1.00  0.00     0.177 HD
ATOM     23  H71 UNL     1      18.170  20.141  10.630  1.00  0.00     0.177 HD
ENDBRANCH   5  21
BRANCH   4  24
HETATM   24  N5  UNL     1      15.216  18.489   8.570  1.00  0.00    -0.363 N 
ATOM     25  H52 UNL     1      15.708  18.821   7.741  1.00  0.00     0.159 HD
ATOM     26  H51 UNL     1      14.826  17.561   8.405  1.00  0.00     0.159 HD
ENDBRANCH   4  24
TORSDOF 5
ENDMDL
MODEL 3
REMARK VINA RESULT: -6.337395919      2.330      3.242
REMARK  5 active torsions:
REMARK  status: ('A' for Active; 'I' for Inactive)
REMARK    1  A    between atoms: O1_2  and  C2_3 
REMARK    2  A    between atoms: C2_3  and  C3_5 
REMARK    3  A    between atoms: C4_6  and  C5_7 
REMARK    4  A    between atoms: C8_19  and  N5_20 
REMARK    5  A    between atoms: N6_23  and  N7_24 
ROOT
HETATM    1  C3  UNL     1      18.720  19.636  13.125  1.00  0.00     0.171 A 
HETATM    2  C4  UNL     1      17.666  20.329  12.605  1.00  0.00     0.146 A 
HETATM    3  O3  UNL     1      17.547  21.420  13.386  1.00  0.00    -0.273 OA
HETATM    4  C8  UNL     1      18.452  21.408  14.317  1.00  0.00     0.244 A 
HETATM    5  N6  UNL     1      19.218  20.318  14.209  1.00  0.00    -0.217 N 
ENDROOT
BRANCH   2   6
HETATM    6  C5  UNL     1      16.822  20.021  11.471  1.00  0.00     0.131 A 
HETATM    7  N1  UNL     1      15.539  19.693  11.336  1.00  0.00    -0.278 N 
HETATM    8  N2  UNL     1      15.184  19.496  10.090  1.00  0.00    -0.237 N 
ATOM      9  H1  UNL     1      14.897  19.603  12.124  1.00  0.00     0.189 HD
HETATM   10  C6  UNL     1      13.880  19.127   9.551  1.00  0.00     0.200 C 
HETATM   11  N3  UNL     1      16.238  19.688   9.317  1.00  0.00    -0.268 N 
HETATM   12  C7  UNL     1      17.281  20.018  10.148  1.00  0.00     0.146 A 
ATOM     13  H3  UNL     1      16.271  19.606   8.300  1.00  0.00     0.190 HD
HETATM   14  N4  UNL     1      18.440  20.265   9.715  1.00  0.00    -0.382 N 
ATOM     15  H42 UNL     1      19.214  20.510  10.332  1.00  0.00     0.157 HD
ATOM     16  H41 UNL     1      18.774  20.263   8.751  1.00  0.00     0.157 HD
ENDBRANCH   2   6
BRANCH   1  17
HETATM   17  C2  UNL     1      19.294  18.386  12.686  1.00  0.00     0.314 C 
HETATM   18  O2  UNL     1      20.114  18.223  11.761  1.00  0.00    -0.257 OA
BRANCH  17  19
HETATM   19  O1  UNL     1      18.943  17.166  13.321  1.00  0.00    -0.321 OA
HETATM   20  C1  UNL     1      19.710  16.639  14.384  1.00  0.00     0.213 C 
ENDBRANCH  17  19
ENDBRANCH   1  17
BRANCH   5  21
HETATM   21  N7  UNL     1      20.291  19.919  14.994  1.00  0.00    -0.335 N 
ATOM     22  H72 UNL     1      20.309  19.265  15.776  1.00  0.00     0.177 HD
ATOM     23  H71 UNL     1      21.255  20.237  14.891  1.00  0.00     0.177 HD
ENDBRANCH   5  21
BRANCH   4  24
HETATM   24  N5  UNL     1      18.578  22.340  15.221  1.00  0.00    -0.363 N 
ATOM     25  H52 UNL     1      18.459  22.213  16.226  1.00  0.00     0.159 HD
ATOM     26  H51 UNL     1      18.812  23.310  15.009  1.00  0.00     0.159 HD
ENDBRANCH   4  24
TORSDOF 5
ENDMDL
MODEL 4
REMARK VINA RESULT: -6.329942061      1.068      2.063
REMARK  5 active torsions:
REMARK  status: ('A' for Active; 'I' for Inactive)
REMARK    1  A    between atoms: O1_2  and  C2_3 
REMARK    2  A    between atoms: C2_3  and  C3_5 
REMARK    3  A    between atoms: C4_6  and  C5_7 
REMARK    4  A    between atoms: C8_19  and  N5_20 
REMARK    5  A    between atoms: N6_23  and  N7_24 
ROOT
HETATM    1  C3  UNL     1      17.233  20.070  11.382  1.00  0.00     0.171 A 
HETATM    2  C4  UNL     1      16.057  20.758  11.427  1.00  0.00     0.146 A 
HETATM    3  O3  UNL     1      16.406  22.055  11.327  1.00  0.00    -0.273 OA
HETATM    4  C8  UNL     1      17.696  22.166  11.227  1.00  0.00     0.244 A 
HETATM    5  N6  UNL     1      18.272  20.961  11.255  1.00  0.00    -0.217 N 
ENDROOT
BRANCH   2   6
HETATM    6  C5  UNL     1      14.700  20.269  11.553  1.00  0.00     0.131 A 
HETATM    7  N1  UNL     1      14.052  19.210  11.072  1.00  0.00    -0.278 N 
HETATM    8  N2  UNL     1      12.798  19.157  11.452  1.00  0.00    -0.237 N 
ATOM      9  H1  UNL     1      14.486  18.511  10.470  1.00  0.00     0.189 HD
HETATM   10  C6  UNL     1      11.782  18.160  11.133  1.00  0.00     0.200 C 
HETATM   11  N3  UNL     1      12.545  20.201  12.220  1.00  0.00    -0.268 N 
HETATM   12  C7  UNL     1      13.714  20.919  12.305  1.00  0.00     0.146 A 
ATOM     13  H3  UNL     1      11.655  20.430  12.664  1.00  0.00     0.190 HD
HETATM   14  N4  UNL     1      13.807  21.985  12.974  1.00  0.00    -0.382 N 
ATOM     15  H42 UNL     1      14.675  22.517  13.037  1.00  0.00     0.157 HD
ATOM     16  H41 UNL     1      13.089  22.458  13.522  1.00  0.00     0.157 HD
ENDBRANCH   2   6
BRANCH   1  17
HETATM   17  C2  UNL     1      17.460  18.646  11.448  1.00  0.00     0.314 C 
HETATM   18  O2  UNL     1      18.226  18.045  12.227  1.00  0.00    -0.257 OA
BRANCH  17  19
HETATM   19  O1  UNL     1      16.778  17.763  10.570  1.00  0.00    -0.321 OA
HETATM   20  C1  UNL     1      16.908  17.869   9.168  1.00  0.00     0.213 C 
ENDBRANCH  17  19
ENDBRANCH   1  17
BRANCH   5  21
HETATM   21  N7  UNL     1      19.618  20.630  11.178  1.00  0.00    -0.335 N 
ATOM     22  H72 UNL     1      20.049  19.721  11.016  1.00  0.00     0.177 HD
ATOM     23  H71 UNL     1      20.397  21.281  11.276  1.00  0.00     0.177 HD
ENDBRANCH   5  21
BRANCH   4  24
HETATM   24  N5  UNL     1      18.320  23.306  11.116  1.00  0.00    -0.363 N 
ATOM     25  H52 UNL     1      18.365  23.881  10.275  1.00  0.00     0.159 HD
ATOM     26  H51 UNL     1      18.839  23.747  11.876  1.00  0.00     0.159 HD
ENDBRANCH   4  24
TORSDOF 5
ENDMDL
MODEL 5
REMARK VINA RESULT: -6.321055858      2.172      3.633
REMARK  5 active torsions:
REMARK  status: ('A' for Active; 'I' for Inactive)
REMARK    1  A    between atoms: O1_2  and  C2_3 
REMARK    2  A    between atoms: C2_3  and  C3_5 
REMARK    3  A    between atoms: C4_6  and  C5_7 
REMARK    4  A    between atoms: C8_19  and  N5_20 
REMARK    5  A    between atoms: N6_23  and  N7_24 
ROOT
HETATM    1  C3  UNL     1      15.461  20.238  11.426  1.00  0.00     0.171 A 
HETATM    2  C4  UNL     1      14.109  20.085  11.337  1.00  0.00     0.146 A 
HETATM    3  O3  UNL     1      13.911  19.374  10.211  1.00  0.00    -0.273 OA
HETATM    4  C8  UNL     1      15.048  19.106   9.643  1.00  0.00     0.244 A 
HETATM    5  N6  UNL     1      16.057  19.618  10.353  1.00  0.00    -0.217 N 
ENDROOT
BRANCH   2   6
HETATM    6  C5  UNL     1      13.063  20.555  12.220  1.00  0.00     0.131 A 
HETATM    7  N1  UNL     1      12.913  21.635  12.983  1.00  0.00    -0.278 N 
HETATM    8  N2  UNL     1      11.775  21.654  13.634  1.00  0.00    -0.237 N 
ATOM      9  H1  UNL     1      13.613  22.373  13.054  1.00  0.00     0.189 HD
HETATM   10  C6  UNL     1      11.259  22.660  14.556  1.00  0.00     0.200 C 
HETATM   11  N3  UNL     1      11.097  20.563  13.329  1.00  0.00    -0.268 N 
HETATM   12  C7  UNL     1      11.873  19.851  12.446  1.00  0.00     0.146 A 
ATOM     13  H3  UNL     1      10.176  20.300  13.680  1.00  0.00     0.190 HD
HETATM   14  N4  UNL     1      11.505  18.747  11.958  1.00  0.00    -0.382 N 
ATOM     15  H42 UNL     1      12.082  18.219  11.303  1.00  0.00     0.157 HD
ATOM     16  H41 UNL     1      10.639  18.235  12.123  1.00  0.00     0.157 HD
ENDBRANCH   2   6
BRANCH   1  17
HETATM   17  C2  UNL     1      16.238  20.919  12.435  1.00  0.00     0.314 C 
HETATM   18  O2  UNL     1      17.150  20.433  13.132  1.00  0.00    -0.257 OA
BRANCH  17  19
HETATM   19  O1  UNL     1      16.004  22.289  12.726  1.00  0.00    -0.321 OA
HETATM   20  C1  UNL     1      16.028  23.274  11.714  1.00  0.00     0.213 C 
ENDBRANCH  17  19
ENDBRANCH   1  17
BRANCH   5  21
HETATM   21  N7  UNL     1      17.421  19.565  10.104  1.00  0.00    -0.335 N 
ATOM     22  H72 UNL     1      17.941  19.893   9.291  1.00  0.00     0.177 HD
ATOM     23  H71 UNL     1      18.125  19.171  10.729  1.00  0.00     0.177 HD
ENDBRANCH   5  21
BRANCH   4  24
HETATM   24  N5  UNL     1      15.164  18.429   8.533  1.00  0.00    -0.363 N 
ATOM     25  H52 UNL     1      15.068  18.809   7.592  1.00  0.00     0.159 HD
ATOM     26  H51 UNL     1      15.368  17.430   8.495  1.00  0.00     0.159 HD
ENDBRANCH   4  24
TORSDOF 5
ENDMDL
