MODEL 1
REMARK VINA RESULT: -5.400263240      0.000      0.000
REMARK  3 active torsions:
REMARK  status: ('A' for Active; 'I' for Inactive)
REMARK    1  A    between atoms: C2_2  and  C3_3 
REMARK       I    between atoms: N3_23  and  C15_24 
REMARK    2  A    between atoms: C15_24  and  C16_26 
REMARK    3  A    between atoms: C16_26  and  N4_27 
ROOT
HETATM    1  C1  UNL     1     -82.407  38.531 129.519  1.00  0.00     0.077 C 
HETATM    2  C2  UNL     1     -82.134  37.060 129.749  1.00  0.00     0.164 C 
HETATM    3  N1  UNL     1     -83.038  36.209 129.012  1.00  0.00    -0.344 N 
ATOM      4  H1  UNL     1     -83.537  36.540 128.186  1.00  0.00     0.164 HD
HETATM    5  C7  UNL     1     -83.193  34.896 129.497  1.00  0.00     0.085 C 
HETATM    6  N2  UNL     1     -83.391  33.946 128.641  1.00  0.00    -0.388 N 
ATOM      7  H21 UNL     1     -83.503  32.996 128.992  1.00  0.00     0.157 HD
ATOM      8  H22 UNL     1     -83.441  34.084 127.631  1.00  0.00     0.157 HD
HETATM    9  C8  UNL     1     -83.119  34.696 130.969  1.00  0.00     0.049 C 
HETATM   10  C9  UNL     1     -82.102  33.636 131.260  1.00  0.00     0.020 C 
HETATM   11  C10 UNL     1     -83.154  32.810 131.971  1.00  0.00     0.002 C 
HETATM   12  C11 UNL     1     -84.191  33.746 131.367  1.00  0.00     0.020 C 
HETATM   13  C12 UNL     1     -83.030  36.010 131.656  1.00  0.00     0.082 C 
HETATM   14  C13 UNL     1     -82.565  35.962 133.094  1.00  0.00     0.059 C 
HETATM   15  C14 UNL     1     -83.657  35.789 134.115  1.00  0.00     0.129 C 
HETATM   16  N3  UNL     1     -84.576  36.889 134.006  1.00  0.00    -0.351 N 
HETATM   17  C15 UNL     1     -85.535  37.241 134.988  1.00  0.00     0.245 C 
HETATM   18  O1  UNL     1     -85.591  36.536 136.040  1.00  0.00    -0.272 OA
HETATM   19  C17 UNL     1     -84.512  37.694 132.804  1.00  0.00     0.129 C 
HETATM   20  C18 UNL     1     -84.375  36.694 131.645  1.00  0.00     0.059 C 
HETATM   21  O2  UNL     1     -82.078  36.817 131.047  1.00  0.00    -0.344 OA
ENDROOT
BRANCH   2  22
HETATM   22  C3  UNL     1     -80.761  36.792 129.130  1.00  0.00     0.044 A 
HETATM   23  C4  UNL     1     -80.525  35.940 128.110  1.00  0.00     0.047 A 
HETATM   24  C5  UNL     1     -79.248  35.805 127.669  1.00  0.00     0.078 A 
HETATM   25 CL1  UNL     1     -78.673  34.762 126.354  1.00  0.00    -0.076 Cl
HETATM   26  S1  UNL     1     -78.376  36.866 128.679  1.00  0.00    -0.047 SA
HETATM   27  C6  UNL     1     -79.659  37.451 129.630  1.00  0.00     0.170 A 
HETATM   28  F1  UNL     1     -79.567  38.361 130.643  1.00  0.00    -0.197 F 
ENDBRANCH   2  22
BRANCH  17  29
HETATM   29  C16 UNL     1     -86.468  38.368 134.866  1.00  0.00     0.332 C 
BRANCH  29  30
HETATM   30  N4  UNL     1     -85.982  39.577 135.475  1.00  0.00    -0.071 N 
ATOM     31  H43 UNL     1     -85.116  39.403 135.985  1.00  0.00     0.274 HD
ATOM     32  H42 UNL     1     -85.633  40.223 134.767  1.00  0.00     0.274 HD
ATOM     33  H41 UNL     1     -86.670  40.032 136.074  1.00  0.00     0.274 HD
ENDBRANCH  29  30
ENDBRANCH  17  29
TORSDOF 3
ENDMDL
MODEL 2
REMARK VINA RESULT: -5.030693063     10.313     12.086
REMARK  3 active torsions:
REMARK  status: ('A' for Active; 'I' for Inactive)
REMARK    1  A    between atoms: C2_2  and  C3_3 
REMARK       I    between atoms: N3_23  and  C15_24 
REMARK    2  A    between atoms: C15_24  and  C16_26 
REMARK    3  A    between atoms: C16_26  and  N4_27 
ROOT
HETATM    1  C1  UNL     1     -81.451  32.504 121.415  1.00  0.00     0.077 C 
HETATM    2  C2  UNL     1     -80.163  31.723 121.562  1.00  0.00     0.164 C 
HETATM    3  N1  UNL     1     -79.612  31.321 120.289  1.00  0.00    -0.344 N 
ATOM      4  H1  UNL     1     -79.853  31.802 119.422  1.00  0.00     0.164 HD
HETATM    5  C7  UNL     1     -78.725  30.228 120.311  1.00  0.00     0.085 C 
HETATM    6  N2  UNL     1     -77.744  30.219 119.466  1.00  0.00    -0.388 N 
ATOM      7  H21 UNL     1     -77.101  29.428 119.482  1.00  0.00     0.157 HD
ATOM      8  H22 UNL     1     -77.567  30.955 118.782  1.00  0.00     0.157 HD
HETATM    9  C8  UNL     1     -78.982  29.155 121.308  1.00  0.00     0.049 C 
HETATM   10  C9  UNL     1     -77.733  28.927 122.102  1.00  0.00     0.020 C 
HETATM   11  C10 UNL     1     -77.720  27.473 121.679  1.00  0.00     0.002 C 
HETATM   12  C11 UNL     1     -78.776  27.840 120.646  1.00  0.00     0.020 C 
HETATM   13  C12 UNL     1     -80.264  29.414 122.011  1.00  0.00     0.082 C 
HETATM   14  C13 UNL     1     -80.468  28.644 123.297  1.00  0.00     0.059 C 
HETATM   15  C14 UNL     1     -81.120  27.296 123.140  1.00  0.00     0.129 C 
HETATM   16  N3  UNL     1     -82.416  27.471 122.544  1.00  0.00    -0.351 N 
HETATM   17  C15 UNL     1     -83.440  26.491 122.533  1.00  0.00     0.245 C 
HETATM   18  O1  UNL     1     -83.198  25.376 123.087  1.00  0.00    -0.272 OA
HETATM   19  C17 UNL     1     -82.693  28.744 121.911  1.00  0.00     0.129 C 
HETATM   20  C18 UNL     1     -81.428  29.087 121.107  1.00  0.00     0.059 C 
HETATM   21  O2  UNL     1     -80.338  30.737 122.425  1.00  0.00    -0.344 OA
ENDROOT
BRANCH   2  22
HETATM   22  C3  UNL     1     -79.142  32.710 122.130  1.00  0.00     0.044 A 
HETATM   23  C4  UNL     1     -77.977  33.047 121.536  1.00  0.00     0.047 A 
HETATM   24  C5  UNL     1     -77.170  33.938 122.165  1.00  0.00     0.078 A 
HETATM   25 CL1  UNL     1     -75.600  34.544 121.604  1.00  0.00    -0.076 Cl
HETATM   26  S1  UNL     1     -78.036  34.306 123.587  1.00  0.00    -0.047 SA
HETATM   27  C6  UNL     1     -79.397  33.318 123.339  1.00  0.00     0.170 A 
HETATM   28  F1  UNL     1     -80.468  33.192 124.175  1.00  0.00    -0.197 F 
ENDBRANCH   2  22
BRANCH  17  29
HETATM   29  C16 UNL     1     -84.760  26.681 121.922  1.00  0.00     0.332 C 
BRANCH  29  30
HETATM   30  N4  UNL     1     -85.744  27.188 122.841  1.00  0.00    -0.071 N 
ATOM     31  H43 UNL     1     -85.489  26.966 123.804  1.00  0.00     0.274 HD
ATOM     32  H42 UNL     1     -85.706  28.206 122.887  1.00  0.00     0.274 HD
ATOM     33  H41 UNL     1     -86.691  26.869 122.635  1.00  0.00     0.274 HD
ENDBRANCH  29  30
ENDBRANCH  17  29
TORSDOF 3
ENDMDL
MODEL 3
REMARK VINA RESULT: -4.958443660      3.849      7.754
REMARK  3 active torsions:
REMARK  status: ('A' for Active; 'I' for Inactive)
REMARK    1  A    between atoms: C2_2  and  C3_3 
REMARK       I    between atoms: N3_23  and  C15_24 
REMARK    2  A    between atoms: C15_24  and  C16_26 
REMARK    3  A    between atoms: C16_26  and  N4_27 
ROOT
HETATM    1  C1  UNL     1     -82.987  35.583 129.242  1.00  0.00     0.077 C 
HETATM    2  C2  UNL     1     -82.100  36.576 129.963  1.00  0.00     0.164 C 
HETATM    3  N1  UNL     1     -82.339  37.936 129.541  1.00  0.00    -0.344 N 
ATOM      4  H1  UNL     1     -83.216  38.219 129.102  1.00  0.00     0.164 HD
HETATM    5  C7  UNL     1     -81.294  38.852 129.770  1.00  0.00     0.085 C 
HETATM    6  N2  UNL     1     -81.604  40.076 130.054  1.00  0.00    -0.388 N 
ATOM      7  H21 UNL     1     -80.847  40.739 130.220  1.00  0.00     0.157 HD
ATOM      8  H22 UNL     1     -82.560  40.425 130.127  1.00  0.00     0.157 HD
HETATM    9  C8  UNL     1     -79.900  38.343 129.664  1.00  0.00     0.049 C 
HETATM   10  C9  UNL     1     -79.165  38.691 130.921  1.00  0.00     0.020 C 
HETATM   11  C10 UNL     1     -78.133  39.453 130.117  1.00  0.00     0.002 C 
HETATM   12  C11 UNL     1     -79.087  39.351 128.935  1.00  0.00     0.020 C 
HETATM   13  C12 UNL     1     -79.909  36.938 129.182  1.00  0.00     0.082 C 
HETATM   14  C13 UNL     1     -78.623  36.170 129.392  1.00  0.00     0.059 C 
HETATM   15  C14 UNL     1     -77.621  36.281 128.274  1.00  0.00     0.129 C 
HETATM   16  N3  UNL     1     -78.217  35.782 127.064  1.00  0.00    -0.351 N 
HETATM   17  C15 UNL     1     -77.498  35.431 125.894  1.00  0.00     0.245 C 
HETATM   18  O1  UNL     1     -76.237  35.566 125.912  1.00  0.00    -0.272 OA
HETATM   19  C17 UNL     1     -79.657  35.628 127.043  1.00  0.00     0.129 C 
HETATM   20  C18 UNL     1     -80.216  36.898 127.705  1.00  0.00     0.059 C 
HETATM   21  O2  UNL     1     -80.840  36.185 129.884  1.00  0.00    -0.344 OA
ENDROOT
BRANCH   2  22
HETATM   22  C3  UNL     1     -82.545  36.542 131.426  1.00  0.00     0.044 A 
HETATM   23  C4  UNL     1     -83.529  37.301 131.954  1.00  0.00     0.047 A 
HETATM   24  C5  UNL     1     -83.809  37.161 133.275  1.00  0.00     0.078 A 
HETATM   25 CL1  UNL     1     -85.043  38.030 134.206  1.00  0.00    -0.076 Cl
HETATM   26  S1  UNL     1     -82.699  35.970 133.780  1.00  0.00    -0.047 SA
HETATM   27  C6  UNL     1     -81.913  35.685 132.300  1.00  0.00     0.170 A 
HETATM   28  F1  UNL     1     -80.896  34.802 132.080  1.00  0.00    -0.197 F 
ENDBRANCH   2  22
BRANCH  17  29
HETATM   29  C16 UNL     1     -78.116  34.923 124.664  1.00  0.00     0.332 C 
BRANCH  29  30
HETATM   30  N4  UNL     1     -77.158  34.459 123.697  1.00  0.00    -0.071 N 
ATOM     31  H43 UNL     1     -76.743  33.575 123.991  1.00  0.00     0.274 HD
ATOM     32  H42 UNL     1     -77.624  34.151 122.844  1.00  0.00     0.274 HD
ATOM     33  H41 UNL     1     -76.433  35.146 123.486  1.00  0.00     0.274 HD
ENDBRANCH  29  30
ENDBRANCH  17  29
TORSDOF 3
ENDMDL
MODEL 4
REMARK VINA RESULT: -4.925677067     11.419     13.755
REMARK  3 active torsions:
REMARK  status: ('A' for Active; 'I' for Inactive)
REMARK    1  A    between atoms: C2_2  and  C3_3 
REMARK       I    between atoms: N3_23  and  C15_24 
REMARK    2  A    between atoms: C15_24  and  C16_26 
REMARK    3  A    between atoms: C16_26  and  N4_27 
ROOT
HETATM    1  C1  UNL     1     -81.751  32.260 122.057  1.00  0.00     0.077 C 
HETATM    2  C2  UNL     1     -81.525  30.867 121.509  1.00  0.00     0.164 C 
HETATM    3  N1  UNL     1     -81.170  29.920 122.539  1.00  0.00    -0.344 N 
ATOM      4  H1  UNL     1     -81.396  30.081 123.521  1.00  0.00     0.164 HD
HETATM    5  C7  UNL     1     -80.492  28.761 122.113  1.00  0.00     0.085 C 
HETATM    6  N2  UNL     1     -80.717  27.654 122.744  1.00  0.00    -0.388 N 
ATOM      7  H21 UNL     1     -80.227  26.815 122.436  1.00  0.00     0.157 HD
ATOM      8  H22 UNL     1     -81.358  27.561 123.533  1.00  0.00     0.157 HD
HETATM    9  C8  UNL     1     -79.559  28.896 120.963  1.00  0.00     0.049 C 
HETATM   10  C9  UNL     1     -79.922  27.877 119.927  1.00  0.00     0.020 C 
HETATM   11  C10 UNL     1     -78.529  27.290 120.003  1.00  0.00     0.002 C 
HETATM   12  C11 UNL     1     -78.328  28.118 121.264  1.00  0.00     0.020 C 
HETATM   13  C12 UNL     1     -79.432  30.324 120.577  1.00  0.00     0.082 C 
HETATM   14  C13 UNL     1     -78.840  30.579 119.209  1.00  0.00     0.059 C 
HETATM   15  C14 UNL     1     -77.340  30.700 119.173  1.00  0.00     0.129 C 
HETATM   16  N3  UNL     1     -76.940  31.793 120.016  1.00  0.00    -0.351 N 
HETATM   17  C15 UNL     1     -75.663  32.409 119.990  1.00  0.00     0.245 C 
HETATM   18  O1  UNL     1     -74.809  31.964 119.165  1.00  0.00    -0.272 OA
HETATM   19  C17 UNL     1     -77.915  32.301 120.958  1.00  0.00     0.129 C 
HETATM   20  C18 UNL     1     -78.573  31.059 121.579  1.00  0.00     0.059 C 
HETATM   21  O2  UNL     1     -80.683  30.922 120.492  1.00  0.00    -0.344 OA
ENDROOT
BRANCH   2  22
HETATM   22  C3  UNL     1     -82.889  30.394 121.004  1.00  0.00     0.044 A 
HETATM   23  C4  UNL     1     -83.606  29.383 121.541  1.00  0.00     0.047 A 
HETATM   24  C5  UNL     1     -84.803  29.076 120.980  1.00  0.00     0.078 A 
HETATM   25 CL1  UNL     1     -85.930  27.804 121.489  1.00  0.00    -0.076 Cl
HETATM   26  S1  UNL     1     -84.929  30.197 119.702  1.00  0.00    -0.047 SA
HETATM   27  C6  UNL     1     -83.459  31.023 119.919  1.00  0.00     0.170 A 
HETATM   28  F1  UNL     1     -82.995  32.062 119.165  1.00  0.00    -0.197 F 
ENDBRANCH   2  22
BRANCH  17  29
HETATM   29  C16 UNL     1     -75.265  33.526 120.855  1.00  0.00     0.332 C 
BRANCH  29  30
HETATM   30  N4  UNL     1     -73.901  33.937 120.659  1.00  0.00    -0.071 N 
ATOM     31  H43 UNL     1     -73.265  33.355 121.204  1.00  0.00     0.274 HD
ATOM     32  H42 UNL     1     -73.582  33.700 119.720  1.00  0.00     0.274 HD
ATOM     33  H41 UNL     1     -73.745  34.926 120.856  1.00  0.00     0.274 HD
ENDBRANCH  29  30
ENDBRANCH  17  29
TORSDOF 3
ENDMDL
MODEL 5
REMARK VINA RESULT: -4.914201860      3.861      7.817
REMARK  3 active torsions:
REMARK  status: ('A' for Active; 'I' for Inactive)
REMARK    1  A    between atoms: C2_2  and  C3_3 
REMARK       I    between atoms: N3_23  and  C15_24 
REMARK    2  A    between atoms: C15_24  and  C16_26 
REMARK    3  A    between atoms: C16_26  and  N4_27 
ROOT
HETATM    1  C1  UNL     1     -82.842  35.503 128.992  1.00  0.00     0.077 C 
HETATM    2  C2  UNL     1     -81.841  36.355 129.740  1.00  0.00     0.164 C 
HETATM    3  N1  UNL     1     -82.003  37.764 129.467  1.00  0.00    -0.344 N 
ATOM      4  H1  UNL     1     -82.881  38.148 129.118  1.00  0.00     0.164 HD
HETATM    5  C7  UNL     1     -80.880  38.579 129.709  1.00  0.00     0.085 C 
HETATM    6  N2  UNL     1     -81.079  39.786 130.129  1.00  0.00    -0.388 N 
ATOM      7  H21 UNL     1     -80.266  40.376 130.304  1.00  0.00     0.157 HD
ATOM      8  H22 UNL     1     -82.000  40.192 130.300  1.00  0.00     0.157 HD
HETATM    9  C8  UNL     1     -79.537  37.988 129.460  1.00  0.00     0.049 C 
HETATM   10  C9  UNL     1     -78.701  38.158 130.691  1.00  0.00     0.020 C 
HETATM   11  C10 UNL     1     -77.667  38.924 129.893  1.00  0.00     0.002 C 
HETATM   12  C11 UNL     1     -78.697  39.005 128.775  1.00  0.00     0.020 C 
HETATM   13  C12 UNL     1     -79.681  36.642 128.849  1.00  0.00     0.082 C 
HETATM   14  C13 UNL     1     -78.446  35.770 128.896  1.00  0.00     0.059 C 
HETATM   15  C14 UNL     1     -77.510  35.922 127.727  1.00  0.00     0.129 C 
HETATM   16  N3  UNL     1     -78.215  35.589 126.519  1.00  0.00    -0.351 N 
HETATM   17  C15 UNL     1     -77.598  35.307 125.275  1.00  0.00     0.245 C 
HETATM   18  O1  UNL     1     -76.332  35.353 125.218  1.00  0.00    -0.272 OA
HETATM   19  C17 UNL     1     -79.661  35.537 126.583  1.00  0.00     0.129 C 
HETATM   20  C18 UNL     1     -80.081  36.770 127.399  1.00  0.00     0.059 C 
HETATM   21  O2  UNL     1     -80.621  35.888 129.539  1.00  0.00    -0.344 OA
ENDROOT
BRANCH   2  22
HETATM   22  C3  UNL     1     -82.196  36.206 131.221  1.00  0.00     0.044 A 
HETATM   23  C4  UNL     1     -81.519  35.443 132.105  1.00  0.00     0.047 A 
HETATM   24  C5  UNL     1     -81.956  35.408 133.390  1.00  0.00     0.078 A 
HETATM   25 CL1  UNL     1     -81.253  34.493 134.737  1.00  0.00    -0.076 Cl
HETATM   26  S1  UNL     1     -83.313  36.440 133.364  1.00  0.00    -0.047 SA
HETATM   27  C6  UNL     1     -83.283  36.886 131.723  1.00  0.00     0.170 A 
HETATM   28  F1  UNL     1     -84.158  37.725 131.096  1.00  0.00    -0.197 F 
ENDBRANCH   2  22
BRANCH  17  29
HETATM   29  C16 UNL     1     -78.328  34.967 124.047  1.00  0.00     0.332 C 
BRANCH  29  30
HETATM   30  N4  UNL     1     -77.497  34.356 123.044  1.00  0.00    -0.071 N 
ATOM     31  H43 UNL     1     -76.517  34.370 123.326  1.00  0.00     0.274 HD
ATOM     32  H42 UNL     1     -77.649  33.348 123.014  1.00  0.00     0.274 HD
ATOM     33  H41 UNL     1     -77.614  34.767 122.118  1.00  0.00     0.274 HD
ENDBRANCH  29  30
ENDBRANCH  17  29
TORSDOF 3
ENDMDL
