MODEL 1
REMARK VINA RESULT: -8.239791296      0.000      0.000
REMARK  5 active torsions:
REMARK  status: ('A' for Active; 'I' for Inactive)
REMARK    1  A    between atoms: N1_4  and  C4_5 
REMARK    2  A    between atoms: C8_10  and  N2_11 
REMARK    3  A    between atoms: C10_13  and  C11_14 
REMARK    4  A    between atoms: C11_14  and  N3_15 
REMARK    5  A    between atoms: C12_19  and  N4_21 
ROOT
HETATM    1  N2  UNL     1     -77.212  39.670 130.566  1.00  0.00    -0.376 N 
HETATM    2  C9  UNL     1     -77.806  40.258 131.725  1.00  0.00     0.132 C 
HETATM    3  C10 UNL     1     -77.502  41.681 132.008  1.00  0.00     0.068 C 
HETATM    4  C12 UNL     1     -76.587  42.374 131.058  1.00  0.00     0.163 C 
HETATM    5  C13 UNL     1     -75.931  43.602 131.663  1.00  0.00     0.050 C 
HETATM    6  C14 UNL     1     -75.466  41.412 130.732  1.00  0.00     0.148 C 
HETATM    7  C15 UNL     1     -74.430  42.066 129.852  1.00  0.00     0.056 C 
HETATM    8  F1  UNL     1     -74.823  41.078 131.929  1.00  0.00    -0.239 F 
HETATM    9  C16 UNL     1     -75.984  40.196 130.043  1.00  0.00     0.168 C 
ENDROOT
BRANCH   1  10
HETATM   10  C8  UNL     1     -77.819  38.561 129.924  1.00  0.00     0.054 A 
HETATM   11  C7  UNL     1     -77.114  37.651 129.164  1.00  0.00     0.060 A 
HETATM   12  C6  UNL     1     -77.753  36.578 128.546  1.00  0.00     0.028 A 
HETATM   13 CL1  UNL     1     -75.382  37.802 128.951  1.00  0.00    -0.082 Cl
HETATM   14  C5  UNL     1     -79.110  36.388 128.671  1.00  0.00     0.031 A 
HETATM   15  C4  UNL     1     -79.842  37.288 129.429  1.00  0.00     0.032 A 
HETATM   16  C17 UNL     1     -79.199  38.331 130.026  1.00  0.00     0.060 A 
BRANCH  15  17
HETATM   17  N1  UNL     1     -81.244  37.095 129.568  1.00  0.00    -0.377 N 
HETATM   18  C3  UNL     1     -82.079  38.142 130.066  1.00  0.00     0.147 C 
HETATM   19  C2  UNL     1     -83.527  37.968 129.663  1.00  0.00     0.091 C 
HETATM   20  C1  UNL     1     -83.731  38.396 128.223  1.00  0.00     0.033 C 
HETATM   21  N5  UNL     1     -84.032  36.659 129.930  1.00  0.00    -0.406 N 
HETATM   22  C19 UNL     1     -83.090  35.611 129.930  1.00  0.00     0.034 C 
ATOM     23  H5  UNL     1     -85.022  36.490 130.111  1.00  0.00     0.154 HD
HETATM   24  C18 UNL     1     -81.814  35.839 129.208  1.00  0.00     0.152 C 
HETATM   25  C20 UNL     1     -82.735  35.225 131.373  1.00  0.00     0.039 C 
HETATM   26  C21 UNL     1     -83.751  34.370 129.315  1.00  0.00     0.039 C 
ENDBRANCH  15  17
ENDBRANCH   1  10
BRANCH   3  27
HETATM   27  C11 UNL     1     -78.750  42.526 132.191  1.00  0.00     0.238 C 
BRANCH  27  28
HETATM   28  N3  UNL     1     -79.191  42.637 133.540  1.00  0.00    -0.079 N 
ATOM     29  H33 UNL     1     -78.480  42.281 134.178  1.00  0.00     0.274 HD
ATOM     30  H32 UNL     1     -79.210  43.615 133.829  1.00  0.00     0.274 HD
ATOM     31  H31 UNL     1     -80.091  42.194 133.727  1.00  0.00     0.274 HD
ENDBRANCH  27  28
ENDBRANCH   3  27
BRANCH   4  32
HETATM   32  N4  UNL     1     -77.286  42.749 129.869  1.00  0.00    -0.067 N 
ATOM     33  H43 UNL     1     -77.295  41.994 129.182  1.00  0.00     0.275 HD
ATOM     34  H42 UNL     1     -78.290  42.824 130.028  1.00  0.00     0.275 HD
ATOM     35  H41 UNL     1     -76.899  43.609 129.480  1.00  0.00     0.275 HD
ENDBRANCH   4  32
TORSDOF 5
ENDMDL
MODEL 2
REMARK VINA RESULT: -7.938891587      1.633      2.548
REMARK  5 active torsions:
REMARK  status: ('A' for Active; 'I' for Inactive)
REMARK    1  A    between atoms: N1_4  and  C4_5 
REMARK    2  A    between atoms: C8_10  and  N2_11 
REMARK    3  A    between atoms: C10_13  and  C11_14 
REMARK    4  A    between atoms: C11_14  and  N3_15 
REMARK    5  A    between atoms: C12_19  and  N4_21 
ROOT
HETATM    1  N2  UNL     1     -78.738  40.254 130.114  1.00  0.00    -0.376 N 
HETATM    2  C9  UNL     1     -77.380  40.658 129.929  1.00  0.00     0.132 C 
HETATM    3  C10 UNL     1     -76.855  41.732 130.806  1.00  0.00     0.068 C 
HETATM    4  C12 UNL     1     -77.802  42.308 131.802  1.00  0.00     0.163 C 
HETATM    5  C13 UNL     1     -77.386  43.688 132.278  1.00  0.00     0.050 C 
HETATM    6  C14 UNL     1     -79.134  42.484 131.106  1.00  0.00     0.148 C 
HETATM    7  C15 UNL     1     -80.133  43.160 132.011  1.00  0.00     0.056 C 
HETATM    8  F1  UNL     1     -78.940  43.336 130.013  1.00  0.00    -0.239 F 
HETATM    9  C16 UNL     1     -79.690  41.171 130.672  1.00  0.00     0.168 C 
ENDROOT
BRANCH   1  10
HETATM   10  C8  UNL     1     -79.164  38.952 129.746  1.00  0.00     0.054 A 
HETATM   11  C7  UNL     1     -78.296  37.961 129.336  1.00  0.00     0.060 A 
HETATM   12  C6  UNL     1     -78.759  36.698 128.978  1.00  0.00     0.028 A 
HETATM   13 CL1  UNL     1     -76.570  38.250 129.259  1.00  0.00    -0.082 Cl
HETATM   14  C5  UNL     1     -80.100  36.393 129.019  1.00  0.00     0.031 A 
HETATM   15  C4  UNL     1     -80.994  37.370 129.426  1.00  0.00     0.032 A 
HETATM   16  C17 UNL     1     -80.521  38.600 129.773  1.00  0.00     0.060 A 
BRANCH  15  17
HETATM   17  N1  UNL     1     -82.382  37.061 129.476  1.00  0.00    -0.377 N 
HETATM   18  C3  UNL     1     -83.334  38.043 129.885  1.00  0.00     0.147 C 
HETATM   19  C2  UNL     1     -84.731  37.735 129.392  1.00  0.00     0.091 C 
HETATM   20  C1  UNL     1     -84.870  38.109 127.929  1.00  0.00     0.033 C 
HETATM   21  N5  UNL     1     -85.141  36.394 129.663  1.00  0.00    -0.406 N 
HETATM   22  C19 UNL     1     -84.116  35.431 129.758  1.00  0.00     0.034 C 
ATOM     23  H5  UNL     1     -86.123  36.145 129.782  1.00  0.00     0.154 HD
HETATM   24  C18 UNL     1     -82.817  35.751 129.116  1.00  0.00     0.152 C 
HETATM   25  C20 UNL     1     -83.831  35.113 131.232  1.00  0.00     0.039 C 
HETATM   26  C21 UNL     1     -84.626  34.124 129.137  1.00  0.00     0.039 C 
ENDBRANCH  15  17
ENDBRANCH   1  10
BRANCH   3  27
HETATM   27  C11 UNL     1     -75.574  41.339 131.518  1.00  0.00     0.238 C 
BRANCH  27  28
HETATM   28  N3  UNL     1     -74.416  42.039 131.075  1.00  0.00    -0.079 N 
ATOM     29  H33 UNL     1     -74.598  43.042 131.042  1.00  0.00     0.274 HD
ATOM     30  H32 UNL     1     -73.691  42.018 131.793  1.00  0.00     0.274 HD
ATOM     31  H31 UNL     1     -74.043  41.715 130.183  1.00  0.00     0.274 HD
ENDBRANCH  27  28
ENDBRANCH   3  27
BRANCH   4  32
HETATM   32  N4  UNL     1     -77.938  41.440 132.929  1.00  0.00    -0.067 N 
ATOM     33  H43 UNL     1     -77.837  40.460 132.666  1.00  0.00     0.275 HD
ATOM     34  H42 UNL     1     -77.139  41.512 133.559  1.00  0.00     0.275 HD
ATOM     35  H41 UNL     1     -78.819  41.613 133.413  1.00  0.00     0.275 HD
ENDBRANCH   4  32
TORSDOF 5
ENDMDL
MODEL 3
REMARK VINA RESULT: -7.867185267      2.674      7.861
REMARK  5 active torsions:
REMARK  status: ('A' for Active; 'I' for Inactive)
REMARK    1  A    between atoms: N1_4  and  C4_5 
REMARK    2  A    between atoms: C8_10  and  N2_11 
REMARK    3  A    between atoms: C10_13  and  C11_14 
REMARK    4  A    between atoms: C11_14  and  N3_15 
REMARK    5  A    between atoms: C12_19  and  N4_21 
ROOT
HETATM    1  N2  UNL     1     -81.617  36.947 130.130  1.00  0.00    -0.376 N 
HETATM    2  C9  UNL     1     -81.791  36.185 131.326  1.00  0.00     0.132 C 
HETATM    3  C10 UNL     1     -83.043  35.404 131.469  1.00  0.00     0.068 C 
HETATM    4  C12 UNL     1     -84.022  35.494 130.350  1.00  0.00     0.163 C 
HETATM    5  C13 UNL     1     -85.431  35.119 130.769  1.00  0.00     0.050 C 
HETATM    6  C14 UNL     1     -84.080  36.944 129.920  1.00  0.00     0.148 C 
HETATM    7  C15 UNL     1     -85.126  37.151 128.853  1.00  0.00     0.056 C 
HETATM    8  F1  UNL     1     -84.476  37.706 131.025  1.00  0.00    -0.239 F 
HETATM    9  C16 UNL     1     -82.762  37.402 129.396  1.00  0.00     0.168 C 
ENDROOT
BRANCH   1  10
HETATM   10  C8  UNL     1     -80.319  37.271 129.659  1.00  0.00     0.054 A 
HETATM   11  C7  UNL     1     -79.687  36.574 128.650  1.00  0.00     0.060 A 
HETATM   12  C6  UNL     1     -78.409  36.923 128.222  1.00  0.00     0.028 A 
HETATM   13 CL1  UNL     1     -80.473  35.223 127.858  1.00  0.00    -0.082 Cl
HETATM   14  C5  UNL     1     -77.730  37.975 128.790  1.00  0.00     0.031 A 
HETATM   15  C4  UNL     1     -78.341  38.693 129.807  1.00  0.00     0.032 A 
HETATM   16  C17 UNL     1     -79.593  38.336 130.211  1.00  0.00     0.060 A 
BRANCH  15  17
HETATM   17  N1  UNL     1     -77.648  39.786 130.396  1.00  0.00    -0.377 N 
HETATM   18  C3  UNL     1     -76.415  39.580 131.088  1.00  0.00     0.147 C 
HETATM   19  C2  UNL     1     -75.585  40.841 131.179  1.00  0.00     0.091 C 
HETATM   20  C1  UNL     1     -74.881  41.108 129.862  1.00  0.00     0.033 C 
HETATM   21  N5  UNL     1     -76.324  41.969 131.650  1.00  0.00    -0.406 N 
HETATM   22  C19 UNL     1     -77.710  41.963 131.395  1.00  0.00     0.034 C 
ATOM     23  H5  UNL     1     -75.873  42.739 132.146  1.00  0.00     0.154 HD
HETATM   24  C18 UNL     1     -78.197  41.098 130.293  1.00  0.00     0.152 C 
HETATM   25  C20 UNL     1     -78.475  41.561 132.664  1.00  0.00     0.039 C 
HETATM   26  C21 UNL     1     -78.147  43.400 131.079  1.00  0.00     0.039 C 
ENDBRANCH  15  17
ENDBRANCH   1  10
BRANCH   3  27
HETATM   27  C11 UNL     1     -82.793  33.941 131.784  1.00  0.00     0.238 C 
BRANCH  27  28
HETATM   28  N3  UNL     1     -81.769  33.714 132.747  1.00  0.00    -0.079 N 
ATOM     29  H33 UNL     1     -80.903  34.171 132.461  1.00  0.00     0.274 HD
ATOM     30  H32 UNL     1     -81.965  34.232 133.603  1.00  0.00     0.274 HD
ATOM     31  H31 UNL     1     -81.599  32.730 132.958  1.00  0.00     0.274 HD
ENDBRANCH  27  28
ENDBRANCH   3  27
BRANCH   4  32
HETATM   32  N4  UNL     1     -83.618  34.666 129.258  1.00  0.00    -0.067 N 
ATOM     33  H43 UNL     1     -84.058  34.952 128.383  1.00  0.00     0.275 HD
ATOM     34  H42 UNL     1     -82.645  34.829 129.000  1.00  0.00     0.275 HD
ATOM     35  H41 UNL     1     -83.794  33.683 129.467  1.00  0.00     0.275 HD
ENDBRANCH   4  32
TORSDOF 5
ENDMDL
MODEL 4
REMARK VINA RESULT: -7.729831211      4.310      7.154
REMARK  5 active torsions:
REMARK  status: ('A' for Active; 'I' for Inactive)
REMARK    1  A    between atoms: N1_4  and  C4_5 
REMARK    2  A    between atoms: C8_10  and  N2_11 
REMARK    3  A    between atoms: C10_13  and  C11_14 
REMARK    4  A    between atoms: C11_14  and  N3_15 
REMARK    5  A    between atoms: C12_19  and  N4_21 
ROOT
HETATM    1  N2  UNL     1     -76.743  38.055 129.768  1.00  0.00    -0.376 N 
HETATM    2  C9  UNL     1     -78.023  38.066 130.402  1.00  0.00     0.132 C 
HETATM    3  C10 UNL     1     -78.693  39.377 130.579  1.00  0.00     0.068 C 
HETATM    4  C12 UNL     1     -77.961  40.577 130.086  1.00  0.00     0.163 C 
HETATM    5  C13 UNL     1     -78.434  41.863 130.739  1.00  0.00     0.050 C 
HETATM    6  C14 UNL     1     -76.510  40.411 130.482  1.00  0.00     0.148 C 
HETATM    7  C15 UNL     1     -75.705  41.632 130.113  1.00  0.00     0.056 C 
HETATM    8  F1  UNL     1     -76.452  40.297 131.875  1.00  0.00    -0.239 F 
HETATM    9  C16 UNL     1     -75.906  39.219 129.820  1.00  0.00     0.168 C 
ENDROOT
BRANCH   1  10
HETATM   10  C8  UNL     1     -76.280  36.899 129.089  1.00  0.00     0.054 A 
HETATM   11  C7  UNL     1     -77.035  36.219 128.156  1.00  0.00     0.060 A 
HETATM   12  C6  UNL     1     -76.542  35.084 127.517  1.00  0.00     0.028 A 
HETATM   13 CL1  UNL     1     -78.645  36.762 127.729  1.00  0.00    -0.082 Cl
HETATM   14  C5  UNL     1     -75.284  34.601 127.793  1.00  0.00     0.031 A 
HETATM   15  C4  UNL     1     -74.504  35.265 128.727  1.00  0.00     0.032 A 
HETATM   16  C17 UNL     1     -75.004  36.374 129.341  1.00  0.00     0.060 A 
BRANCH  15  17
HETATM   17  N1  UNL     1     -73.201  34.774 129.014  1.00  0.00    -0.377 N 
HETATM   18  C3  UNL     1     -72.041  35.496 128.597  1.00  0.00     0.147 C 
HETATM   19  C2  UNL     1     -70.814  35.137 129.406  1.00  0.00     0.091 C 
HETATM   20  C1  UNL     1     -70.846  35.831 130.754  1.00  0.00     0.033 C 
HETATM   21  N5  UNL     1     -70.602  33.728 129.513  1.00  0.00    -0.406 N 
HETATM   22  C19 UNL     1     -71.749  32.913 129.429  1.00  0.00     0.034 C 
ATOM     23  H5  UNL     1     -69.671  33.332 129.642  1.00  0.00     0.154 HD
HETATM   24  C18 UNL     1     -73.059  33.545 129.723  1.00  0.00     0.152 C 
HETATM   25  C20 UNL     1     -71.847  32.288 128.030  1.00  0.00     0.039 C 
HETATM   26  C21 UNL     1     -71.576  31.739 130.402  1.00  0.00     0.039 C 
ENDBRANCH  15  17
ENDBRANCH   1  10
BRANCH   3  27
HETATM   27  C11 UNL     1     -80.103  39.399 130.017  1.00  0.00     0.238 C 
BRANCH  27  28
HETATM   28  N3  UNL     1     -80.745  38.128 129.989  1.00  0.00    -0.079 N 
ATOM     29  H33 UNL     1     -80.094  37.394 130.270  1.00  0.00     0.274 HD
ATOM     30  H32 UNL     1     -81.424  38.056 130.746  1.00  0.00     0.274 HD
ATOM     31  H31 UNL     1     -81.180  37.895 129.097  1.00  0.00     0.274 HD
ENDBRANCH  27  28
ENDBRANCH   3  27
BRANCH   4  32
HETATM   32  N4  UNL     1     -78.082  40.695 128.667  1.00  0.00    -0.067 N 
ATOM     33  H43 UNL     1     -77.992  39.790 128.204  1.00  0.00     0.275 HD
ATOM     34  H42 UNL     1     -79.037  40.916 128.387  1.00  0.00     0.275 HD
ATOM     35  H41 UNL     1     -77.413  41.374 128.304  1.00  0.00     0.275 HD
ENDBRANCH   4  32
TORSDOF 5
ENDMDL
MODEL 5
REMARK VINA RESULT: -7.687948610      1.968      3.189
REMARK  5 active torsions:
REMARK  status: ('A' for Active; 'I' for Inactive)
REMARK    1  A    between atoms: N1_4  and  C4_5 
REMARK    2  A    between atoms: C8_10  and  N2_11 
REMARK    3  A    between atoms: C10_13  and  C11_14 
REMARK    4  A    between atoms: C11_14  and  N3_15 
REMARK    5  A    between atoms: C12_19  and  N4_21 
ROOT
HETATM    1  N2  UNL     1     -79.215  40.228 130.212  1.00  0.00    -0.376 N 
HETATM    2  C9  UNL     1     -77.826  40.501 130.017  1.00  0.00     0.132 C 
HETATM    3  C10 UNL     1     -77.219  41.589 130.820  1.00  0.00     0.068 C 
HETATM    4  C12 UNL     1     -78.120  42.316 131.757  1.00  0.00     0.163 C 
HETATM    5  C13 UNL     1     -77.592  43.687 132.136  1.00  0.00     0.050 C 
HETATM    6  C14 UNL     1     -79.427  42.551 131.031  1.00  0.00     0.148 C 
HETATM    7  C15 UNL     1     -80.371  43.375 131.870  1.00  0.00     0.056 C 
HETATM    8  F1  UNL     1     -79.153  43.300 129.881  1.00  0.00    -0.239 F 
HETATM    9  C16 UNL     1     -80.090  41.261 130.687  1.00  0.00     0.168 C 
ENDROOT
BRANCH   1  10
HETATM   10  C8  UNL     1     -79.748  38.943 129.934  1.00  0.00     0.054 A 
HETATM   11  C7  UNL     1     -79.029  37.948 129.306  1.00  0.00     0.060 A 
HETATM   12  C6  UNL     1     -79.594  36.701 129.048  1.00  0.00     0.028 A 
HETATM   13 CL1  UNL     1     -77.368  38.208 128.815  1.00  0.00    -0.082 Cl
HETATM   14  C5  UNL     1     -80.891  36.419 129.409  1.00  0.00     0.031 A 
HETATM   15  C4  UNL     1     -81.637  37.402 130.041  1.00  0.00     0.032 A 
HETATM   16  C17 UNL     1     -81.065  38.615 130.286  1.00  0.00     0.060 A 
BRANCH  15  17
HETATM   17  N1  UNL     1     -82.977  37.116 130.423  1.00  0.00    -0.377 N 
HETATM   18  C3  UNL     1     -83.252  36.329 131.583  1.00  0.00     0.147 C 
HETATM   19  C2  UNL     1     -84.648  36.561 132.120  1.00  0.00     0.091 C 
HETATM   20  C1  UNL     1     -84.706  37.859 132.901  1.00  0.00     0.033 C 
HETATM   21  N5  UNL     1     -85.660  36.472 131.115  1.00  0.00    -0.406 N 
HETATM   22  C19 UNL     1     -85.267  36.788 129.799  1.00  0.00     0.034 C 
ATOM     23  H5  UNL     1     -86.616  36.195 131.338  1.00  0.00     0.154 HD
HETATM   24  C18 UNL     1     -84.050  37.619 129.631  1.00  0.00     0.152 C 
HETATM   25  C20 UNL     1     -85.055  35.499 128.992  1.00  0.00     0.039 C 
HETATM   26  C21 UNL     1     -86.426  37.525 129.116  1.00  0.00     0.039 C 
ENDBRANCH  15  17
ENDBRANCH   1  10
BRANCH   3  27
HETATM   27  C11 UNL     1     -75.981  41.143 131.577  1.00  0.00     0.238 C 
BRANCH  27  28
HETATM   28  N3  UNL     1     -75.456  39.888 131.157  1.00  0.00    -0.079 N 
ATOM     29  H33 UNL     1     -74.998  39.979 130.250  1.00  0.00     0.274 HD
ATOM     30  H32 UNL     1     -74.654  39.628 131.732  1.00  0.00     0.274 HD
ATOM     31  H31 UNL     1     -76.139  39.131 131.136  1.00  0.00     0.274 HD
ENDBRANCH  27  28
ENDBRANCH   3  27
BRANCH   4  32
HETATM   32  N4  UNL     1     -78.339  41.549 132.943  1.00  0.00    -0.067 N 
ATOM     33  H43 UNL     1     -79.333  41.428 133.137  1.00  0.00     0.275 HD
ATOM     34  H42 UNL     1     -78.089  40.569 132.811  1.00  0.00     0.275 HD
ATOM     35  H41 UNL     1     -77.846  41.962 133.735  1.00  0.00     0.275 HD
ENDBRANCH   4  32
TORSDOF 5
ENDMDL
