MODEL 1
REMARK VINA RESULT: -8.654843171      0.000      0.000
REMARK  5 active torsions:
REMARK  status: ('A' for Active; 'I' for Inactive)
REMARK    1  A    between atoms: C5_5  and  N1_6 
REMARK    2  A    between atoms: N1_6  and  C6_8 
REMARK    3  A    between atoms: N3_11  and  C7_12 
REMARK    4  A    between atoms: C15_21  and  C16_22 
REMARK    5  A    between atoms: C17_25  and  O2_26 
ROOT
HETATM    1  C7  UNL     1     -78.740  40.971 130.520  1.00  0.00     0.108 C 
HETATM    2  C8  UNL     1     -79.947  41.840 130.686  1.00  0.00     0.027 C 
HETATM    3  C9  UNL     1     -79.552  43.134 131.361  1.00  0.00     0.004 C 
HETATM    4  C10 UNL     1     -79.109  42.763 132.780  1.00  0.00     0.019 C 
HETATM    5  C11 UNL     1     -77.822  41.987 132.630  1.00  0.00     0.095 C 
HETATM    6  C12 UNL     1     -76.823  42.936 132.098  1.00  0.00     0.064 C 
HETATM    7  N4  UNL     1     -76.047  43.688 131.683  1.00  0.00    -0.197 NA
HETATM    8  C13 UNL     1     -77.955  40.771 131.776  1.00  0.00     0.046 C 
ENDROOT
BRANCH   1   9
HETATM    9  N3  UNL     1     -79.156  39.646 130.037  1.00  0.00    -0.296 N 
HETATM   10  N2  UNL     1     -80.312  39.036 130.294  1.00  0.00    -0.283 N 
HETATM   11  C6  UNL     1     -80.351  37.838 129.689  1.00  0.00     0.133 A 
ATOM     12  H2  UNL     1     -81.060  39.424 130.868  1.00  0.00     0.189 HD
HETATM   13  C15 UNL     1     -79.141  37.718 129.024  1.00  0.00     0.091 A 
HETATM   14  C14 UNL     1     -78.390  38.878 129.256  1.00  0.00     0.131 A 
BRANCH  11  15
HETATM   15  N1  UNL     1     -81.269  36.974 129.695  1.00  0.00    -0.367 N 
ATOM     16  H1  UNL     1     -81.510  36.578 128.786  1.00  0.00     0.161 HD
BRANCH  15  17
HETATM   17  C5  UNL     1     -82.010  36.478 130.799  1.00  0.00     0.113 C 
HETATM   18  C4  UNL     1     -81.701  35.045 131.168  1.00  0.00     0.042 C 
HETATM   19  C2  UNL     1     -82.329  34.705 132.483  1.00  0.00     0.021 C 
HETATM   20  C1  UNL     1     -81.195  34.707 133.521  1.00  0.00     0.021 C 
HETATM   21  C3  UNL     1     -82.838  33.256 132.508  1.00  0.00     0.021 C 
HETATM   22  C21 UNL     1     -83.367  35.640 132.959  1.00  0.00     0.260 C 
HETATM   23  C18 UNL     1     -84.155  36.359 131.936  1.00  0.00     0.047 C 
HETATM   24  F1  UNL     1     -84.274  34.893 133.730  1.00  0.00    -0.205 F 
HETATM   25  F2  UNL     1     -82.817  36.548 133.877  1.00  0.00    -0.205 F 
HETATM   26  C17 UNL     1     -83.506  36.564 130.611  1.00  0.00     0.154 C 
HETATM   27  C19 UNL     1     -84.502  37.744 132.505  1.00  0.00     0.024 C 
HETATM   28  C20 UNL     1     -85.518  35.703 131.679  1.00  0.00     0.024 C 
BRANCH  26  29
HETATM   29  O2  UNL     1     -83.976  35.577 129.745  1.00  0.00    -0.393 OA
ATOM     30  H2  UNL     1     -83.590  34.729 129.932  1.00  0.00     0.210 HD
ENDBRANCH  26  29
ENDBRANCH  15  17
ENDBRANCH  11  15
BRANCH  13  31
HETATM   31  C16 UNL     1     -78.658  36.621 128.213  1.00  0.00     0.270 C 
HETATM   32  N5  UNL     1     -79.527  35.854 127.413  1.00  0.00    -0.057 NA
HETATM   33  O1  UNL     1     -77.437  36.351 128.226  1.00  0.00    -0.271 OA
ENDBRANCH  13  31
ENDBRANCH   1   9
TORSDOF 5
ENDMDL
MODEL 2
REMARK VINA RESULT: -8.539372352      5.393      8.829
REMARK  5 active torsions:
REMARK  status: ('A' for Active; 'I' for Inactive)
REMARK    1  A    between atoms: C5_5  and  N1_6 
REMARK    2  A    between atoms: N1_6  and  C6_8 
REMARK    3  A    between atoms: N3_11  and  C7_12 
REMARK    4  A    between atoms: C15_21  and  C16_22 
REMARK    5  A    between atoms: C17_25  and  O2_26 
ROOT
HETATM    1  C7  UNL     1     -77.190  35.860 128.004  1.00  0.00     0.108 C 
HETATM    2  C8  UNL     1     -78.390  36.650 128.422  1.00  0.00     0.027 C 
HETATM    3  C9  UNL     1     -79.600  36.184 127.644  1.00  0.00     0.004 C 
HETATM    4  C10 UNL     1     -79.344  36.560 126.181  1.00  0.00     0.019 C 
HETATM    5  C11 UNL     1     -78.210  35.679 125.713  1.00  0.00     0.095 C 
HETATM    6  C12 UNL     1     -78.727  34.296 125.721  1.00  0.00     0.064 C 
HETATM    7  N4  UNL     1     -79.142  33.215 125.729  1.00  0.00    -0.197 NA
HETATM    8  C13 UNL     1     -76.968  35.822 126.527  1.00  0.00     0.046 C 
ENDROOT
BRANCH   1   9
HETATM    9  N3  UNL     1     -75.987  36.438 128.622  1.00  0.00    -0.296 N 
HETATM   10  N2  UNL     1     -75.873  37.657 129.144  1.00  0.00    -0.283 N 
HETATM   11  C6  UNL     1     -74.632  37.846 129.620  1.00  0.00     0.133 A 
ATOM     12  H2  UNL     1     -76.621  38.349 129.178  1.00  0.00     0.189 HD
HETATM   13  C15 UNL     1     -73.954  36.663 129.369  1.00  0.00     0.091 A 
HETATM   14  C14 UNL     1     -74.831  35.776 128.732  1.00  0.00     0.131 A 
BRANCH  11  15
HETATM   15  N1  UNL     1     -74.141  38.863 130.182  1.00  0.00    -0.367 N 
ATOM     16  H1  UNL     1     -73.151  38.802 130.422  1.00  0.00     0.161 HD
BRANCH  15  17
HETATM   17  C5  UNL     1     -74.784  40.080 130.526  1.00  0.00     0.113 C 
HETATM   18  C4  UNL     1     -76.219  40.184 130.060  1.00  0.00     0.042 C 
HETATM   19  C2  UNL     1     -76.879  41.371 130.686  1.00  0.00     0.021 C 
HETATM   20  C1  UNL     1     -77.790  40.826 131.799  1.00  0.00     0.021 C 
HETATM   21  C3  UNL     1     -77.860  42.049 129.718  1.00  0.00     0.021 C 
HETATM   22  C21 UNL     1     -75.972  42.359 131.302  1.00  0.00     0.260 C 
HETATM   23  C18 UNL     1     -74.621  42.498 130.719  1.00  0.00     0.047 C 
HETATM   24  F1  UNL     1     -76.596  43.615 131.198  1.00  0.00    -0.205 F 
HETATM   25  F2  UNL     1     -75.885  42.143 132.686  1.00  0.00    -0.205 F 
HETATM   26  C17 UNL     1     -74.071  41.308 130.011  1.00  0.00     0.154 C 
HETATM   27  C19 UNL     1     -73.654  42.849 131.861  1.00  0.00     0.024 C 
HETATM   28  C20 UNL     1     -74.517  43.688 129.756  1.00  0.00     0.024 C 
BRANCH  26  29
HETATM   29  O2  UNL     1     -74.275  41.489 128.643  1.00  0.00    -0.393 OA
ATOM     30  H2  UNL     1     -73.506  41.255 128.137  1.00  0.00     0.210 HD
ENDBRANCH  26  29
ENDBRANCH  15  17
ENDBRANCH  11  15
BRANCH  13  31
HETATM   31  C16 UNL     1     -72.581  36.324 129.677  1.00  0.00     0.270 C 
HETATM   32  N5  UNL     1     -72.016  35.094 129.287  1.00  0.00    -0.057 NA
HETATM   33  O1  UNL     1     -71.882  37.148 130.307  1.00  0.00    -0.271 OA
ENDBRANCH  13  31
ENDBRANCH   1   9
TORSDOF 5
ENDMDL
MODEL 3
REMARK VINA RESULT: -8.326560173      3.892      8.137
REMARK  5 active torsions:
REMARK  status: ('A' for Active; 'I' for Inactive)
REMARK    1  A    between atoms: C5_5  and  N1_6 
REMARK    2  A    between atoms: N1_6  and  C6_8 
REMARK    3  A    between atoms: N3_11  and  C7_12 
REMARK    4  A    between atoms: C15_21  and  C16_22 
REMARK    5  A    between atoms: C17_25  and  O2_26 
ROOT
HETATM    1  C7  UNL     1     -78.284  36.377 127.123  1.00  0.00     0.108 C 
HETATM    2  C8  UNL     1     -76.889  36.014 127.525  1.00  0.00     0.027 C 
HETATM    3  C9  UNL     1     -76.263  35.147 126.456  1.00  0.00     0.004 C 
HETATM    4  C10 UNL     1     -77.050  33.832 126.452  1.00  0.00     0.019 C 
HETATM    5  C11 UNL     1     -78.427  34.168 125.931  1.00  0.00     0.095 C 
HETATM    6  C12 UNL     1     -78.252  34.574 124.522  1.00  0.00     0.064 C 
HETATM    7  N4  UNL     1     -78.104  34.888 123.418  1.00  0.00    -0.197 NA
HETATM    8  C13 UNL     1     -79.131  35.210 126.734  1.00  0.00     0.046 C 
ENDROOT
BRANCH   1   9
HETATM    9  N3  UNL     1     -78.951  37.060 128.242  1.00  0.00    -0.296 N 
HETATM   10  N2  UNL     1     -78.453  38.056 128.973  1.00  0.00    -0.283 N 
HETATM   11  C6  UNL     1     -79.338  38.435 129.908  1.00  0.00     0.133 A 
ATOM     12  H2  UNL     1     -77.531  38.472 128.840  1.00  0.00     0.189 HD
HETATM   13  C15 UNL     1     -80.441  37.615 129.731  1.00  0.00     0.091 A 
HETATM   14  C14 UNL     1     -80.179  36.744 128.665  1.00  0.00     0.131 A 
BRANCH  11  15
HETATM   15  N1  UNL     1     -79.233  39.338 130.783  1.00  0.00    -0.367 N 
ATOM     16  H1  UNL     1     -79.833  39.232 131.602  1.00  0.00     0.161 HD
BRANCH  15  17
HETATM   17  C5  UNL     1     -78.392  40.481 130.779  1.00  0.00     0.113 C 
HETATM   18  C4  UNL     1     -76.929  40.182 131.015  1.00  0.00     0.042 C 
HETATM   19  C2  UNL     1     -76.103  41.398 130.735  1.00  0.00     0.021 C 
HETATM   20  C1  UNL     1     -75.432  41.165 129.372  1.00  0.00     0.021 C 
HETATM   21  C3  UNL     1     -74.919  41.512 131.705  1.00  0.00     0.021 C 
HETATM   22  C21 UNL     1     -76.845  42.671 130.651  1.00  0.00     0.260 C 
HETATM   23  C18 UNL     1     -78.079  42.794 131.455  1.00  0.00     0.047 C 
HETATM   24  F1  UNL     1     -75.972  43.687 131.076  1.00  0.00    -0.205 F 
HETATM   25  F2  UNL     1     -77.105  42.994 129.309  1.00  0.00    -0.205 F 
HETATM   26  C17 UNL     1     -78.789  41.528 131.791  1.00  0.00     0.154 C 
HETATM   27  C19 UNL     1     -79.057  43.685 130.674  1.00  0.00     0.024 C 
HETATM   28  C20 UNL     1     -77.847  43.549 132.771  1.00  0.00     0.024 C 
BRANCH  26  29
HETATM   29  O2  UNL     1     -78.424  41.161 133.086  1.00  0.00    -0.393 OA
ATOM     30  H2  UNL     1     -78.925  41.633 133.742  1.00  0.00     0.210 HD
ENDBRANCH  26  29
ENDBRANCH  15  17
ENDBRANCH  11  15
BRANCH  13  31
HETATM   31  C16 UNL     1     -81.684  37.596 130.473  1.00  0.00     0.270 C 
HETATM   32  N5  UNL     1     -82.128  36.440 131.144  1.00  0.00    -0.057 NA
HETATM   33  O1  UNL     1     -82.377  38.636 130.516  1.00  0.00    -0.271 OA
ENDBRANCH  13  31
ENDBRANCH   1   9
TORSDOF 5
ENDMDL
MODEL 4
REMARK VINA RESULT: -8.271807825      2.173      5.222
REMARK  5 active torsions:
REMARK  status: ('A' for Active; 'I' for Inactive)
REMARK    1  A    between atoms: C5_5  and  N1_6 
REMARK    2  A    between atoms: N1_6  and  C6_8 
REMARK    3  A    between atoms: N3_11  and  C7_12 
REMARK    4  A    between atoms: C15_21  and  C16_22 
REMARK    5  A    between atoms: C17_25  and  O2_26 
ROOT
HETATM    1  C7  UNL     1     -77.975  36.598 127.574  1.00  0.00     0.108 C 
HETATM    2  C8  UNL     1     -76.714  36.271 128.312  1.00  0.00     0.027 C 
HETATM    3  C9  UNL     1     -75.873  35.326 127.484  1.00  0.00     0.004 C 
HETATM    4  C10 UNL     1     -76.656  34.013 127.399  1.00  0.00     0.019 C 
HETATM    5  C11 UNL     1     -77.873  34.302 126.552  1.00  0.00     0.095 C 
HETATM    6  C12 UNL     1     -77.374  34.599 125.194  1.00  0.00     0.064 C 
HETATM    7  N4  UNL     1     -76.973  34.828 124.133  1.00  0.00    -0.197 NA
HETATM    8  C13 UNL     1     -78.727  35.401 127.092  1.00  0.00     0.046 C 
ENDROOT
BRANCH   1   9
HETATM    9  N3  UNL     1     -78.870  37.363 128.455  1.00  0.00    -0.296 N 
HETATM   10  N2  UNL     1     -80.070  36.982 128.890  1.00  0.00    -0.283 N 
HETATM   11  C6  UNL     1     -80.604  37.930 129.676  1.00  0.00     0.133 A 
ATOM     12  H2  UNL     1     -80.519  36.096 128.658  1.00  0.00     0.189 HD
HETATM   13  C15 UNL     1     -79.665  38.948 129.719  1.00  0.00     0.091 A 
HETATM   14  C14 UNL     1     -78.566  38.572 128.936  1.00  0.00     0.131 A 
BRANCH  11  15
HETATM   15  N1  UNL     1     -81.716  37.937 130.270  1.00  0.00    -0.367 N 
ATOM     16  H1  UNL     1     -82.219  38.825 130.257  1.00  0.00     0.161 HD
BRANCH  15  17
HETATM   17  C5  UNL     1     -82.360  36.874 130.955  1.00  0.00     0.113 C 
HETATM   18  C4  UNL     1     -81.419  35.893 131.616  1.00  0.00     0.042 C 
HETATM   19  C2  UNL     1     -82.182  34.974 132.516  1.00  0.00     0.021 C 
HETATM   20  C1  UNL     1     -81.918  35.452 133.953  1.00  0.00     0.021 C 
HETATM   21  C3  UNL     1     -81.601  33.552 132.497  1.00  0.00     0.021 C 
HETATM   22  C21 UNL     1     -83.645  34.952 132.320  1.00  0.00     0.260 C 
HETATM   23  C18 UNL     1     -84.153  35.232 130.960  1.00  0.00     0.047 C 
HETATM   24  F1  UNL     1     -84.090  33.665 132.669  1.00  0.00    -0.205 F 
HETATM   25  F2  UNL     1     -84.273  35.788 133.256  1.00  0.00    -0.205 F 
HETATM   26  C17 UNL     1     -83.285  36.063 130.079  1.00  0.00     0.154 C 
HETATM   27  C19 UNL     1     -85.500  35.956 131.106  1.00  0.00     0.024 C 
HETATM   28  C20 UNL     1     -84.493  33.951 130.186  1.00  0.00     0.024 C 
BRANCH  26  29
HETATM   29  O2  UNL     1     -82.580  35.204 129.236  1.00  0.00    -0.393 OA
ATOM     30  H2  UNL     1     -82.459  34.346 129.627  1.00  0.00     0.210 HD
ENDBRANCH  26  29
ENDBRANCH  15  17
ENDBRANCH  11  15
BRANCH  13  31
HETATM   31  C16 UNL     1     -79.731  40.211 130.424  1.00  0.00     0.270 C 
HETATM   32  N5  UNL     1     -78.623  40.728 131.123  1.00  0.00    -0.057 NA
HETATM   33  O1  UNL     1     -80.802  40.856 130.408  1.00  0.00    -0.271 OA
ENDBRANCH  13  31
ENDBRANCH   1   9
TORSDOF 5
ENDMDL
MODEL 5
REMARK VINA RESULT: -8.219936192      3.621      7.524
REMARK  5 active torsions:
REMARK  status: ('A' for Active; 'I' for Inactive)
REMARK    1  A    between atoms: C5_5  and  N1_6 
REMARK    2  A    between atoms: N1_6  and  C6_8 
REMARK    3  A    between atoms: N3_11  and  C7_12 
REMARK    4  A    between atoms: C15_21  and  C16_22 
REMARK    5  A    between atoms: C17_25  and  O2_26 
ROOT
HETATM    1  C7  UNL     1     -81.295  36.725 129.434  1.00  0.00     0.108 C 
HETATM    2  C8  UNL     1     -81.457  35.881 130.660  1.00  0.00     0.027 C 
HETATM    3  C9  UNL     1     -82.922  35.791 131.022  1.00  0.00     0.004 C 
HETATM    4  C10 UNL     1     -83.354  37.203 131.430  1.00  0.00     0.019 C 
HETATM    5  C11 UNL     1     -83.310  38.036 130.171  1.00  0.00     0.095 C 
HETATM    6  C12 UNL     1     -84.359  37.502 129.281  1.00  0.00     0.064 C 
HETATM    7  N4  UNL     1     -85.186  37.077 128.591  1.00  0.00    -0.197 NA
HETATM    8  C13 UNL     1     -81.970  38.055 129.515  1.00  0.00     0.046 C 
ENDROOT
BRANCH   1   9
HETATM    9  N3  UNL     1     -79.863  36.964 129.194  1.00  0.00    -0.296 N 
HETATM   10  N2  UNL     1     -79.114  37.913 129.752  1.00  0.00    -0.283 N 
HETATM   11  C6  UNL     1     -77.852  37.835 129.300  1.00  0.00     0.133 A 
ATOM     12  H2  UNL     1     -79.451  38.600 130.425  1.00  0.00     0.189 HD
HETATM   13  C15 UNL     1     -77.840  36.770 128.414  1.00  0.00     0.091 A 
HETATM   14  C14 UNL     1     -79.129  36.225 128.356  1.00  0.00     0.131 A 
BRANCH  11  15
HETATM   15  N1  UNL     1     -76.857  38.553 129.592  1.00  0.00    -0.367 N 
ATOM     16  H1  UNL     1     -75.948  38.094 129.537  1.00  0.00     0.161 HD
BRANCH  15  17
HETATM   17  C5  UNL     1     -76.836  39.917 129.985  1.00  0.00     0.113 C 
HETATM   18  C4  UNL     1     -75.502  40.395 130.513  1.00  0.00     0.042 C 
HETATM   19  C2  UNL     1     -75.507  41.884 130.653  1.00  0.00     0.021 C 
HETATM   20  C1  UNL     1     -74.690  42.435 129.473  1.00  0.00     0.021 C 
HETATM   21  C3  UNL     1     -74.713  42.340 131.885  1.00  0.00     0.021 C 
HETATM   22  C21 UNL     1     -76.835  42.528 130.610  1.00  0.00     0.260 C 
HETATM   23  C18 UNL     1     -77.987  41.743 131.101  1.00  0.00     0.047 C 
HETATM   24  F1  UNL     1     -76.759  43.688 131.400  1.00  0.00    -0.205 F 
HETATM   25  F2  UNL     1     -77.095  43.019 129.321  1.00  0.00    -0.205 F 
HETATM   26  C17 UNL     1     -77.865  40.260 131.036  1.00  0.00     0.154 C 
HETATM   27  C19 UNL     1     -79.215  42.148 130.271  1.00  0.00     0.024 C 
HETATM   28  C20 UNL     1     -78.370  42.104 132.543  1.00  0.00     0.024 C 
BRANCH  26  29
HETATM   29  O2  UNL     1     -77.489  39.802 132.298  1.00  0.00    -0.393 OA
ATOM     30  H2  UNL     1     -77.488  38.853 132.344  1.00  0.00     0.210 HD
ENDBRANCH  26  29
ENDBRANCH  15  17
ENDBRANCH  11  15
BRANCH  13  31
HETATM   31  C16 UNL     1     -76.732  36.248 127.641  1.00  0.00     0.270 C 
HETATM   32  N5  UNL     1     -75.417  36.237 128.146  1.00  0.00    -0.057 NA
HETATM   33  O1  UNL     1     -76.955  35.795 126.497  1.00  0.00    -0.271 OA
ENDBRANCH  13  31
ENDBRANCH   1   9
TORSDOF 5
ENDMDL
