MODEL 1
REMARK VINA RESULT: -10.035090322      0.000      0.000
REMARK  5 active torsions:
REMARK  status: ('A' for Active; 'I' for Inactive)
REMARK    1  A    between atoms: C2_5  and  N3_6 
REMARK    2  A    between atoms: N3_6  and  C3_8 
REMARK    3  A    between atoms: C6_11  and  C7_12 
REMARK    4  A    between atoms: C7_12  and  C8_13 
REMARK    5  A    between atoms: C8_13  and  O1_14 
ROOT
HETATM    1  C3  UNL     1     -75.563  36.297 128.278  1.00  0.00     0.083 C 
HETATM    2  C4  UNL     1     -75.300  37.595 128.974  1.00  0.00     0.025 C 
HETATM    3  C5  UNL     1     -76.436  37.735 130.035  1.00  0.00     0.007 C 
HETATM    4  C6  UNL     1     -77.602  38.196 129.238  1.00  0.00    -0.009 C 
HETATM    5  C13 UNL     1     -77.970  37.059 128.299  1.00  0.00     0.007 C 
HETATM    6  C14 UNL     1     -77.013  35.963 128.161  1.00  0.00     0.025 C 
ENDROOT
BRANCH   1   7
HETATM    7  N3  UNL     1     -74.827  35.260 128.979  1.00  0.00    -0.370 N 
ATOM      8  H3  UNL     1     -75.285  34.376 129.202  1.00  0.00     0.161 HD
BRANCH   7   9
HETATM    9  C2  UNL     1     -73.575  35.452 129.326  1.00  0.00     0.129 A 
HETATM   10  N2  UNL     1     -73.056  36.626 129.710  1.00  0.00    -0.283 N 
HETATM   11  N1  UNL     1     -71.765  36.433 129.982  1.00  0.00    -0.294 N 
ATOM     12  H2  UNL     1     -73.559  37.511 129.782  1.00  0.00     0.189 HD
HETATM   13  C1  UNL     1     -70.848  37.481 130.435  1.00  0.00     0.178 C 
HETATM   14  C20 UNL     1     -71.433  35.142 129.780  1.00  0.00     0.067 A 
HETATM   15  C15 UNL     1     -72.579  34.501 129.359  1.00  0.00     0.039 A 
HETATM   16  C19 UNL     1     -70.247  34.434 129.913  1.00  0.00     0.076 A 
HETATM   17  C16 UNL     1     -72.567  33.150 129.066  1.00  0.00     0.044 A 
HETATM   18  C17 UNL     1     -71.367  32.457 129.206  1.00  0.00     0.073 A 
HETATM   19 CL1  UNL     1     -71.330  30.746 128.841  1.00  0.00    -0.081 Cl
HETATM   20  C18 UNL     1     -70.221  33.104 129.628  1.00  0.00     0.140 A 
HETATM   21  F1  UNL     1     -69.042  32.443 129.770  1.00  0.00    -0.204 F 
ENDBRANCH   7   9
ENDBRANCH   1   7
BRANCH   4  22
HETATM   22  C7  UNL     1     -78.816  38.682 129.905  1.00  0.00     0.073 C 
BRANCH  22  23
HETATM   23  C8  UNL     1     -79.048  40.131 130.091  1.00  0.00     0.163 C 
HETATM   24  C9  UNL     1     -78.184  40.951 129.145  1.00  0.00     0.087 C 
HETATM   25  C10 UNL     1     -77.782  42.201 129.953  1.00  0.00     0.119 C 
HETATM   26  N4  UNL     1     -78.978  43.007 130.048  1.00  0.00    -0.419 N 
HETATM   27  C11 UNL     1     -79.853  42.672 131.118  1.00  0.00     0.140 C 
ATOM     28  H4  UNL     1     -79.181  43.762 129.394  1.00  0.00     0.153 HD
HETATM   29  C12 UNL     1     -80.722  41.483 130.927  1.00  0.00     0.190 C 
HETATM   30  O2  UNL     1     -80.334  40.578 129.976  1.00  0.00    -0.354 OA
BRANCH  23  31
HETATM   31  O1  UNL     1     -78.570  40.400 131.422  1.00  0.00    -0.365 OA
ATOM     32  H1  UNL     1     -77.751  40.862 131.289  1.00  0.00     0.213 HD
ENDBRANCH  23  31
ENDBRANCH  22  23
ENDBRANCH   4  22
TORSDOF 5
ENDMDL
MODEL 2
REMARK VINA RESULT: -9.605749746      5.480      8.046
REMARK  5 active torsions:
REMARK  status: ('A' for Active; 'I' for Inactive)
REMARK    1  A    between atoms: C2_5  and  N3_6 
REMARK    2  A    between atoms: N3_6  and  C3_8 
REMARK    3  A    between atoms: C6_11  and  C7_12 
REMARK    4  A    between atoms: C7_12  and  C8_13 
REMARK    5  A    between atoms: C8_13  and  O1_14 
ROOT
HETATM    1  C3  UNL     1     -78.318  38.804 129.912  1.00  0.00     0.083 C 
HETATM    2  C4  UNL     1     -77.393  37.693 129.527  1.00  0.00     0.025 C 
HETATM    3  C5  UNL     1     -77.907  37.185 128.145  1.00  0.00     0.007 C 
HETATM    4  C6  UNL     1     -79.070  36.330 128.498  1.00  0.00    -0.009 C 
HETATM    5  C13 UNL     1     -80.128  37.249 129.086  1.00  0.00     0.007 C 
HETATM    6  C14 UNL     1     -79.720  38.608 129.438  1.00  0.00     0.025 C 
ENDROOT
BRANCH   1   7
HETATM    7  N3  UNL     1     -77.751  40.046 129.417  1.00  0.00    -0.370 N 
ATOM      8  H3  UNL     1     -77.527  40.141 128.426  1.00  0.00     0.161 HD
BRANCH   7   9
HETATM    9  C2  UNL     1     -77.526  41.047 130.236  1.00  0.00     0.129 A 
HETATM   10  N2  UNL     1     -78.477  41.775 130.839  1.00  0.00    -0.283 N 
HETATM   11  N1  UNL     1     -77.872  42.696 131.590  1.00  0.00    -0.294 N 
ATOM     12  H2  UNL     1     -79.484  41.647 130.741  1.00  0.00     0.189 HD
HETATM   13  C1  UNL     1     -78.571  43.688 132.407  1.00  0.00     0.178 C 
HETATM   14  C20 UNL     1     -76.532  42.579 131.484  1.00  0.00     0.067 A 
HETATM   15  C15 UNL     1     -76.295  41.530 130.622  1.00  0.00     0.039 A 
HETATM   16  C19 UNL     1     -75.470  43.274 132.046  1.00  0.00     0.076 A 
HETATM   17  C16 UNL     1     -75.003  41.153 130.304  1.00  0.00     0.044 A 
HETATM   18  C17 UNL     1     -73.951  41.862 130.879  1.00  0.00     0.073 A 
HETATM   19 CL1  UNL     1     -72.308  41.402 130.491  1.00  0.00    -0.081 Cl
HETATM   20  C18 UNL     1     -74.195  42.913 131.742  1.00  0.00     0.140 A 
HETATM   21  F1  UNL     1     -73.180  43.616 132.311  1.00  0.00    -0.204 F 
ENDBRANCH   7   9
ENDBRANCH   1   7
BRANCH   4  22
HETATM   22  C7  UNL     1     -79.692  35.463 127.490  1.00  0.00     0.073 C 
BRANCH  22  23
HETATM   23  C8  UNL     1     -78.942  35.043 126.287  1.00  0.00     0.163 C 
HETATM   24  C9  UNL     1     -77.474  34.809 126.609  1.00  0.00     0.087 C 
HETATM   25  C10 UNL     1     -76.707  35.299 125.364  1.00  0.00     0.119 C 
HETATM   26  N4  UNL     1     -76.955  34.311 124.338  1.00  0.00    -0.419 N 
HETATM   27  C11 UNL     1     -78.155  34.493 123.596  1.00  0.00     0.140 C 
ATOM     28  H4  UNL     1     -76.315  33.538 124.159  1.00  0.00     0.153 HD
HETATM   29  C12 UNL     1     -79.419  34.069 124.249  1.00  0.00     0.190 C 
HETATM   30  O2  UNL     1     -79.402  33.947 125.613  1.00  0.00    -0.354 OA
BRANCH  23  31
HETATM   31  O1  UNL     1     -78.994  36.190 125.417  1.00  0.00    -0.365 OA
ATOM     32  H1  UNL     1     -78.420  36.824 125.831  1.00  0.00     0.213 HD
ENDBRANCH  23  31
ENDBRANCH  22  23
ENDBRANCH   4  22
TORSDOF 5
ENDMDL
MODEL 3
REMARK VINA RESULT: -9.576139362      5.229      8.055
REMARK  5 active torsions:
REMARK  status: ('A' for Active; 'I' for Inactive)
REMARK    1  A    between atoms: C2_5  and  N3_6 
REMARK    2  A    between atoms: N3_6  and  C3_8 
REMARK    3  A    between atoms: C6_11  and  C7_12 
REMARK    4  A    between atoms: C7_12  and  C8_13 
REMARK    5  A    between atoms: C8_13  and  O1_14 
ROOT
HETATM    1  C3  UNL     1     -77.069  38.272 129.286  1.00  0.00     0.083 C 
HETATM    2  C4  UNL     1     -78.367  38.470 128.570  1.00  0.00     0.025 C 
HETATM    3  C5  UNL     1     -79.039  37.063 128.532  1.00  0.00     0.007 C 
HETATM    4  C6  UNL     1     -78.331  36.368 127.425  1.00  0.00    -0.009 C 
HETATM    5  C13 UNL     1     -76.889  36.191 127.869  1.00  0.00     0.007 C 
HETATM    6  C14 UNL     1     -76.450  36.936 129.047  1.00  0.00     0.025 C 
ENDROOT
BRANCH   1   7
HETATM    7  N3  UNL     1     -77.300  38.514 130.699  1.00  0.00    -0.370 N 
ATOM      8  H3  UNL     1     -77.491  37.730 131.323  1.00  0.00     0.161 HD
BRANCH   7   9
HETATM    9  C2  UNL     1     -77.263  39.735 131.179  1.00  0.00     0.129 A 
HETATM   10  N2  UNL     1     -78.309  40.382 131.714  1.00  0.00    -0.283 N 
HETATM   11  N1  UNL     1     -77.893  41.592 132.090  1.00  0.00    -0.294 N 
ATOM     12  H2  UNL     1     -79.255  40.014 131.815  1.00  0.00     0.189 HD
HETATM   13  C1  UNL     1     -78.745  42.602 132.719  1.00  0.00     0.178 C 
HETATM   14  C20 UNL     1     -76.583  41.745 131.806  1.00  0.00     0.067 A 
HETATM   15  C15 UNL     1     -76.166  40.567 131.223  1.00  0.00     0.039 A 
HETATM   16  C19 UNL     1     -75.687  42.789 131.988  1.00  0.00     0.076 A 
HETATM   17  C16 UNL     1     -74.855  40.406 130.814  1.00  0.00     0.044 A 
HETATM   18  C17 UNL     1     -73.971  41.465 131.006  1.00  0.00     0.073 A 
HETATM   19 CL1  UNL     1     -72.307  41.282 130.495  1.00  0.00    -0.081 Cl
HETATM   20  C18 UNL     1     -74.395  42.643 131.590  1.00  0.00     0.140 A 
HETATM   21  F1  UNL     1     -73.546  43.686 131.784  1.00  0.00    -0.204 F 
ENDBRANCH   7   9
ENDBRANCH   1   7
BRANCH   4  22
HETATM   22  C7  UNL     1     -78.835  35.092 126.902  1.00  0.00     0.073 C 
BRANCH  22  23
HETATM   23  C8  UNL     1     -78.545  34.677 125.513  1.00  0.00     0.163 C 
HETATM   24  C9  UNL     1     -77.052  34.478 125.300  1.00  0.00     0.087 C 
HETATM   25  C10 UNL     1     -76.783  34.971 123.864  1.00  0.00     0.119 C 
HETATM   26  N4  UNL     1     -77.352  33.969 122.992  1.00  0.00    -0.419 N 
HETATM   27  C11 UNL     1     -78.740  34.117 122.718  1.00  0.00     0.140 C 
ATOM     28  H4  UNL     1     -76.798  33.207 122.601  1.00  0.00     0.153 HD
HETATM   29  C12 UNL     1     -79.684  33.673 123.775  1.00  0.00     0.190 C 
HETATM   30  O2  UNL     1     -79.186  33.565 125.045  1.00  0.00    -0.354 OA
BRANCH  23  31
HETATM   31  O1  UNL     1     -78.926  35.814 124.715  1.00  0.00    -0.365 OA
ATOM     32  H1  UNL     1     -78.158  36.374 124.723  1.00  0.00     0.213 HD
ENDBRANCH  23  31
ENDBRANCH  22  23
ENDBRANCH   4  22
TORSDOF 5
ENDMDL
MODEL 4
REMARK VINA RESULT: -9.462251278      5.486      7.701
REMARK  5 active torsions:
REMARK  status: ('A' for Active; 'I' for Inactive)
REMARK    1  A    between atoms: C2_5  and  N3_6 
REMARK    2  A    between atoms: N3_6  and  C3_8 
REMARK    3  A    between atoms: C6_11  and  C7_12 
REMARK    4  A    between atoms: C7_12  and  C8_13 
REMARK    5  A    between atoms: C8_13  and  O1_14 
ROOT
HETATM    1  C3  UNL     1     -77.185  35.266 127.566  1.00  0.00     0.083 C 
HETATM    2  C4  UNL     1     -76.462  34.444 126.547  1.00  0.00     0.025 C 
HETATM    3  C5  UNL     1     -76.784  35.111 125.173  1.00  0.00     0.007 C 
HETATM    4  C6  UNL     1     -78.150  34.619 124.859  1.00  0.00    -0.009 C 
HETATM    5  C13 UNL     1     -79.082  35.213 125.902  1.00  0.00     0.007 C 
HETATM    6  C14 UNL     1     -78.471  35.839 127.072  1.00  0.00     0.025 C 
ENDROOT
BRANCH   1   7
HETATM    7  N3  UNL     1     -76.276  36.300 128.029  1.00  0.00    -0.370 N 
ATOM      8  H3  UNL     1     -76.550  37.281 127.964  1.00  0.00     0.161 HD
BRANCH   7   9
HETATM    9  C2  UNL     1     -75.106  35.982 128.530  1.00  0.00     0.129 A 
HETATM   10  N2  UNL     1     -74.571  34.753 128.512  1.00  0.00    -0.283 N 
HETATM   11  N1  UNL     1     -73.381  34.816 129.111  1.00  0.00    -0.294 N 
ATOM     12  H2  UNL     1     -74.999  33.917 128.112  1.00  0.00     0.189 HD
HETATM   13  C1  UNL     1     -72.483  33.674 129.291  1.00  0.00     0.178 C 
HETATM   14  C20 UNL     1     -73.130  36.076 129.521  1.00  0.00     0.067 A 
HETATM   15  C15 UNL     1     -74.223  36.833 129.158  1.00  0.00     0.039 A 
HETATM   16  C19 UNL     1     -72.061  36.665 130.180  1.00  0.00     0.076 A 
HETATM   17  C16 UNL     1     -74.272  38.186 129.441  1.00  0.00     0.044 A 
HETATM   18  C17 UNL     1     -73.189  38.759 130.103  1.00  0.00     0.073 A 
HETATM   19 CL1  UNL     1     -73.230  40.469 130.472  1.00  0.00    -0.081 Cl
HETATM   20  C18 UNL     1     -72.096  37.995 130.465  1.00  0.00     0.140 A 
HETATM   21  F1  UNL     1     -71.031  38.537 131.111  1.00  0.00    -0.204 F 
ENDBRANCH   7   9
ENDBRANCH   1   7
BRANCH   4  22
HETATM   22  C7  UNL     1     -78.728  34.822 123.524  1.00  0.00     0.073 C 
BRANCH  22  23
HETATM   23  C8  UNL     1     -79.308  33.690 122.771  1.00  0.00     0.163 C 
HETATM   24  C9  UNL     1     -78.222  32.744 122.280  1.00  0.00     0.087 C 
HETATM   25  C10 UNL     1     -78.705  32.262 120.898  1.00  0.00     0.119 C 
HETATM   26  N4  UNL     1     -79.803  31.358 121.159  1.00  0.00    -0.419 N 
HETATM   27  C11 UNL     1     -81.074  31.975 121.320  1.00  0.00     0.140 C 
ATOM     28  H4  UNL     1     -79.674  30.349 121.223  1.00  0.00     0.153 HD
HETATM   29  C12 UNL     1     -81.346  32.617 122.631  1.00  0.00     0.190 C 
HETATM   30  O2  UNL     1     -80.262  32.942 123.400  1.00  0.00    -0.354 OA
BRANCH  23  31
HETATM   31  O1  UNL     1     -79.881  34.300 121.598  1.00  0.00    -0.365 OA
ATOM     32  H1  UNL     1     -80.812  34.127 121.676  1.00  0.00     0.213 HD
ENDBRANCH  23  31
ENDBRANCH  22  23
ENDBRANCH   4  22
TORSDOF 5
ENDMDL
MODEL 5
REMARK VINA RESULT: -9.425461142      3.690      5.358
REMARK  5 active torsions:
REMARK  status: ('A' for Active; 'I' for Inactive)
REMARK    1  A    between atoms: C2_5  and  N3_6 
REMARK    2  A    between atoms: N3_6  and  C3_8 
REMARK    3  A    between atoms: C6_11  and  C7_12 
REMARK    4  A    between atoms: C7_12  and  C8_13 
REMARK    5  A    between atoms: C8_13  and  O1_14 
ROOT
HETATM    1  C3  UNL     1     -78.867  38.480 129.801  1.00  0.00     0.083 C 
HETATM    2  C4  UNL     1     -79.875  39.572 129.967  1.00  0.00     0.025 C 
HETATM    3  C5  UNL     1     -79.046  40.891 130.057  1.00  0.00     0.007 C 
HETATM    4  C6  UNL     1     -78.550  40.896 131.458  1.00  0.00    -0.009 C 
HETATM    5  C13 UNL     1     -77.589  39.725 131.587  1.00  0.00     0.007 C 
HETATM    6  C14 UNL     1     -77.579  38.740 130.508  1.00  0.00     0.025 C 
ENDROOT
BRANCH   1   7
HETATM    7  N3  UNL     1     -78.668  38.271 128.378  1.00  0.00    -0.370 N 
ATOM      8  H3  UNL     1     -78.748  39.058 127.735  1.00  0.00     0.161 HD
BRANCH   7   9
HETATM    9  C2  UNL     1     -78.386  37.076 127.914  1.00  0.00     0.129 A 
HETATM   10  N2  UNL     1     -79.227  36.308 127.207  1.00  0.00    -0.283 N 
HETATM   11  N1  UNL     1     -78.594  35.171 126.912  1.00  0.00    -0.294 N 
ATOM     12  H2  UNL     1     -80.182  36.549 126.942  1.00  0.00     0.189 HD
HETATM   13  C1  UNL     1     -79.181  34.071 126.147  1.00  0.00     0.178 C 
HETATM   14  C20 UNL     1     -77.345  35.188 127.420  1.00  0.00     0.067 A 
HETATM   15  C15 UNL     1     -77.196  36.398 128.064  1.00  0.00     0.039 A 
HETATM   16  C19 UNL     1     -76.299  34.276 127.399  1.00  0.00     0.076 A 
HETATM   17  C16 UNL     1     -76.009  36.723 128.695  1.00  0.00     0.044 A 
HETATM   18  C17 UNL     1     -74.971  35.794 128.662  1.00  0.00     0.073 A 
HETATM   19 CL1  UNL     1     -73.461  36.185 129.454  1.00  0.00    -0.081 Cl
HETATM   20  C18 UNL     1     -75.126  34.583 128.016  1.00  0.00     0.140 A 
HETATM   21  F1  UNL     1     -74.124  33.666 127.974  1.00  0.00    -0.204 F 
ENDBRANCH   7   9
ENDBRANCH   1   7
BRANCH   4  22
HETATM   22  C7  UNL     1     -77.924  42.098 132.023  1.00  0.00     0.073 C 
BRANCH  22  23
HETATM   23  C8  UNL     1     -76.552  42.489 131.636  1.00  0.00     0.163 C 
HETATM   24  C9  UNL     1     -76.385  42.480 130.124  1.00  0.00     0.087 C 
HETATM   25  C10 UNL     1     -74.948  41.976 129.883  1.00  0.00     0.119 C 
HETATM   26  N4  UNL     1     -74.080  43.062 130.279  1.00  0.00    -0.419 N 
HETATM   27  C11 UNL     1     -73.764  43.113 131.665  1.00  0.00     0.140 C 
ATOM     28  H4  UNL     1     -73.719  43.744 129.612  1.00  0.00     0.153 HD
HETATM   29  C12 UNL     1     -74.801  43.669 132.569  1.00  0.00     0.190 C 
HETATM   30  O2  UNL     1     -76.088  43.687 132.101  1.00  0.00    -0.354 OA
BRANCH  23  31
HETATM   31  O1  UNL     1     -75.721  41.429 132.147  1.00  0.00    -0.365 OA
ATOM     32  H1  UNL     1     -76.320  40.702 132.273  1.00  0.00     0.213 HD
ENDBRANCH  23  31
ENDBRANCH  22  23
ENDBRANCH   4  22
TORSDOF 5
ENDMDL
