MODEL 1
REMARK VINA RESULT: -10.942410525      0.000      0.000
REMARK  4 active torsions:
REMARK  status: ('A' for Active; 'I' for Inactive)
REMARK    1  A    between atoms: C4_6  and  N2_7 
REMARK    2  A    between atoms: N2_7  and  C5_9 
REMARK    3  A    between atoms: C11_19  and  C12_20 
REMARK    4  A    between atoms: C16_25  and  C17_26 
ROOT
HETATM    1  C1  UNL     1     -72.983  39.655 130.370  1.00  0.00     0.070 C 
HETATM    2  C2  UNL     1     -74.074  38.723 129.923  1.00  0.00     0.030 A 
HETATM    3  N1  UNL     1     -73.786  37.438 129.680  1.00  0.00    -0.364 N 
ATOM      4  H1  UNL     1     -72.832  37.099 129.797  1.00  0.00     0.165 HD
HETATM    5  C3  UNL     1     -74.769  36.582 129.274  1.00  0.00     0.136 A 
HETATM    6  C4  UNL     1     -76.073  36.993 129.101  1.00  0.00     0.117 A 
HETATM    7  N3  UNL     1     -76.340  38.308 129.354  1.00  0.00    -0.342 N 
ATOM      8  H3  UNL     1     -77.291  38.658 129.239  1.00  0.00     0.167 HD
HETATM    9  C11 UNL     1     -75.369  39.149 129.753  1.00  0.00     0.057 A 
ENDROOT
BRANCH   9  10
HETATM   10  C12 UNL     1     -75.638  40.574 130.035  1.00  0.00     0.157 C 
HETATM   11  C13 UNL     1     -74.725  41.097 131.138  1.00  0.00     0.302 C 
HETATM   12  N4  UNL     1     -75.127  42.404 131.592  1.00  0.00     0.088 N 
HETATM   13  C14 UNL     1     -74.869  43.442 130.626  1.00  0.00     0.310 C 
HETATM   14  C15 UNL     1     -76.466  42.437 132.118  1.00  0.00     0.296 C 
HETATM   15  C16 UNL     1     -77.189  41.125 131.788  1.00  0.00     0.109 C 
HETATM   16  N6  UNL     1     -76.968  40.892 130.401  1.00  0.00    -0.404 N 
ATOM     17  H6  UNL     1     -77.721  40.951 129.715  1.00  0.00     0.154 HD
BRANCH  15  18
HETATM   18  C17 UNL     1     -78.669  41.369 132.002  1.00  0.00     0.013 C 
HETATM   19  C18 UNL     1     -79.372  41.271 130.682  1.00  0.00     0.034 C 
HETATM   20  C19 UNL     1     -80.785  41.810 130.798  1.00  0.00     0.232 C 
HETATM   21  N5  UNL     1     -80.713  43.235 130.970  1.00  0.00    -0.075 N 
HETATM   22  C20 UNL     1     -79.538  43.688 131.644  1.00  0.00     0.232 C 
ATOM     23  H52 UNL     1     -80.813  43.708 130.072  1.00  0.00     0.277 HD
ATOM     24  H51 UNL     1     -81.549  43.579 131.442  1.00  0.00     0.277 HD
HETATM   25  C21 UNL     1     -78.971  42.688 132.625  1.00  0.00     0.034 C 
ENDBRANCH  15  18
ENDBRANCH   9  10
BRANCH   6  26
HETATM   26  N2  UNL     1     -77.015  36.202 128.723  1.00  0.00    -0.371 N 
ATOM     27  H2  UNL     1     -77.417  35.586 129.429  1.00  0.00     0.161 HD
BRANCH  26  28
HETATM   28  C5  UNL     1     -77.553  36.110 127.389  1.00  0.00     0.083 C 
HETATM   29  C6  UNL     1     -78.951  35.532 127.475  1.00  0.00     0.031 C 
HETATM   30  C7  UNL     1     -79.238  34.619 126.299  1.00  0.00     0.081 C 
HETATM   31  C8  UNL     1     -78.606  35.191 125.037  1.00  0.00     0.243 C 
HETATM   32  F1  UNL     1     -79.018  34.401 123.980  1.00  0.00    -0.206 F 
HETATM   33  F2  UNL     1     -78.976  36.494 124.824  1.00  0.00    -0.206 F 
HETATM   34  C9  UNL     1     -77.115  35.022 125.169  1.00  0.00     0.081 C 
HETATM   35  C10 UNL     1     -76.636  35.218 126.582  1.00  0.00     0.031 C 
ENDBRANCH  26  28
ENDBRANCH   6  26
TORSDOF 4
ENDMDL
MODEL 2
REMARK VINA RESULT: -10.746030269      1.794      5.136
REMARK  4 active torsions:
REMARK  status: ('A' for Active; 'I' for Inactive)
REMARK    1  A    between atoms: C4_6  and  N2_7 
REMARK    2  A    between atoms: N2_7  and  C5_9 
REMARK    3  A    between atoms: C11_19  and  C12_20 
REMARK    4  A    between atoms: C16_25  and  C17_26 
ROOT
HETATM    1  C1  UNL     1     -78.207  41.534 130.991  1.00  0.00     0.070 C 
HETATM    2  C2  UNL     1     -78.033  40.185 130.353  1.00  0.00     0.030 A 
HETATM    3  N1  UNL     1     -79.107  39.521 129.907  1.00  0.00    -0.364 N 
ATOM      4  H1  UNL     1     -80.035  39.932 130.003  1.00  0.00     0.165 HD
HETATM    5  C3  UNL     1     -78.961  38.296 129.325  1.00  0.00     0.136 A 
HETATM    6  C4  UNL     1     -77.727  37.699 129.173  1.00  0.00     0.117 A 
HETATM    7  N3  UNL     1     -76.648  38.396 129.637  1.00  0.00    -0.342 N 
ATOM      8  H3  UNL     1     -75.715  37.995 129.547  1.00  0.00     0.167 HD
HETATM    9  C11 UNL     1     -76.796  39.604 130.210  1.00  0.00     0.057 A 
ENDROOT
BRANCH   9  10
HETATM   10  C12 UNL     1     -75.642  40.374 130.716  1.00  0.00     0.157 C 
HETATM   11  C13 UNL     1     -75.103  41.319 129.648  1.00  0.00     0.302 C 
HETATM   12  N4  UNL     1     -73.842  41.901 130.034  1.00  0.00     0.088 N 
HETATM   13  C14 UNL     1     -73.967  42.867 131.096  1.00  0.00     0.310 C 
HETATM   14  C15 UNL     1     -72.814  40.923 130.272  1.00  0.00     0.296 C 
HETATM   15  C16 UNL     1     -73.429  39.519 130.320  1.00  0.00     0.109 C 
HETATM   16  N6  UNL     1     -74.549  39.610 131.194  1.00  0.00    -0.404 N 
ATOM     17  H6  UNL     1     -74.564  39.154 132.106  1.00  0.00     0.154 HD
BRANCH  15  18
HETATM   18  C17 UNL     1     -72.400  38.607 130.955  1.00  0.00     0.013 C 
HETATM   19  C18 UNL     1     -71.031  39.135 130.654  1.00  0.00     0.034 C 
HETATM   20  C19 UNL     1     -69.979  38.099 130.997  1.00  0.00     0.232 C 
HETATM   21  N5  UNL     1     -70.077  37.024 130.048  1.00  0.00    -0.075 N 
HETATM   22  C20 UNL     1     -71.392  36.810 129.535  1.00  0.00     0.232 C 
ATOM     23  H52 UNL     1     -69.414  37.161 129.284  1.00  0.00     0.277 HD
ATOM     24  H51 UNL     1     -69.706  36.162 130.448  1.00  0.00     0.277 HD
HETATM   25  C21 UNL     1     -72.494  37.192 130.496  1.00  0.00     0.034 C 
ENDBRANCH  15  18
ENDBRANCH   9  10
BRANCH   6  26
HETATM   26  N2  UNL     1     -77.567  36.546 128.624  1.00  0.00    -0.371 N 
ATOM     27  H2  UNL     1     -77.194  35.800 129.210  1.00  0.00     0.161 HD
BRANCH  26  28
HETATM   28  C5  UNL     1     -77.867  36.217 127.254  1.00  0.00     0.083 C 
HETATM   29  C6  UNL     1     -79.164  35.436 127.222  1.00  0.00     0.031 C 
HETATM   30  C7  UNL     1     -79.127  34.359 126.154  1.00  0.00     0.081 C 
HETATM   31  C8  UNL     1     -78.389  34.877 124.926  1.00  0.00     0.243 C 
HETATM   32  F1  UNL     1     -78.512  33.915 123.941  1.00  0.00    -0.206 F 
HETATM   33  F2  UNL     1     -78.902  36.071 124.486  1.00  0.00    -0.206 F 
HETATM   34  C9  UNL     1     -76.930  34.966 125.288  1.00  0.00     0.081 C 
HETATM   35  C10 UNL     1     -76.715  35.398 126.714  1.00  0.00     0.031 C 
ENDBRANCH  26  28
ENDBRANCH   6  26
TORSDOF 4
ENDMDL
MODEL 3
REMARK VINA RESULT: -10.709818352      0.753      1.114
REMARK  4 active torsions:
REMARK  status: ('A' for Active; 'I' for Inactive)
REMARK    1  A    between atoms: C4_6  and  N2_7 
REMARK    2  A    between atoms: N2_7  and  C5_9 
REMARK    3  A    between atoms: C11_19  and  C12_20 
REMARK    4  A    between atoms: C16_25  and  C17_26 
ROOT
HETATM    1  C1  UNL     1     -72.614  39.145 130.353  1.00  0.00     0.070 C 
HETATM    2  C2  UNL     1     -73.820  38.363 129.915  1.00  0.00     0.030 A 
HETATM    3  N1  UNL     1     -73.704  37.052 129.671  1.00  0.00    -0.364 N 
ATOM      4  H1  UNL     1     -72.801  36.591 129.782  1.00  0.00     0.165 HD
HETATM    5  C3  UNL     1     -74.793  36.331 129.274  1.00  0.00     0.136 A 
HETATM    6  C4  UNL     1     -76.034  36.909 129.109  1.00  0.00     0.117 A 
HETATM    7  N3  UNL     1     -76.125  38.248 129.363  1.00  0.00    -0.342 N 
ATOM      8  H3  UNL     1     -77.023  38.719 129.255  1.00  0.00     0.167 HD
HETATM    9  C11 UNL     1     -75.050  38.955 129.755  1.00  0.00     0.057 A 
ENDROOT
BRANCH   9  10
HETATM   10  C12 UNL     1     -75.128  40.402 130.037  1.00  0.00     0.157 C 
HETATM   11  C13 UNL     1     -74.963  40.681 131.526  1.00  0.00     0.302 C 
HETATM   12  N4  UNL     1     -75.272  42.050 131.854  1.00  0.00     0.088 N 
HETATM   13  C14 UNL     1     -74.282  42.982 131.377  1.00  0.00     0.310 C 
HETATM   14  C15 UNL     1     -76.618  42.426 131.513  1.00  0.00     0.296 C 
HETATM   15  C16 UNL     1     -77.259  41.340 130.639  1.00  0.00     0.109 C 
HETATM   16  N6  UNL     1     -76.314  41.052 129.614  1.00  0.00    -0.404 N 
ATOM     17  H6  UNL     1     -76.480  41.297 128.639  1.00  0.00     0.154 HD
BRANCH  15  18
HETATM   18  C17 UNL     1     -78.486  41.955 129.998  1.00  0.00     0.013 C 
HETATM   19  C18 UNL     1     -78.839  43.212 130.733  1.00  0.00     0.034 C 
HETATM   20  C19 UNL     1     -80.222  43.687 130.331  1.00  0.00     0.232 C 
HETATM   21  N5  UNL     1     -81.190  42.769 130.867  1.00  0.00    -0.075 N 
HETATM   22  C20 UNL     1     -80.719  41.426 130.994  1.00  0.00     0.232 C 
ATOM     23  H52 UNL     1     -81.545  43.107 131.762  1.00  0.00     0.277 HD
ATOM     24  H51 UNL     1     -82.048  42.794 130.317  1.00  0.00     0.277 HD
HETATM   25  C21 UNL     1     -79.667  41.047 129.978  1.00  0.00     0.034 C 
ENDBRANCH  15  18
ENDBRANCH   9  10
BRANCH   6  26
HETATM   26  N2  UNL     1     -77.074  36.247 128.739  1.00  0.00    -0.371 N 
ATOM     27  H2  UNL     1     -77.597  35.759 129.465  1.00  0.00     0.161 HD
BRANCH  26  28
HETATM   28  C5  UNL     1     -77.564  36.137 127.389  1.00  0.00     0.083 C 
HETATM   29  C6  UNL     1     -78.981  35.602 127.436  1.00  0.00     0.031 C 
HETATM   30  C7  UNL     1     -79.251  34.667 126.272  1.00  0.00     0.081 C 
HETATM   31  C8  UNL     1     -78.556  35.188 125.022  1.00  0.00     0.243 C 
HETATM   32  F1  UNL     1     -78.952  34.383 123.970  1.00  0.00    -0.206 F 
HETATM   33  F2  UNL     1     -78.879  36.496 124.762  1.00  0.00    -0.206 F 
HETATM   34  C9  UNL     1     -77.077  34.979 125.214  1.00  0.00     0.081 C 
HETATM   35  C10 UNL     1     -76.644  35.198 126.639  1.00  0.00     0.031 C 
ENDBRANCH  26  28
ENDBRANCH   6  26
TORSDOF 4
ENDMDL
MODEL 4
REMARK VINA RESULT: -10.521376377      3.721      5.827
REMARK  4 active torsions:
REMARK  status: ('A' for Active; 'I' for Inactive)
REMARK    1  A    between atoms: C4_6  and  N2_7 
REMARK    2  A    between atoms: N2_7  and  C5_9 
REMARK    3  A    between atoms: C11_19  and  C12_20 
REMARK    4  A    between atoms: C16_25  and  C17_26 
ROOT
HETATM    1  C1  UNL     1     -78.887  36.303 128.097  1.00  0.00     0.070 C 
HETATM    2  C2  UNL     1     -77.421  36.095 128.349  1.00  0.00     0.030 A 
HETATM    3  N1  UNL     1     -76.791  35.065 127.769  1.00  0.00    -0.364 N 
ATOM      4  H1  UNL     1     -77.308  34.428 127.163  1.00  0.00     0.165 HD
HETATM    5  C3  UNL     1     -75.458  34.867 127.989  1.00  0.00     0.136 A 
HETATM    6  C4  UNL     1     -74.717  35.699 128.800  1.00  0.00     0.117 A 
HETATM    7  N3  UNL     1     -75.383  36.742 129.380  1.00  0.00    -0.342 N 
ATOM      8  H3  UNL     1     -74.877  37.384 129.988  1.00  0.00     0.167 HD
HETATM    9  C11 UNL     1     -76.696  36.934 129.161  1.00  0.00     0.057 A 
ENDROOT
BRANCH   9  10
HETATM   10  C12 UNL     1     -77.433  38.056 129.777  1.00  0.00     0.157 C 
HETATM   11  C13 UNL     1     -78.080  38.937 128.713  1.00  0.00     0.302 C 
HETATM   12  N4  UNL     1     -78.598  40.160 129.272  1.00  0.00     0.088 N 
HETATM   13  C14 UNL     1     -79.769  39.957 130.087  1.00  0.00     0.310 C 
HETATM   14  C15 UNL     1     -77.591  40.963 129.914  1.00  0.00     0.296 C 
HETATM   15  C16 UNL     1     -76.296  40.155 130.066  1.00  0.00     0.109 C 
HETATM   16  N6  UNL     1     -76.678  38.902 130.624  1.00  0.00    -0.404 N 
ATOM     17  H6  UNL     1     -76.423  38.632 131.574  1.00  0.00     0.154 HD
BRANCH  15  18
HETATM   18  C17 UNL     1     -75.435  40.885 131.075  1.00  0.00     0.013 C 
HETATM   19  C18 UNL     1     -75.547  42.360 130.832  1.00  0.00     0.034 C 
HETATM   20  C19 UNL     1     -74.475  43.104 131.604  1.00  0.00     0.232 C 
HETATM   21  N5  UNL     1     -73.202  42.818 131.000  1.00  0.00    -0.075 N 
HETATM   22  C20 UNL     1     -73.116  41.530 130.389  1.00  0.00     0.232 C 
ATOM     23  H52 UNL     1     -72.953  43.547 130.331  1.00  0.00     0.277 HD
ATOM     24  H51 UNL     1     -72.450  42.940 131.679  1.00  0.00     0.277 HD
HETATM   25  C21 UNL     1     -73.999  40.487 131.034  1.00  0.00     0.034 C 
ENDBRANCH  15  18
ENDBRANCH   9  10
BRANCH   6  26
HETATM   26  N2  UNL     1     -73.460  35.532 129.018  1.00  0.00    -0.371 N 
ATOM     27  H2  UNL     1     -72.861  36.353 128.934  1.00  0.00     0.161 HD
BRANCH  26  28
HETATM   28  C5  UNL     1     -72.825  34.289 129.370  1.00  0.00     0.083 C 
HETATM   29  C6  UNL     1     -71.371  34.567 129.691  1.00  0.00     0.031 C 
HETATM   30  C7  UNL     1     -70.480  33.435 129.215  1.00  0.00     0.081 C 
HETATM   31  C8  UNL     1     -71.182  32.101 129.434  1.00  0.00     0.243 C 
HETATM   32  F1  UNL     1     -70.274  31.107 129.120  1.00  0.00    -0.206 F 
HETATM   33  F2  UNL     1     -71.614  31.955 130.727  1.00  0.00    -0.206 F 
HETATM   34  C9  UNL     1     -72.303  32.019 128.431  1.00  0.00     0.081 C 
HETATM   35  C10 UNL     1     -72.960  33.351 128.191  1.00  0.00     0.031 C 
ENDBRANCH  26  28
ENDBRANCH   6  26
TORSDOF 4
ENDMDL
MODEL 5
REMARK VINA RESULT: -10.219056631      1.949      2.782
REMARK  4 active torsions:
REMARK  status: ('A' for Active; 'I' for Inactive)
REMARK    1  A    between atoms: C4_6  and  N2_7 
REMARK    2  A    between atoms: N2_7  and  C5_9 
REMARK    3  A    between atoms: C11_19  and  C12_20 
REMARK    4  A    between atoms: C16_25  and  C17_26 
ROOT
HETATM    1  C1  UNL     1     -72.648  41.817 130.769  1.00  0.00     0.070 C 
HETATM    2  C2  UNL     1     -73.036  40.399 130.458  1.00  0.00     0.030 A 
HETATM    3  N1  UNL     1     -72.090  39.453 130.405  1.00  0.00    -0.364 N 
ATOM      4  H1  UNL     1     -71.115  39.698 130.573  1.00  0.00     0.165 HD
HETATM    5  C3  UNL     1     -72.430  38.161 130.124  1.00  0.00     0.136 A 
HETATM    6  C4  UNL     1     -73.734  37.781 129.889  1.00  0.00     0.117 A 
HETATM    7  N3  UNL     1     -74.679  38.765 129.948  1.00  0.00    -0.342 N 
ATOM      8  H3  UNL     1     -75.657  38.532 129.780  1.00  0.00     0.167 HD
HETATM    9  C11 UNL     1     -74.341  40.037 130.225  1.00  0.00     0.057 A 
ENDROOT
BRANCH   9  10
HETATM   10  C12 UNL     1     -75.348  41.115 130.296  1.00  0.00     0.157 C 
HETATM   11  C13 UNL     1     -75.655  41.484 131.743  1.00  0.00     0.302 C 
HETATM   12  N4  UNL     1     -76.798  42.356 131.842  1.00  0.00     0.088 N 
HETATM   13  C14 UNL     1     -76.536  43.688 131.360  1.00  0.00     0.310 C 
HETATM   14  C15 UNL     1     -78.001  41.781 131.302  1.00  0.00     0.296 C 
HETATM   15  C16 UNL     1     -77.664  40.508 130.516  1.00  0.00     0.109 C 
HETATM   16  N6  UNL     1     -76.583  40.851 129.656  1.00  0.00    -0.404 N 
ATOM     17  H6  UNL     1     -76.692  40.903 128.643  1.00  0.00     0.154 HD
BRANCH  15  18
HETATM   18  C17 UNL     1     -78.871  40.183 129.660  1.00  0.00     0.013 C 
HETATM   19  C18 UNL     1     -80.113  40.560 130.410  1.00  0.00     0.034 C 
HETATM   20  C19 UNL     1     -81.336  39.974 129.733  1.00  0.00     0.232 C 
HETATM   21  N5  UNL     1     -81.318  38.548 129.922  1.00  0.00    -0.075 N 
HETATM   22  C20 UNL     1     -80.009  37.985 130.025  1.00  0.00     0.232 C 
ATOM     23  H52 UNL     1     -81.881  38.290 130.733  1.00  0.00     0.277 HD
ATOM     24  H51 UNL     1     -81.849  38.085 129.185  1.00  0.00     0.277 HD
HETATM   25  C21 UNL     1     -78.952  38.749 129.262  1.00  0.00     0.034 C 
ENDBRANCH  15  18
ENDBRANCH   9  10
BRANCH   6  26
HETATM   26  N2  UNL     1     -74.076  36.569 129.626  1.00  0.00    -0.371 N 
ATOM     27  H2  UNL     1     -73.773  35.848 130.280  1.00  0.00     0.161 HD
BRANCH  26  28
HETATM   28  C5  UNL     1     -74.851  36.140 128.490  1.00  0.00     0.083 C 
HETATM   29  C6  UNL     1     -76.244  36.721 128.613  1.00  0.00     0.031 C 
HETATM   30  C7  UNL     1     -77.289  35.747 128.103  1.00  0.00     0.081 C 
HETATM   31  C8  UNL     1     -76.755  35.012 126.881  1.00  0.00     0.243 C 
HETATM   32  F1  UNL     1     -77.793  34.251 126.377  1.00  0.00    -0.206 F 
HETATM   33  F2  UNL     1     -76.296  35.878 125.921  1.00  0.00    -0.206 F 
HETATM   34  C9  UNL     1     -75.693  34.060 127.363  1.00  0.00     0.081 C 
HETATM   35  C10 UNL     1     -74.881  34.627 128.496  1.00  0.00     0.031 C 
ENDBRANCH  26  28
ENDBRANCH   6  26
TORSDOF 4
ENDMDL
