MODEL 1
REMARK VINA RESULT: -9.222601561      0.000      0.000
REMARK  4 active torsions:
REMARK  status: ('A' for Active; 'I' for Inactive)
REMARK    1  A    between atoms: N1_1  and  C1_4 
REMARK    2  A    between atoms: C5_10  and  C6_11 
REMARK    3  A    between atoms: C8_14  and  O1_15 
REMARK    4  A    between atoms: C10_18  and  N4_19 
ROOT
HETATM    1  C1  UNL     1     -77.394  40.425 131.058  1.00  0.00     0.046 A 
HETATM    2  C2  UNL     1     -78.419  41.382 131.273  1.00  0.00    -0.007 A 
HETATM    3  C3  UNL     1     -79.641  41.064 130.782  1.00  0.00     0.027 A 
HETATM    4  N2  UNL     1     -79.855  39.891 130.104  1.00  0.00    -0.357 N 
ATOM      5  H2  UNL     1     -80.786  39.680 129.744  1.00  0.00     0.166 HD
HETATM    6  C4  UNL     1     -78.871  39.033 129.912  1.00  0.00     0.059 A 
HETATM    7  C5  UNL     1     -79.129  37.874 129.081  1.00  0.00     0.033 A 
HETATM    8  C10 UNL     1     -78.136  37.056 128.780  1.00  0.00     0.044 A 
HETATM    9  C16 UNL     1     -76.832  37.276 129.295  1.00  0.00     0.031 A 
HETATM   10  C17 UNL     1     -76.581  38.386 130.098  1.00  0.00     0.018 A 
HETATM   11  C18 UNL     1     -77.617  39.248 130.378  1.00  0.00     0.018 A 
HETATM   12  C19 UNL     1     -80.845  41.907 130.922  1.00  0.00     0.131 C 
HETATM   13  S1  UNL     1     -80.394  43.688 131.061  1.00  0.00    -0.163 SA
HETATM   14  C20 UNL     1     -78.985  43.667 132.194  1.00  0.00     0.079 C 
HETATM   15  C21 UNL     1     -77.964  42.641 131.899  1.00  0.00     0.053 C 
ENDROOT
BRANCH   8  16
HETATM   16  N4  UNL     1     -78.167  36.331 127.531  1.00  0.00    -0.374 N 
HETATM   17  C11 UNL     1     -76.923  35.428 127.581  1.00  0.00     0.123 C 
HETATM   18  C12 UNL     1     -76.372  35.303 126.243  1.00  0.00     0.026 C 
HETATM   19  C13 UNL     1     -77.326  34.423 125.446  1.00  0.00     0.082 C 
HETATM   20  C14 UNL     1     -78.754  34.758 125.742  1.00  0.00     0.259 C 
HETATM   21  F1  UNL     1     -79.385  34.859 124.517  1.00  0.00    -0.205 F 
HETATM   22  F2  UNL     1     -79.390  33.812 126.486  1.00  0.00    -0.205 F 
HETATM   23  C15 UNL     1     -78.900  36.178 126.380  1.00  0.00     0.202 C 
ENDBRANCH   8  16
BRANCH   7  24
HETATM   24  C6  UNL     1     -80.538  37.751 128.666  1.00  0.00     0.101 C 
HETATM   25  N3  UNL     1     -81.323  37.044 129.526  1.00  0.00    -0.384 N 
HETATM   26  C7  UNL     1     -82.714  36.954 129.506  1.00  0.00     0.155 C 
HETATM   27  C9  UNL     1     -81.126  36.536 130.780  1.00  0.00     0.155 C 
HETATM   28  C8  UNL     1     -82.609  36.033 130.753  1.00  0.00     0.153 C 
BRANCH  28  29
HETATM   29  O1  UNL     1     -82.723  34.692 130.429  1.00  0.00    -0.392 OA
ATOM     30  H1  UNL     1     -83.605  34.458 130.161  1.00  0.00     0.210 HD
ENDBRANCH  28  29
ENDBRANCH   7  24
BRANCH   1  31
HETATM   31  N1  UNL     1     -76.188  40.596 131.482  1.00  0.00    -0.398 N 
ATOM     32  H12 UNL     1     -75.987  41.520 131.862  1.00  0.00     0.156 HD
ATOM     33  H11 UNL     1     -75.484  39.858 131.442  1.00  0.00     0.156 HD
ENDBRANCH   1  31
TORSDOF 4
ENDMDL
MODEL 2
REMARK VINA RESULT: -8.233911539      4.991      7.739
REMARK  4 active torsions:
REMARK  status: ('A' for Active; 'I' for Inactive)
REMARK    1  A    between atoms: N1_1  and  C1_4 
REMARK    2  A    between atoms: C5_10  and  C6_11 
REMARK    3  A    between atoms: C8_14  and  O1_15 
REMARK    4  A    between atoms: C10_18  and  N4_19 
ROOT
HETATM    1  C1  UNL     1     -71.747  35.977 129.624  1.00  0.00     0.046 A 
HETATM    2  C2  UNL     1     -71.570  34.569 129.589  1.00  0.00    -0.007 A 
HETATM    3  C3  UNL     1     -72.671  33.841 129.283  1.00  0.00     0.027 A 
HETATM    4  N2  UNL     1     -73.881  34.440 129.042  1.00  0.00    -0.357 N 
ATOM      5  H2  UNL     1     -74.693  33.865 128.817  1.00  0.00     0.166 HD
HETATM    6  C4  UNL     1     -74.007  35.753 129.100  1.00  0.00     0.059 A 
HETATM    7  C5  UNL     1     -75.336  36.317 128.961  1.00  0.00     0.033 A 
HETATM    8  C10 UNL     1     -75.509  37.617 129.124  1.00  0.00     0.044 A 
HETATM    9  C16 UNL     1     -74.406  38.469 129.391  1.00  0.00     0.031 A 
HETATM   10  C17 UNL     1     -73.128  37.932 129.520  1.00  0.00     0.018 A 
HETATM   11  C18 UNL     1     -72.965  36.572 129.379  1.00  0.00     0.018 A 
HETATM   12  C19 UNL     1     -72.695  32.369 129.167  1.00  0.00     0.131 C 
HETATM   13  S1  UNL     1     -71.404  31.600 130.233  1.00  0.00    -0.163 SA
HETATM   14  C20 UNL     1     -69.962  32.655 129.956  1.00  0.00     0.079 C 
HETATM   15  C21 UNL     1     -70.233  34.106 130.010  1.00  0.00     0.053 C 
ENDROOT
BRANCH   8  16
HETATM   16  N4  UNL     1     -76.773  38.106 129.623  1.00  0.00    -0.374 N 
HETATM   17  C11 UNL     1     -76.449  39.502 130.184  1.00  0.00     0.123 C 
HETATM   18  C12 UNL     1     -77.273  39.746 131.354  1.00  0.00     0.026 C 
HETATM   19  C13 UNL     1     -78.698  39.965 130.862  1.00  0.00     0.082 C 
HETATM   20  C14 UNL     1     -79.051  39.007 129.767  1.00  0.00     0.259 C 
HETATM   21  F1  UNL     1     -80.289  38.491 130.096  1.00  0.00    -0.205 F 
HETATM   22  F2  UNL     1     -79.131  39.592 128.540  1.00  0.00    -0.205 F 
HETATM   23  C15 UNL     1     -78.098  37.768 129.747  1.00  0.00     0.202 C 
ENDBRANCH   8  16
BRANCH   7  24
HETATM   24  C6  UNL     1     -76.367  35.317 128.634  1.00  0.00     0.101 C 
HETATM   25  N3  UNL     1     -76.647  35.205 127.305  1.00  0.00    -0.384 N 
HETATM   26  C7  UNL     1     -77.404  34.208 126.692  1.00  0.00     0.155 C 
HETATM   27  C9  UNL     1     -76.075  35.720 126.175  1.00  0.00     0.155 C 
HETATM   28  C8  UNL     1     -77.131  34.921 125.339  1.00  0.00     0.153 C 
BRANCH  28  29
HETATM   29  O1  UNL     1     -78.200  35.699 124.927  1.00  0.00    -0.392 OA
ATOM     30  H1  UNL     1     -78.305  36.481 125.458  1.00  0.00     0.210 HD
ENDBRANCH  28  29
ENDBRANCH   7  24
BRANCH   1  31
HETATM   31  N1  UNL     1     -70.782  36.789 129.891  1.00  0.00    -0.398 N 
ATOM     32  H12 UNL     1     -69.965  36.365 130.332  1.00  0.00     0.156 HD
ATOM     33  H11 UNL     1     -70.828  37.785 129.675  1.00  0.00     0.156 HD
ENDBRANCH   1  31
TORSDOF 4
ENDMDL
MODEL 3
REMARK VINA RESULT: -8.095149543      2.605      4.808
REMARK  4 active torsions:
REMARK  status: ('A' for Active; 'I' for Inactive)
REMARK    1  A    between atoms: N1_1  and  C1_4 
REMARK    2  A    between atoms: C5_10  and  C6_11 
REMARK    3  A    between atoms: C8_14  and  O1_15 
REMARK    4  A    between atoms: C10_18  and  N4_19 
ROOT
HETATM    1  C1  UNL     1     -79.509  41.234 130.367  1.00  0.00     0.046 A 
HETATM    2  C2  UNL     1     -78.100  41.373 130.455  1.00  0.00    -0.007 A 
HETATM    3  C3  UNL     1     -77.376  40.258 130.197  1.00  0.00     0.027 A 
HETATM    4  N2  UNL     1     -77.984  39.067 129.886  1.00  0.00    -0.357 N 
ATOM      5  H2  UNL     1     -77.412  38.243 129.697  1.00  0.00     0.166 HD
HETATM    6  C4  UNL     1     -79.299  38.976 129.828  1.00  0.00     0.059 A 
HETATM    7  C5  UNL     1     -79.884  37.666 129.620  1.00  0.00     0.033 A 
HETATM    8  C10 UNL     1     -81.197  37.526 129.668  1.00  0.00     0.044 A 
HETATM    9  C16 UNL     1     -82.040  38.647 129.878  1.00  0.00     0.031 A 
HETATM   10  C17 UNL     1     -81.483  39.909 130.073  1.00  0.00     0.018 A 
HETATM   11  C18 UNL     1     -80.112  40.037 130.052  1.00  0.00     0.018 A 
HETATM   12  C19 UNL     1     -75.901  40.195 130.207  1.00  0.00     0.131 C 
HETATM   13  S1  UNL     1     -75.194  41.450 131.355  1.00  0.00    -0.163 SA
HETATM   14  C20 UNL     1     -76.183  42.924 131.012  1.00  0.00     0.079 C 
HETATM   15  C21 UNL     1     -77.640  42.692 130.937  1.00  0.00     0.053 C 
ENDROOT
BRANCH   8  16
HETATM   16  N4  UNL     1     -81.760  36.269 130.102  1.00  0.00    -0.374 N 
HETATM   17  C11 UNL     1     -81.786  36.370 131.637  1.00  0.00     0.123 C 
HETATM   18  C12 UNL     1     -81.522  35.059 132.204  1.00  0.00     0.026 C 
HETATM   19  C13 UNL     1     -82.759  34.206 131.959  1.00  0.00     0.082 C 
HETATM   20  C14 UNL     1     -83.317  34.436 130.589  1.00  0.00     0.259 C 
HETATM   21  F1  UNL     1     -83.552  33.183 130.057  1.00  0.00    -0.205 F 
HETATM   22  F2  UNL     1     -84.484  35.137 130.589  1.00  0.00    -0.205 F 
HETATM   23  C15 UNL     1     -82.264  35.082 129.631  1.00  0.00     0.202 C 
ENDBRANCH   8  16
BRANCH   7  24
HETATM   24  C6  UNL     1     -78.886  36.613 129.364  1.00  0.00     0.101 C 
HETATM   25  N3  UNL     1     -78.829  36.188 128.071  1.00  0.00    -0.384 N 
HETATM   26  C7  UNL     1     -77.851  35.375 127.500  1.00  0.00     0.155 C 
HETATM   27  C9  UNL     1     -79.400  36.627 126.909  1.00  0.00     0.155 C 
HETATM   28  C8  UNL     1     -78.626  35.491 126.159  1.00  0.00     0.153 C 
BRANCH  28  29
HETATM   29  O1  UNL     1     -79.408  34.377 125.903  1.00  0.00    -0.392 OA
ATOM     30  H1  UNL     1     -79.574  34.257 124.975  1.00  0.00     0.210 HD
ENDBRANCH  28  29
ENDBRANCH   7  24
BRANCH   1  31
HETATM   31  N1  UNL     1     -80.316  42.218 130.578  1.00  0.00    -0.398 N 
ATOM     32  H12 UNL     1     -79.869  43.104 130.813  1.00  0.00     0.156 HD
ATOM     33  H11 UNL     1     -81.329  42.119 130.513  1.00  0.00     0.156 HD
ENDBRANCH   1  31
TORSDOF 4
ENDMDL
MODEL 4
REMARK VINA RESULT: -8.092582146      2.604      4.958
REMARK  4 active torsions:
REMARK  status: ('A' for Active; 'I' for Inactive)
REMARK    1  A    between atoms: N1_1  and  C1_4 
REMARK    2  A    between atoms: C5_10  and  C6_11 
REMARK    3  A    between atoms: C8_14  and  O1_15 
REMARK    4  A    between atoms: C10_18  and  N4_19 
ROOT
HETATM    1  C1  UNL     1     -78.410  41.940 130.024  1.00  0.00     0.046 A 
HETATM    2  C2  UNL     1     -76.994  41.864 130.045  1.00  0.00    -0.007 A 
HETATM    3  C3  UNL     1     -76.464  40.626 129.903  1.00  0.00     0.027 A 
HETATM    4  N2  UNL     1     -77.261  39.518 129.763  1.00  0.00    -0.357 N 
ATOM      5  H2  UNL     1     -76.833  38.598 129.660  1.00  0.00     0.166 HD
HETATM    6  C4  UNL     1     -78.577  39.630 129.763  1.00  0.00     0.059 A 
HETATM    7  C5  UNL     1     -79.364  38.413 129.741  1.00  0.00     0.033 A 
HETATM    8  C10 UNL     1     -80.679  38.489 129.850  1.00  0.00     0.044 A 
HETATM    9  C16 UNL     1     -81.329  39.746 129.948  1.00  0.00     0.031 A 
HETATM   10  C17 UNL     1     -80.576  40.918 129.966  1.00  0.00     0.018 A 
HETATM   11  C18 UNL     1     -79.205  40.824 129.882  1.00  0.00     0.018 A 
HETATM   12  C19 UNL     1     -75.017  40.333 129.870  1.00  0.00     0.131 C 
HETATM   13  S1  UNL     1     -74.066  41.586 130.828  1.00  0.00    -0.163 SA
HETATM   14  C20 UNL     1     -74.836  43.147 130.338  1.00  0.00     0.079 C 
HETATM   15  C21 UNL     1     -76.313  43.141 130.343  1.00  0.00     0.053 C 
ENDROOT
BRANCH   8  16
HETATM   16  N4  UNL     1     -81.404  37.396 130.457  1.00  0.00    -0.374 N 
HETATM   17  C11 UNL     1     -82.872  37.855 130.443  1.00  0.00     0.123 C 
HETATM   18  C12 UNL     1     -83.536  37.361 131.636  1.00  0.00     0.026 C 
HETATM   19  C13 UNL     1     -83.710  35.858 131.462  1.00  0.00     0.082 C 
HETATM   20  C14 UNL     1     -82.493  35.234 130.855  1.00  0.00     0.259 C 
HETATM   21  F1  UNL     1     -82.210  34.121 131.623  1.00  0.00    -0.205 F 
HETATM   22  F2  UNL     1     -82.672  34.841 129.563  1.00  0.00    -0.205 F 
HETATM   23  C15 UNL     1     -81.234  36.148 131.003  1.00  0.00     0.202 C 
ENDBRANCH   8  16
BRANCH   7  24
HETATM   24  C6  UNL     1     -78.555  37.193 129.583  1.00  0.00     0.101 C 
HETATM   25  N3  UNL     1     -78.662  36.594 128.364  1.00  0.00    -0.384 N 
HETATM   26  C7  UNL     1     -77.861  35.570 127.862  1.00  0.00     0.155 C 
HETATM   27  C9  UNL     1     -79.253  36.956 127.185  1.00  0.00     0.155 C 
HETATM   28  C8  UNL     1     -78.714  35.623 126.565  1.00  0.00     0.153 C 
BRANCH  28  29
HETATM   29  O1  UNL     1     -79.667  34.620 126.519  1.00  0.00    -0.392 OA
ATOM     30  H1  UNL     1     -80.551  34.963 126.449  1.00  0.00     0.210 HD
ENDBRANCH  28  29
ENDBRANCH   7  24
BRANCH   1  31
HETATM   31  N1  UNL     1     -79.045  43.057 130.139  1.00  0.00    -0.398 N 
ATOM     32  H12 UNL     1     -78.540  43.796 130.628  1.00  0.00     0.156 HD
ATOM     33  H11 UNL     1     -79.985  43.193 129.765  1.00  0.00     0.156 HD
ENDBRANCH   1  31
TORSDOF 4
ENDMDL
MODEL 5
REMARK VINA RESULT: -7.881684726      1.834      2.373
REMARK  4 active torsions:
REMARK  status: ('A' for Active; 'I' for Inactive)
REMARK    1  A    between atoms: N1_1  and  C1_4 
REMARK    2  A    between atoms: C5_10  and  C6_11 
REMARK    3  A    between atoms: C8_14  and  O1_15 
REMARK    4  A    between atoms: C10_18  and  N4_19 
ROOT
HETATM    1  C1  UNL     1     -74.607  39.419 130.270  1.00  0.00     0.046 A 
HETATM    2  C2  UNL     1     -75.083  40.714 130.598  1.00  0.00    -0.007 A 
HETATM    3  C3  UNL     1     -76.402  40.934 130.381  1.00  0.00     0.027 A 
HETATM    4  N2  UNL     1     -77.213  39.959 129.859  1.00  0.00    -0.357 N 
ATOM      5  H2  UNL     1     -78.203  40.155 129.705  1.00  0.00     0.166 HD
HETATM    6  C4  UNL     1     -76.728  38.770 129.554  1.00  0.00     0.059 A 
HETATM    7  C5  UNL     1     -77.605  37.826 128.888  1.00  0.00     0.033 A 
HETATM    8  C10 UNL     1     -77.118  36.671 128.471  1.00  0.00     0.044 A 
HETATM    9  C16 UNL     1     -75.760  36.328 128.703  1.00  0.00     0.031 A 
HETATM   10  C17 UNL     1     -74.916  37.230 129.345  1.00  0.00     0.018 A 
HETATM   11  C18 UNL     1     -75.428  38.444 129.748  1.00  0.00     0.018 A 
HETATM   12  C19 UNL     1     -77.100  42.201 130.681  1.00  0.00     0.131 C 
HETATM   13  S1  UNL     1     -75.946  43.633 130.579  1.00  0.00    -0.163 SA
HETATM   14  C20 UNL     1     -74.463  43.024 131.415  1.00  0.00     0.079 C 
HETATM   15  C21 UNL     1     -74.035  41.668 131.016  1.00  0.00     0.053 C 
ENDROOT
BRANCH   8  16
HETATM   16  N4  UNL     1     -77.704  36.030 127.317  1.00  0.00    -0.374 N 
HETATM   17  C11 UNL     1     -76.550  35.220 126.701  1.00  0.00     0.123 C 
HETATM   18  C12 UNL     1     -76.685  35.224 125.255  1.00  0.00     0.026 C 
HETATM   19  C13 UNL     1     -77.870  34.330 124.912  1.00  0.00     0.082 C 
HETATM   20  C14 UNL     1     -79.004  34.538 125.866  1.00  0.00     0.259 C 
HETATM   21  F1  UNL     1     -80.138  34.672 125.088  1.00  0.00    -0.205 F 
HETATM   22  F2  UNL     1     -79.185  33.501 126.729  1.00  0.00    -0.205 F 
HETATM   23  C15 UNL     1     -78.884  35.898 126.628  1.00  0.00     0.202 C 
ENDBRANCH   8  16
BRANCH   7  24
HETATM   24  C6  UNL     1     -78.994  38.301 128.766  1.00  0.00     0.101 C 
HETATM   25  N3  UNL     1     -79.893  37.630 129.539  1.00  0.00    -0.384 N 
HETATM   26  C7  UNL     1     -81.215  37.993 129.791  1.00  0.00     0.155 C 
HETATM   27  C9  UNL     1     -79.772  36.691 130.526  1.00  0.00     0.155 C 
HETATM   28  C8  UNL     1     -81.331  36.721 130.675  1.00  0.00     0.153 C 
BRANCH  28  29
HETATM   29  O1  UNL     1     -81.960  35.677 130.017  1.00  0.00    -0.392 OA
ATOM     30  H1  UNL     1     -82.682  35.975 129.475  1.00  0.00     0.210 HD
ENDBRANCH  28  29
ENDBRANCH   7  24
BRANCH   1  31
HETATM   31  N1  UNL     1     -73.376  39.072 130.436  1.00  0.00    -0.398 N 
ATOM     32  H12 UNL     1     -73.231  38.245 131.015  1.00  0.00     0.156 HD
ATOM     33  H11 UNL     1     -72.601  39.585 130.015  1.00  0.00     0.156 HD
ENDBRANCH   1  31
TORSDOF 4
ENDMDL
