MODEL 1
REMARK VINA RESULT: -5.620133618      0.000      0.000
REMARK  5 active torsions:
REMARK  status: ('A' for Active; 'I' for Inactive)
REMARK    1  A    between atoms: C5_5  and  O1_6 
REMARK    2  A    between atoms: C6_8  and  C7_9 
REMARK    3  A    between atoms: C6_8  and  C8_12 
REMARK    4  A    between atoms: C8_12  and  C9_14 
REMARK    5  A    between atoms: C9_14  and  O5_15 
ROOT
HETATM    1  C1  UNL     1     -83.351  36.864 128.868  1.00  0.00     0.016 C 
HETATM    2  C2  UNL     1     -82.332  35.795 129.209  1.00  0.00    -0.035 C 
HETATM    3  C3  UNL     1     -82.935  34.463 128.788  1.00  0.00     0.012 C 
HETATM    4  C4  UNL     1     -84.051  34.026 129.707  1.00  0.00     0.034 C 
HETATM    5  C5  UNL     1     -83.457  33.859 131.099  1.00  0.00     0.145 C 
HETATM    6  C6  UNL     1     -82.908  35.132 131.639  1.00  0.00     0.140 C 
HETATM    7  C10 UNL     1     -81.969  35.696 130.635  1.00  0.00     0.023 C 
HETATM    8  C11 UNL     1     -81.321  36.991 131.073  1.00  0.00     0.007 C 
HETATM    9  C12 UNL     1     -79.957  36.967 130.412  1.00  0.00     0.006 C 
HETATM   10  C13 UNL     1     -79.992  36.775 128.937  1.00  0.00    -0.002 C 
HETATM   11  C14 UNL     1     -81.117  36.053 128.334  1.00  0.00     0.001 C 
HETATM   12  C15 UNL     1     -80.675  34.740 127.664  1.00  0.00     0.046 C 
HETATM   13  C16 UNL     1     -79.628  35.045 126.587  1.00  0.00     0.218 C 
HETATM   14  F1  UNL     1     -78.944  33.865 126.371  1.00  0.00    -0.245 F 
HETATM   15  C17 UNL     1     -78.648  36.075 127.048  1.00  0.00     0.197 C 
HETATM   16  F2  UNL     1     -79.011  37.328 126.602  1.00  0.00    -0.231 F 
HETATM   17  C18 UNL     1     -77.247  35.755 126.792  1.00  0.00     0.169 C 
HETATM   18  O6  UNL     1     -76.795  35.120 125.887  1.00  0.00    -0.294 OA
HETATM   19  C19 UNL     1     -76.464  36.379 127.893  1.00  0.00     0.083 C 
HETATM   20  C20 UNL     1     -77.484  36.915 128.879  1.00  0.00     0.016 C 
HETATM   21  C21 UNL     1     -78.692  36.069 128.559  1.00  0.00     0.041 C 
ENDROOT
BRANCH   6  22
HETATM   22  C7  UNL     1     -81.969  34.660 132.756  1.00  0.00     0.192 C 
HETATM   23  O2  UNL     1     -81.658  35.334 133.729  1.00  0.00    -0.647 OA
HETATM   24  O3  UNL     1     -81.439  33.373 132.644  1.00  0.00    -0.647 OA
ENDBRANCH   6  22
BRANCH   6  25
HETATM   25  C8  UNL     1     -83.820  36.048 132.295  1.00  0.00     0.172 C 
HETATM   26  O4  UNL     1     -84.647  35.538 133.077  1.00  0.00    -0.294 OA
BRANCH  25  27
HETATM   27  C9  UNL     1     -83.969  37.510 132.214  1.00  0.00     0.244 C 
BRANCH  27  28
HETATM   28  O5  UNL     1     -84.624  38.147 133.223  1.00  0.00    -0.394 OA
ATOM     29  H5  UNL     1     -84.807  39.074 133.125  1.00  0.00     0.209 HD
ENDBRANCH  27  28
ENDBRANCH  25  27
ENDBRANCH   6  25
BRANCH   5  30
HETATM   30  O1  UNL     1     -84.230  33.086 131.894  1.00  0.00    -0.394 OA
ATOM     31  H1  UNL     1     -84.233  33.388 132.795  1.00  0.00     0.210 HD
ENDBRANCH   5  30
TORSDOF 5
ENDMDL
MODEL 2
REMARK VINA RESULT: -5.155246083      3.094      4.307
REMARK  5 active torsions:
REMARK  status: ('A' for Active; 'I' for Inactive)
REMARK    1  A    between atoms: C5_5  and  O1_6 
REMARK    2  A    between atoms: C6_8  and  C7_9 
REMARK    3  A    between atoms: C6_8  and  C8_12 
REMARK    4  A    between atoms: C8_12  and  C9_14 
REMARK    5  A    between atoms: C9_14  and  O5_15 
ROOT
HETATM    1  C1  UNL     1     -81.450  36.181 128.737  1.00  0.00     0.016 C 
HETATM    2  C2  UNL     1     -81.176  36.866 130.060  1.00  0.00    -0.035 C 
HETATM    3  C3  UNL     1     -80.467  35.848 130.942  1.00  0.00     0.012 C 
HETATM    4  C4  UNL     1     -81.401  34.766 131.427  1.00  0.00     0.034 C 
HETATM    5  C5  UNL     1     -82.489  35.437 132.255  1.00  0.00     0.145 C 
HETATM    6  C6  UNL     1     -83.297  36.399 131.459  1.00  0.00     0.140 C 
HETATM    7  C10 UNL     1     -82.367  37.343 130.787  1.00  0.00     0.023 C 
HETATM    8  C11 UNL     1     -83.068  38.393 129.955  1.00  0.00     0.007 C 
HETATM    9  C12 UNL     1     -82.159  39.603 130.039  1.00  0.00     0.006 C 
HETATM   10  C13 UNL     1     -80.752  39.345 129.630  1.00  0.00    -0.002 C 
HETATM   11  C14 UNL     1     -80.198  37.995 129.776  1.00  0.00     0.001 C 
HETATM   12  C15 UNL     1     -79.042  37.945 130.790  1.00  0.00     0.046 C 
HETATM   13  C16 UNL     1     -77.934  38.905 130.345  1.00  0.00     0.218 C 
HETATM   14  F1  UNL     1     -77.185  39.176 131.474  1.00  0.00    -0.245 F 
HETATM   15  C17 UNL     1     -78.493  40.194 129.836  1.00  0.00     0.197 C 
HETATM   16  F2  UNL     1     -78.592  40.174 128.461  1.00  0.00    -0.231 F 
HETATM   17  C18 UNL     1     -77.845  41.396 130.350  1.00  0.00     0.169 C 
HETATM   18  O6  UNL     1     -76.703  41.532 130.671  1.00  0.00    -0.294 OA
HETATM   19  C19 UNL     1     -78.895  42.450 130.404  1.00  0.00     0.083 C 
HETATM   20  C20 UNL     1     -80.201  41.757 130.070  1.00  0.00     0.016 C 
HETATM   21  C21 UNL     1     -79.883  40.322 130.417  1.00  0.00     0.041 C 
ENDROOT
BRANCH   6  22
HETATM   22  C7  UNL     1     -83.954  37.274 132.533  1.00  0.00     0.192 C 
HETATM   23  O2  UNL     1     -84.866  38.062 132.321  1.00  0.00    -0.647 OA
HETATM   24  O3  UNL     1     -83.468  37.157 133.838  1.00  0.00    -0.647 OA
ENDBRANCH   6  22
BRANCH   6  25
HETATM   25  C8  UNL     1     -84.407  35.884 130.683  1.00  0.00     0.172 C 
HETATM   26  O4  UNL     1     -85.075  34.973 131.214  1.00  0.00    -0.294 OA
BRANCH  25  27
HETATM   27  C9  UNL     1     -84.917  36.232 129.348  1.00  0.00     0.244 C 
BRANCH  27  28
HETATM   28  O5  UNL     1     -85.346  35.225 128.539  1.00  0.00    -0.394 OA
ATOM     29  H5  UNL     1     -84.700  34.625 128.186  1.00  0.00     0.209 HD
ENDBRANCH  27  28
ENDBRANCH  25  27
ENDBRANCH   6  25
BRANCH   5  30
HETATM   30  O1  UNL     1     -83.120  34.564 133.072  1.00  0.00    -0.394 OA
ATOM     31  H1  UNL     1     -82.875  34.683 133.982  1.00  0.00     0.210 HD
ENDBRANCH   5  30
TORSDOF 5
ENDMDL
MODEL 3
REMARK VINA RESULT: -4.867731649      4.752      7.656
REMARK  5 active torsions:
REMARK  status: ('A' for Active; 'I' for Inactive)
REMARK    1  A    between atoms: C5_5  and  O1_6 
REMARK    2  A    between atoms: C6_8  and  C7_9 
REMARK    3  A    between atoms: C6_8  and  C8_12 
REMARK    4  A    between atoms: C8_12  and  C9_14 
REMARK    5  A    between atoms: C9_14  and  O5_15 
ROOT
HETATM    1  C1  UNL     1     -78.509  40.425 127.805  1.00  0.00     0.016 C 
HETATM    2  C2  UNL     1     -78.987  40.356 129.242  1.00  0.00    -0.035 C 
HETATM    3  C3  UNL     1     -79.728  41.656 129.520  1.00  0.00     0.012 C 
HETATM    4  C4  UNL     1     -78.789  42.833 129.641  1.00  0.00     0.034 C 
HETATM    5  C5  UNL     1     -77.858  42.557 130.813  1.00  0.00     0.145 C 
HETATM    6  C6  UNL     1     -77.025  41.342 130.603  1.00  0.00     0.140 C 
HETATM    7  C10 UNL     1     -77.927  40.213 130.257  1.00  0.00     0.023 C 
HETATM    8  C11 UNL     1     -77.202  38.905 130.036  1.00  0.00     0.007 C 
HETATM    9  C12 UNL     1     -78.192  37.849 130.484  1.00  0.00     0.006 C 
HETATM   10  C13 UNL     1     -79.519  37.927 129.815  1.00  0.00    -0.002 C 
HETATM   11  C14 UNL     1     -79.995  39.221 129.314  1.00  0.00     0.001 C 
HETATM   12  C15 UNL     1     -81.260  39.700 130.047  1.00  0.00     0.046 C 
HETATM   13  C16 UNL     1     -82.368  38.654 129.888  1.00  0.00     0.218 C 
HETATM   14  F1  UNL     1     -83.264  38.884 130.913  1.00  0.00    -0.245 F 
HETATM   15  C17 UNL     1     -81.837  37.264 130.037  1.00  0.00     0.197 C 
HETATM   16  F2  UNL     1     -81.571  36.708 128.803  1.00  0.00    -0.231 F 
HETATM   17  C18 UNL     1     -82.622  36.392 130.905  1.00  0.00     0.169 C 
HETATM   18  O6  UNL     1     -83.801  36.413 131.092  1.00  0.00    -0.294 OA
HETATM   19  C19 UNL     1     -81.659  35.446 131.532  1.00  0.00     0.083 C 
HETATM   20  C20 UNL     1     -80.279  35.924 131.127  1.00  0.00     0.016 C 
HETATM   21  C21 UNL     1     -80.540  37.375 130.806  1.00  0.00     0.041 C 
ENDROOT
BRANCH   6  22
HETATM   22  C7  UNL     1     -76.563  40.987 132.022  1.00  0.00     0.192 C 
HETATM   23  O2  UNL     1     -75.429  40.632 132.312  1.00  0.00    -0.647 OA
HETATM   24  O3  UNL     1     -77.512  41.077 133.043  1.00  0.00    -0.647 OA
ENDBRANCH   6  22
BRANCH   6  25
HETATM   25  C8  UNL     1     -75.796  41.476 129.846  1.00  0.00     0.172 C 
HETATM   26  O4  UNL     1     -75.408  42.641 129.626  1.00  0.00    -0.294 OA
BRANCH  25  27
HETATM   27  C9  UNL     1     -74.888  40.476 129.263  1.00  0.00     0.244 C 
BRANCH  27  28
HETATM   28  O5  UNL     1     -73.720  40.213 129.909  1.00  0.00    -0.394 OA
ATOM     29  H5  UNL     1     -72.942  40.690 129.643  1.00  0.00     0.209 HD
ENDBRANCH  27  28
ENDBRANCH  25  27
ENDBRANCH   6  25
BRANCH   5  30
HETATM   30  O1  UNL     1     -77.274  43.684 131.277  1.00  0.00    -0.394 OA
ATOM     31  H1  UNL     1     -76.396  43.801 130.933  1.00  0.00     0.210 HD
ENDBRANCH   5  30
TORSDOF 5
ENDMDL
MODEL 4
REMARK VINA RESULT: -4.793394656      9.535     11.432
REMARK  5 active torsions:
REMARK  status: ('A' for Active; 'I' for Inactive)
REMARK    1  A    between atoms: C5_5  and  O1_6 
REMARK    2  A    between atoms: C6_8  and  C7_9 
REMARK    3  A    between atoms: C6_8  and  C8_12 
REMARK    4  A    between atoms: C8_12  and  C9_14 
REMARK    5  A    between atoms: C9_14  and  O5_15 
ROOT
HETATM    1  C1  UNL     1     -77.671  28.726 119.216  1.00  0.00     0.016 C 
HETATM    2  C2  UNL     1     -77.312  29.550 120.436  1.00  0.00    -0.035 C 
HETATM    3  C3  UNL     1     -77.406  28.620 121.637  1.00  0.00     0.012 C 
HETATM    4  C4  UNL     1     -78.836  28.288 121.990  1.00  0.00     0.034 C 
HETATM    5  C5  UNL     1     -79.534  29.594 122.345  1.00  0.00     0.145 C 
HETATM    6  C6  UNL     1     -79.567  30.549 121.204  1.00  0.00     0.140 C 
HETATM    7  C10 UNL     1     -78.181  30.713 120.695  1.00  0.00     0.023 C 
HETATM    8  C11 UNL     1     -78.072  31.681 119.539  1.00  0.00     0.007 C 
HETATM    9  C12 UNL     1     -76.695  32.294 119.694  1.00  0.00     0.006 C 
HETATM   10  C13 UNL     1     -75.585  31.305 119.763  1.00  0.00    -0.002 C 
HETATM   11  C14 UNL     1     -75.856  29.958 120.277  1.00  0.00     0.001 C 
HETATM   12  C15 UNL     1     -75.093  29.667 121.580  1.00  0.00     0.046 C 
HETATM   13  C16 UNL     1     -73.588  29.826 121.335  1.00  0.00     0.218 C 
HETATM   14  F1  UNL     1     -73.016  30.028 122.577  1.00  0.00    -0.245 F 
HETATM   15  C17 UNL     1     -73.292  31.021 120.487  1.00  0.00     0.197 C 
HETATM   16  F2  UNL     1     -73.148  30.657 119.165  1.00  0.00    -0.231 F 
HETATM   17  C18 UNL     1     -72.211  31.872 120.973  1.00  0.00     0.169 C 
HETATM   18  O6  UNL     1     -71.242  31.545 121.590  1.00  0.00    -0.294 OA
HETATM   19  C19 UNL     1     -72.544  33.260 120.548  1.00  0.00     0.083 C 
HETATM   20  C20 UNL     1     -73.939  33.193 119.959  1.00  0.00     0.016 C 
HETATM   21  C21 UNL     1     -74.485  31.943 120.606  1.00  0.00     0.041 C 
ENDROOT
BRANCH   6  22
HETATM   22  C7  UNL     1     -79.842  31.895 121.885  1.00  0.00     0.192 C 
HETATM   23  O2  UNL     1     -80.945  32.419 121.963  1.00  0.00    -0.647 OA
HETATM   24  O3  UNL     1     -78.751  32.560 122.449  1.00  0.00    -0.647 OA
ENDBRANCH   6  22
BRANCH   6  25
HETATM   25  C8  UNL     1     -80.630  30.413 120.228  1.00  0.00     0.172 C 
HETATM   26  O4  UNL     1     -80.653  31.263 119.316  1.00  0.00    -0.294 OA
BRANCH  25  27
HETATM   27  C9  UNL     1     -81.726  29.440 120.100  1.00  0.00     0.244 C 
BRANCH  27  28
HETATM   28  O5  UNL     1     -82.792  29.556 120.937  1.00  0.00    -0.394 OA
ATOM     29  H5  UNL     1     -83.370  30.302 120.829  1.00  0.00     0.209 HD
ENDBRANCH  27  28
ENDBRANCH  25  27
ENDBRANCH   6  25
BRANCH   5  30
HETATM   30  O1  UNL     1     -80.659  29.391 123.067  1.00  0.00    -0.394 OA
ATOM     31  H1  UNL     1     -80.899  28.473 123.107  1.00  0.00     0.210 HD
ENDBRANCH   5  30
TORSDOF 5
ENDMDL
MODEL 5
REMARK VINA RESULT: -4.544406720      4.298      7.565
REMARK  5 active torsions:
REMARK  status: ('A' for Active; 'I' for Inactive)
REMARK    1  A    between atoms: C5_5  and  O1_6 
REMARK    2  A    between atoms: C6_8  and  C7_9 
REMARK    3  A    between atoms: C6_8  and  C8_12 
REMARK    4  A    between atoms: C8_12  and  C9_14 
REMARK    5  A    between atoms: C9_14  and  O5_15 
ROOT
HETATM    1  C1  UNL     1     -83.734  36.120 133.678  1.00  0.00     0.016 C 
HETATM    2  C2  UNL     1     -83.517  34.856 132.871  1.00  0.00    -0.035 C 
HETATM    3  C3  UNL     1     -82.024  34.762 132.594  1.00  0.00     0.012 C 
HETATM    4  C4  UNL     1     -81.570  35.774 131.570  1.00  0.00     0.034 C 
HETATM    5  C5  UNL     1     -82.313  35.479 130.274  1.00  0.00     0.145 C 
HETATM    6  C6  UNL     1     -83.787  35.623 130.419  1.00  0.00     0.140 C 
HETATM    7  C10 UNL     1     -84.222  34.800 131.577  1.00  0.00     0.023 C 
HETATM    8  C11 UNL     1     -85.714  34.843 131.823  1.00  0.00     0.007 C 
HETATM    9  C12 UNL     1     -86.036  33.479 132.400  1.00  0.00     0.006 C 
HETATM   10  C13 UNL     1     -85.234  33.114 133.599  1.00  0.00    -0.002 C 
HETATM   11  C14 UNL     1     -83.897  33.691 133.771  1.00  0.00     0.001 C 
HETATM   12  C15 UNL     1     -82.791  32.623 133.728  1.00  0.00     0.046 C 
HETATM   13  C16 UNL     1     -83.043  31.584 134.827  1.00  0.00     0.218 C 
HETATM   14  F1  UNL     1     -82.347  30.452 134.451  1.00  0.00    -0.245 F 
HETATM   15  C17 UNL     1     -84.492  31.229 134.926  1.00  0.00     0.197 C 
HETATM   16  F2  UNL     1     -85.107  31.963 135.919  1.00  0.00    -0.231 F 
HETATM   17  C18 UNL     1     -84.774  29.800 135.006  1.00  0.00     0.169 C 
HETATM   18  O6  UNL     1     -84.098  28.946 135.496  1.00  0.00    -0.294 OA
HETATM   19  C19 UNL     1     -86.094  29.594 134.349  1.00  0.00     0.083 C 
HETATM   20  C20 UNL     1     -86.468  30.929 133.736  1.00  0.00     0.016 C 
HETATM   21  C21 UNL     1     -85.119  31.592 133.599  1.00  0.00     0.041 C 
ENDROOT
BRANCH   6  22
HETATM   22  C7  UNL     1     -84.333  34.839 129.220  1.00  0.00     0.192 C 
HETATM   23  O2  UNL     1     -85.297  35.182 128.549  1.00  0.00    -0.647 OA
HETATM   24  O3  UNL     1     -83.677  33.653 128.880  1.00  0.00    -0.647 OA
ENDBRANCH   6  22
BRANCH   6  25
HETATM   25  C8  UNL     1     -84.363  36.945 130.280  1.00  0.00     0.172 C 
HETATM   26  O4  UNL     1     -83.576  37.860 129.965  1.00  0.00    -0.294 OA
BRANCH  25  27
HETATM   27  C9  UNL     1     -85.740  37.438 130.446  1.00  0.00     0.244 C 
BRANCH  27  28
HETATM   28  O5  UNL     1     -86.468  37.703 129.328  1.00  0.00    -0.394 OA
ATOM     29  H5  UNL     1     -87.410  37.790 129.415  1.00  0.00     0.209 HD
ENDBRANCH  27  28
ENDBRANCH  25  27
ENDBRANCH   6  25
BRANCH   5  30
HETATM   30  O1  UNL     1     -81.701  36.024 129.199  1.00  0.00    -0.394 OA
ATOM     31  H1  UNL     1     -81.162  35.394 128.735  1.00  0.00     0.210 HD
ENDBRANCH   5  30
TORSDOF 5
ENDMDL
