MODEL 1
REMARK VINA RESULT: -4.991908579      0.000      0.000
REMARK  3 active torsions:
REMARK  status: ('A' for Active; 'I' for Inactive)
REMARK    1  A    between atoms: C3_3  and  C4_4 
REMARK    2  A    between atoms: C4_4  and  N1_5 
REMARK    3  A    between atoms: N1_5  and  C5_8 
ROOT
HETATM    1  C4  UNL     1      24.309   0.197  25.866  1.00  0.00     0.237 C 
ENDROOT
BRANCH   1   2
HETATM    2  C3  UNL     1      24.815   1.598  25.689  1.00  0.00     0.014 C 
HETATM    3  C2  UNL     1      23.838   2.464  24.973  1.00  0.00     0.034 C 
HETATM    4  C1  UNL     1      24.327   2.530  23.511  1.00  0.00     0.232 C 
HETATM    5  N3  UNL     1      25.448   3.414  23.480  1.00  0.00    -0.075 N 
HETATM    6  C9  UNL     1      26.455   2.987  24.431  1.00  0.00     0.232 C 
ATOM      7  H32 UNL     1      25.832   3.509  22.539  1.00  0.00     0.277 HD
ATOM      8  H31 UNL     1      25.172   4.384  23.630  1.00  0.00     0.277 HD
HETATM    9  C8  UNL     1      26.149   1.619  24.992  1.00  0.00     0.034 C 
ENDBRANCH   1   2
BRANCH   1  10
HETATM   10  N1  UNL     1      23.025   0.223  26.523  1.00  0.00    -0.067 N 
ATOM     11  H12 UNL     1      23.124   0.117  27.533  1.00  0.00     0.277 HD
ATOM     12  H11 UNL     1      22.615   1.157  26.499  1.00  0.00     0.277 HD
BRANCH  10  13
HETATM   13  C5  UNL     1      22.115  -0.765  25.977  1.00  0.00     0.236 C 
HETATM   14  C6  UNL     1      22.318  -2.123  26.608  1.00  0.00     0.267 C 
HETATM   15  N2  UNL     1      22.106  -2.707  25.298  1.00  0.00    -0.071 N 
HETATM   16  C7  UNL     1      22.557  -1.460  24.721  1.00  0.00     0.267 C 
ATOM     17  H22 UNL     1      22.547  -3.590  25.042  1.00  0.00     0.277 HD
ATOM     18  H21 UNL     1      21.202  -3.103  25.044  1.00  0.00     0.277 HD
ENDBRANCH  10  13
ENDBRANCH   1  10
TORSDOF 3
ENDMDL
MODEL 2
REMARK VINA RESULT: -4.991006819      1.575      5.079
REMARK  3 active torsions:
REMARK  status: ('A' for Active; 'I' for Inactive)
REMARK    1  A    between atoms: C3_3  and  C4_4 
REMARK    2  A    between atoms: C4_4  and  N1_5 
REMARK    3  A    between atoms: N1_5  and  C5_8 
ROOT
HETATM    1  C4  UNL     1      22.629   1.512  25.138  1.00  0.00     0.237 C 
ENDROOT
BRANCH   1   2
HETATM    2  C3  UNL     1      21.905   0.200  25.205  1.00  0.00     0.014 C 
HETATM    3  C2  UNL     1      21.493  -0.146  26.593  1.00  0.00     0.034 C 
HETATM    4  C1  UNL     1      22.543  -1.155  27.105  1.00  0.00     0.232 C 
HETATM    5  N3  UNL     1      22.260  -2.410  26.486  1.00  0.00    -0.075 N 
HETATM    6  C9  UNL     1      22.218  -2.265  25.045  1.00  0.00     0.232 C 
ATOM      7  H32 UNL     1      22.918  -3.134  26.776  1.00  0.00     0.277 HD
ATOM      8  H31 UNL     1      21.404  -2.828  26.850  1.00  0.00     0.277 HD
HETATM    9  C8  UNL     1      22.723  -0.913  24.605  1.00  0.00     0.034 C 
ENDBRANCH   1   2
BRANCH   1  10
HETATM   10  N1  UNL     1      23.783   1.387  24.280  1.00  0.00    -0.067 N 
ATOM     11  H12 UNL     1      24.173   0.446  24.319  1.00  0.00     0.277 HD
ATOM     12  H11 UNL     1      23.517   1.411  23.296  1.00  0.00     0.277 HD
BRANCH  10  13
HETATM   13  C5  UNL     1      24.791   2.387  24.577  1.00  0.00     0.236 C 
HETATM   14  C6  UNL     1      26.102   1.756  24.983  1.00  0.00     0.267 C 
HETATM   15  N2  UNL     1      26.243   2.807  25.971  1.00  0.00    -0.071 N 
HETATM   16  C7  UNL     1      24.802   2.931  25.977  1.00  0.00     0.267 C 
ATOM     17  H22 UNL     1      26.756   2.645  26.837  1.00  0.00     0.277 HD
ATOM     18  H21 UNL     1      26.836   3.617  25.791  1.00  0.00     0.277 HD
ENDBRANCH  10  13
ENDBRANCH   1  10
TORSDOF 3
ENDMDL
MODEL 3
REMARK VINA RESULT: -4.978382378      0.757      1.504
REMARK  3 active torsions:
REMARK  status: ('A' for Active; 'I' for Inactive)
REMARK    1  A    between atoms: C3_3  and  C4_4 
REMARK    2  A    between atoms: C4_4  and  N1_5 
REMARK    3  A    between atoms: N1_5  and  C5_8 
ROOT
HETATM    1  C4  UNL     1      23.686   0.451  26.060  1.00  0.00     0.237 C 
ENDROOT
BRANCH   1   2
HETATM    2  C3  UNL     1      24.413   0.954  24.849  1.00  0.00     0.014 C 
HETATM    3  C2  UNL     1      25.839   1.272  25.139  1.00  0.00     0.034 C 
HETATM    4  C1  UNL     1      25.901   2.803  25.319  1.00  0.00     0.232 C 
HETATM    5  N3  UNL     1      25.820   3.385  24.017  1.00  0.00    -0.075 N 
HETATM    6  C9  UNL     1      24.641   2.909  23.323  1.00  0.00     0.232 C 
ATOM      7  H32 UNL     1      25.854   4.404  24.054  1.00  0.00     0.277 HD
ATOM      8  H31 UNL     1      26.669   3.224  23.476  1.00  0.00     0.277 HD
HETATM    9  C8  UNL     1      23.720   2.147  24.245  1.00  0.00     0.034 C 
ENDBRANCH   1   2
BRANCH   1  10
HETATM   10  N1  UNL     1      22.265   0.444  25.806  1.00  0.00    -0.067 N 
ATOM     11  H12 UNL     1      21.773   1.077  26.437  1.00  0.00     0.277 HD
ATOM     12  H11 UNL     1      22.045   0.897  24.919  1.00  0.00     0.277 HD
BRANCH  10  13
HETATM   13  C5  UNL     1      21.710  -0.895  25.865  1.00  0.00     0.236 C 
HETATM   14  C6  UNL     1      22.409  -1.745  26.900  1.00  0.00     0.267 C 
HETATM   15  N2  UNL     1      22.315  -2.857  25.975  1.00  0.00    -0.071 N 
HETATM   16  C7  UNL     1      22.271  -1.895  24.896  1.00  0.00     0.267 C 
ATOM     17  H22 UNL     1      23.011  -3.603  25.981  1.00  0.00     0.277 HD
ATOM     18  H21 UNL     1      21.584  -3.561  26.077  1.00  0.00     0.277 HD
ENDBRANCH  10  13
ENDBRANCH   1  10
TORSDOF 3
ENDMDL
MODEL 4
REMARK VINA RESULT: -4.970595697      1.096      5.125
REMARK  3 active torsions:
REMARK  status: ('A' for Active; 'I' for Inactive)
REMARK    1  A    between atoms: C3_3  and  C4_4 
REMARK    2  A    between atoms: C4_4  and  N1_5 
REMARK    3  A    between atoms: N1_5  and  C5_8 
ROOT
HETATM    1  C4  UNL     1      23.582   1.168  26.123  1.00  0.00     0.237 C 
ENDROOT
BRANCH   1   2
HETATM    2  C3  UNL     1      23.630  -0.330  26.054  1.00  0.00     0.014 C 
HETATM    3  C2  UNL     1      23.429  -0.837  24.669  1.00  0.00     0.034 C 
HETATM    4  C1  UNL     1      21.953  -1.279  24.591  1.00  0.00     0.232 C 
HETATM    5  N3  UNL     1      21.847  -2.523  25.284  1.00  0.00    -0.075 N 
HETATM    6  C9  UNL     1      22.367  -2.397  26.631  1.00  0.00     0.232 C 
ATOM      7  H32 UNL     1      20.892  -2.882  25.278  1.00  0.00     0.277 HD
ATOM      8  H31 UNL     1      22.298  -3.282  24.774  1.00  0.00     0.277 HD
HETATM    9  C8  UNL     1      22.634  -0.956  26.994  1.00  0.00     0.034 C 
ENDBRANCH   1   2
BRANCH   1  10
HETATM   10  N1  UNL     1      24.924   1.693  26.201  1.00  0.00    -0.067 N 
ATOM     11  H12 UNL     1      25.188   1.892  27.166  1.00  0.00     0.277 HD
ATOM     12  H11 UNL     1      25.616   0.975  25.989  1.00  0.00     0.277 HD
BRANCH  10  13
HETATM   13  C5  UNL     1      25.101   2.859  25.356  1.00  0.00     0.236 C 
HETATM   14  C6  UNL     1      24.572   2.624  23.961  1.00  0.00     0.267 C 
HETATM   15  N2  UNL     1      25.714   3.364  23.460  1.00  0.00    -0.071 N 
HETATM   16  C7  UNL     1      26.426   2.988  24.662  1.00  0.00     0.267 C 
ATOM     17  H22 UNL     1      26.104   3.163  22.538  1.00  0.00     0.277 HD
ATOM     18  H21 UNL     1      25.625   4.343  23.190  1.00  0.00     0.277 HD
ENDBRANCH  10  13
ENDBRANCH   1  10
TORSDOF 3
ENDMDL
MODEL 5
REMARK VINA RESULT: -4.953791753      1.397      5.086
REMARK  3 active torsions:
REMARK  status: ('A' for Active; 'I' for Inactive)
REMARK    1  A    between atoms: C3_3  and  C4_4 
REMARK    2  A    between atoms: C4_4  and  N1_5 
REMARK    3  A    between atoms: N1_5  and  C5_8 
ROOT
HETATM    1  C4  UNL     1      22.966   1.374  25.250  1.00  0.00     0.237 C 
ENDROOT
BRANCH   1   2
HETATM    2  C3  UNL     1      23.281  -0.014  25.724  1.00  0.00     0.014 C 
HETATM    3  C2  UNL     1      23.330  -0.994  24.604  1.00  0.00     0.034 C 
HETATM    4  C1  UNL     1      21.971  -1.726  24.624  1.00  0.00     0.232 C 
HETATM    5  N3  UNL     1      22.006  -2.651  25.710  1.00  0.00    -0.075 N 
HETATM    6  C9  UNL     1      22.339  -1.970  26.945  1.00  0.00     0.232 C 
ATOM      7  H32 UNL     1      21.135  -3.176  25.790  1.00  0.00     0.277 HD
ATOM      8  H31 UNL     1      22.637  -3.431  25.525  1.00  0.00     0.277 HD
HETATM    9  C8  UNL     1      22.309  -0.470  26.780  1.00  0.00     0.034 C 
ENDBRANCH   1   2
BRANCH   1  10
HETATM   10  N1  UNL     1      23.833   1.720  24.149  1.00  0.00    -0.067 N 
ATOM     11  H12 UNL     1      24.228   0.887  23.714  1.00  0.00     0.277 HD
ATOM     12  H11 UNL     1      23.300   2.079  23.357  1.00  0.00     0.277 HD
BRANCH  10  13
HETATM   13  C5  UNL     1      24.872   2.649  24.548  1.00  0.00     0.236 C 
HETATM   14  C6  UNL     1      26.164   1.936  24.875  1.00  0.00     0.267 C 
HETATM   15  N2  UNL     1      26.340   2.868  25.971  1.00  0.00    -0.071 N 
HETATM   16  C7  UNL     1      24.904   3.036  25.999  1.00  0.00     0.267 C 
ATOM     17  H22 UNL     1      26.850   2.596  26.812  1.00  0.00     0.277 HD
ATOM     18  H21 UNL     1      26.959   3.674  25.878  1.00  0.00     0.277 HD
ENDBRANCH  10  13
ENDBRANCH   1  10
TORSDOF 3
ENDMDL
