MODEL 1
REMARK VINA RESULT: -5.273251151      0.000      0.000
REMARK  3 active torsions:
REMARK  status: ('A' for Active; 'I' for Inactive)
REMARK    1  A    between atoms: C2_4  and  C3_5 
REMARK    2  A    between atoms: C3_5  and  N2_6 
REMARK    3  A    between atoms: N2_6  and  C4_9 
ROOT
HETATM    1  N2  UNL     1      23.095   0.278  25.559  1.00  0.00    -0.064 N 
ATOM      2  H21 UNL     1      22.751   1.140  25.136  1.00  0.00     0.278 HD
ATOM      3  H22 UNL     1      22.515   0.278  26.398  1.00  0.00     0.278 HD
ENDROOT
BRANCH   1   4
HETATM    4  C3  UNL     1      24.516   0.362  25.882  1.00  0.00     0.291 C 
BRANCH   4   5
HETATM    5  C2  UNL     1      25.078   1.529  25.142  1.00  0.00     0.051 A 
HETATM    6  N1  UNL     1      26.337   2.033  25.300  1.00  0.00    -0.353 N 
HETATM    7  C1  UNL     1      26.531   3.030  24.488  1.00  0.00     0.180 A 
ATOM      8  H1  UNL     1      27.028   1.677  25.960  1.00  0.00     0.166 HD
HETATM    9  N4  UNL     1      25.401   3.273  23.750  1.00  0.00    -0.360 N 
HETATM   10  C8  UNL     1      24.534   2.311  24.183  1.00  0.00     0.115 A 
ATOM     11  H4  UNL     1      25.246   3.996  23.048  1.00  0.00     0.166 HD
ENDBRANCH   4   5
ENDBRANCH   1   4
BRANCH   1  12
HETATM   12  C4  UNL     1      22.831  -0.870  24.726  1.00  0.00     0.213 C 
HETATM   13  C5  UNL     1      21.592  -0.716  23.923  1.00  0.00     0.062 C 
HETATM   14  C6  UNL     1      20.708  -1.886  24.307  1.00  0.00     0.234 C 
HETATM   15  N3  UNL     1      21.628  -2.854  24.829  1.00  0.00    -0.073 N 
HETATM   16  C7  UNL     1      22.481  -2.045  25.655  1.00  0.00     0.265 C 
ATOM     17  H32 UNL     1      21.195  -3.647  25.303  1.00  0.00     0.277 HD
ATOM     18  H31 UNL     1      22.111  -3.413  24.126  1.00  0.00     0.277 HD
ENDBRANCH   1  12
TORSDOF 3
ENDMDL
MODEL 2
REMARK VINA RESULT: -5.245748718      1.092      1.478
REMARK  3 active torsions:
REMARK  status: ('A' for Active; 'I' for Inactive)
REMARK    1  A    between atoms: C2_4  and  C3_5 
REMARK    2  A    between atoms: C3_5  and  N2_6 
REMARK    3  A    between atoms: N2_6  and  C4_9 
ROOT
HETATM    1  N2  UNL     1      24.219  -0.190  24.546  1.00  0.00    -0.064 N 
ATOM      2  H21 UNL     1      24.711  -1.039  24.270  1.00  0.00     0.278 HD
ATOM      3  H22 UNL     1      24.171   0.261  23.632  1.00  0.00     0.278 HD
ENDROOT
BRANCH   1   4
HETATM    4  C3  UNL     1      24.993   0.599  25.500  1.00  0.00     0.291 C 
BRANCH   4   5
HETATM    5  C2  UNL     1      25.452   1.832  24.798  1.00  0.00     0.051 A 
HETATM    6  N1  UNL     1      26.719   2.339  24.836  1.00  0.00    -0.353 N 
HETATM    7  C1  UNL     1      26.804   3.405  24.094  1.00  0.00     0.180 A 
ATOM      8  H1  UNL     1      27.489   1.939  25.370  1.00  0.00     0.166 HD
HETATM    9  N4  UNL     1      25.587   3.693  23.530  1.00  0.00    -0.360 N 
HETATM   10  C8  UNL     1      24.786   2.685  23.987  1.00  0.00     0.115 A 
ATOM     11  H4  UNL     1      25.341   4.471  22.919  1.00  0.00     0.166 HD
ENDBRANCH   4   5
ENDBRANCH   1   4
BRANCH   1  12
HETATM   12  C4  UNL     1      22.906  -0.476  25.071  1.00  0.00     0.213 C 
HETATM   13  C5  UNL     1      22.841  -0.330  26.546  1.00  0.00     0.062 C 
HETATM   14  C6  UNL     1      22.388  -1.678  27.070  1.00  0.00     0.234 C 
HETATM   15  N3  UNL     1      21.738  -2.284  25.945  1.00  0.00    -0.073 N 
HETATM   16  C7  UNL     1      22.647  -1.980  24.874  1.00  0.00     0.265 C 
ATOM     17  H32 UNL     1      21.518  -3.274  26.055  1.00  0.00     0.277 HD
ATOM     18  H31 UNL     1      20.775  -1.987  25.791  1.00  0.00     0.277 HD
ENDBRANCH   1  12
TORSDOF 3
ENDMDL
MODEL 3
REMARK VINA RESULT: -5.218994810      0.639      1.256
REMARK  3 active torsions:
REMARK  status: ('A' for Active; 'I' for Inactive)
REMARK    1  A    between atoms: C2_4  and  C3_5 
REMARK    2  A    between atoms: C3_5  and  N2_6 
REMARK    3  A    between atoms: N2_6  and  C4_9 
ROOT
HETATM    1  N2  UNL     1      22.842   0.311  25.405  1.00  0.00    -0.064 N 
ATOM      2  H21 UNL     1      22.068   0.464  26.051  1.00  0.00     0.278 HD
ATOM      3  H22 UNL     1      23.584   0.161  26.090  1.00  0.00     0.278 HD
ENDROOT
BRANCH   1   4
HETATM    4  C3  UNL     1      23.098   1.485  24.576  1.00  0.00     0.291 C 
BRANCH   4   5
HETATM    5  C2  UNL     1      24.550   1.806  24.686  1.00  0.00     0.051 A 
HETATM    6  N1  UNL     1      25.140   2.960  24.258  1.00  0.00    -0.353 N 
HETATM    7  C1  UNL     1      26.412   2.947  24.527  1.00  0.00     0.180 A 
ATOM      8  H1  UNL     1      24.651   3.725  23.794  1.00  0.00     0.166 HD
HETATM    9  N4  UNL     1      26.761   1.767  25.132  1.00  0.00    -0.360 N 
HETATM   10  C8  UNL     1      25.572   1.099  25.219  1.00  0.00     0.115 A 
ATOM     11  H4  UNL     1      27.683   1.462  25.443  1.00  0.00     0.166 HD
ENDBRANCH   4   5
ENDBRANCH   1   4
BRANCH   1  12
HETATM   12  C4  UNL     1      22.630  -0.855  24.582  1.00  0.00     0.213 C 
HETATM   13  C5  UNL     1      21.389  -0.761  23.773  1.00  0.00     0.062 C 
HETATM   14  C6  UNL     1      20.554  -1.963  24.164  1.00  0.00     0.234 C 
HETATM   15  N3  UNL     1      21.510  -2.887  24.699  1.00  0.00    -0.073 N 
HETATM   16  C7  UNL     1      22.325  -2.036  25.520  1.00  0.00     0.265 C 
ATOM     17  H32 UNL     1      21.110  -3.694  25.178  1.00  0.00     0.277 HD
ATOM     18  H31 UNL     1      22.020  -3.432  24.003  1.00  0.00     0.277 HD
ENDBRANCH   1  12
TORSDOF 3
ENDMDL
MODEL 4
REMARK VINA RESULT: -5.209067586      0.916      1.304
REMARK  3 active torsions:
REMARK  status: ('A' for Active; 'I' for Inactive)
REMARK    1  A    between atoms: C2_4  and  C3_5 
REMARK    2  A    between atoms: C3_5  and  N2_6 
REMARK    3  A    between atoms: N2_6  and  C4_9 
ROOT
HETATM    1  N2  UNL     1      24.045  -0.294  24.637  1.00  0.00    -0.064 N 
ATOM      2  H21 UNL     1      24.480  -1.174  24.360  1.00  0.00     0.278 HD
ATOM      3  H22 UNL     1      24.002   0.150  23.720  1.00  0.00     0.278 HD
ENDROOT
BRANCH   1   4
HETATM    4  C3  UNL     1      24.886   0.457  25.565  1.00  0.00     0.291 C 
BRANCH   4   5
HETATM    5  C2  UNL     1      25.343   1.690  24.862  1.00  0.00     0.051 A 
HETATM    6  N1  UNL     1      26.605   2.207  24.911  1.00  0.00    -0.353 N 
HETATM    7  C1  UNL     1      26.690   3.269  24.165  1.00  0.00     0.180 A 
ATOM      8  H1  UNL     1      27.373   1.815  25.455  1.00  0.00     0.166 HD
HETATM    9  N4  UNL     1      25.478   3.545  23.586  1.00  0.00    -0.360 N 
HETATM   10  C8  UNL     1      24.680   2.533  24.039  1.00  0.00     0.115 A 
ATOM     11  H4  UNL     1      25.232   4.318  22.968  1.00  0.00     0.166 HD
ENDBRANCH   4   5
ENDBRANCH   1   4
BRANCH   1  12
HETATM   12  C4  UNL     1      22.730  -0.498  25.196  1.00  0.00     0.213 C 
HETATM   13  C5  UNL     1      22.379  -1.935  25.311  1.00  0.00     0.062 C 
HETATM   14  C6  UNL     1      21.108  -2.111  24.505  1.00  0.00     0.234 C 
HETATM   15  N3  UNL     1      20.550  -0.791  24.451  1.00  0.00    -0.073 N 
HETATM   16  C7  UNL     1      21.706   0.013  24.168  1.00  0.00     0.265 C 
ATOM     17  H32 UNL     1      19.775  -0.677  23.798  1.00  0.00     0.277 HD
ATOM     18  H31 UNL     1      20.021  -0.512  25.278  1.00  0.00     0.277 HD
ENDBRANCH   1  12
TORSDOF 3
ENDMDL
MODEL 5
REMARK VINA RESULT: -5.181322730      0.988      1.083
REMARK  3 active torsions:
REMARK  status: ('A' for Active; 'I' for Inactive)
REMARK    1  A    between atoms: C2_4  and  C3_5 
REMARK    2  A    between atoms: C3_5  and  N2_6 
REMARK    3  A    between atoms: N2_6  and  C4_9 
ROOT
HETATM    1  N2  UNL     1      22.849   0.838  26.031  1.00  0.00    -0.064 N 
ATOM      2  H21 UNL     1      22.541   1.271  25.160  1.00  0.00     0.278 HD
ATOM      3  H22 UNL     1      21.978   0.918  26.557  1.00  0.00     0.278 HD
ENDROOT
BRANCH   1   4
HETATM    4  C3  UNL     1      23.932   1.591  26.657  1.00  0.00     0.291 C 
BRANCH   4   5
HETATM    5  C2  UNL     1      24.739   2.210  25.567  1.00  0.00     0.051 A 
HETATM    6  N1  UNL     1      26.073   2.494  25.634  1.00  0.00    -0.353 N 
HETATM    7  C1  UNL     1      26.487   2.999  24.509  1.00  0.00     0.180 A 
ATOM      8  H1  UNL     1      26.661   2.333  26.451  1.00  0.00     0.166 HD
HETATM    9  N4  UNL     1      25.446   3.107  23.622  1.00  0.00    -0.360 N 
HETATM   10  C8  UNL     1      24.389   2.596  24.319  1.00  0.00     0.115 A 
ATOM     11  H4  UNL     1      25.460   3.479  22.672  1.00  0.00     0.166 HD
ENDBRANCH   4   5
ENDBRANCH   1   4
BRANCH   1  12
HETATM   12  C4  UNL     1      23.234  -0.539  25.838  1.00  0.00     0.213 C 
HETATM   13  C5  UNL     1      22.757  -1.087  24.545  1.00  0.00     0.062 C 
HETATM   14  C6  UNL     1      21.902  -2.287  24.899  1.00  0.00     0.234 C 
HETATM   15  N3  UNL     1      22.356  -2.658  26.208  1.00  0.00    -0.073 N 
HETATM   16  C7  UNL     1      22.458  -1.384  26.864  1.00  0.00     0.265 C 
ATOM     17  H32 UNL     1      21.775  -3.345  26.687  1.00  0.00     0.277 HD
ATOM     18  H31 UNL     1      23.207  -3.222  26.225  1.00  0.00     0.277 HD
ENDBRANCH   1  12
TORSDOF 3
ENDMDL
