MODEL 1
REMARK VINA RESULT: -5.360045358      0.000      0.000
REMARK  4 active torsions:
REMARK  status: ('A' for Active; 'I' for Inactive)
REMARK    1  A    between atoms: C2_4  and  C3_5 
REMARK    2  A    between atoms: C3_5  and  C4_6 
REMARK    3  A    between atoms: C4_6  and  N2_7 
REMARK    4  A    between atoms: N2_7  and  C5_9 
ROOT
HETATM    1  N2  UNL     1      23.808   0.352  27.266  1.00  0.00    -0.378 N 
ATOM      2  H2  UNL     1      24.708   0.176  27.712  1.00  0.00     0.160 HD
ENDROOT
BRANCH   1   3
HETATM    3  C4  UNL     1      23.194   1.671  27.320  1.00  0.00     0.127 C 
BRANCH   3   4
HETATM    4  C3  UNL     1      24.172   2.767  27.115  1.00  0.00     0.078 C 
BRANCH   4   5
HETATM    5  C2  UNL     1      24.861   2.817  25.810  1.00  0.00     0.027 A 
HETATM    6  N1  UNL     1      26.190   3.095  25.659  1.00  0.00    -0.355 N 
HETATM    7  C1  UNL     1      26.518   3.006  24.347  1.00  0.00     0.180 A 
ATOM      8  H1  UNL     1      26.834   3.332  26.414  1.00  0.00     0.166 HD
HETATM    9  N5  UNL     1      25.425   2.676  23.636  1.00  0.00    -0.360 N 
HETATM   10  C8  UNL     1      24.420   2.562  24.532  1.00  0.00     0.114 A 
ATOM     11  H5  UNL     1      25.367   2.539  22.627  1.00  0.00     0.166 HD
ENDBRANCH   4   5
ENDBRANCH   3   4
ENDBRANCH   1   3
BRANCH   1  12
HETATM   12  C5  UNL     1      23.118  -0.688  26.572  1.00  0.00     0.100 C 
HETATM   13  N3  UNL     1      23.131  -0.759  25.249  1.00  0.00    -0.356 N 
HETATM   14  C6  UNL     1      22.363  -1.895  24.830  1.00  0.00     0.356 C 
ATOM     15  H3  UNL     1      23.612  -0.109  24.628  1.00  0.00     0.162 HD
HETATM   16  N4  UNL     1      22.378  -2.803  25.980  1.00  0.00    -0.053 N 
HETATM   17  C7  UNL     1      22.319  -1.801  27.064  1.00  0.00     0.309 C 
ATOM     18  H42 UNL     1      21.659  -3.527  25.994  1.00  0.00     0.279 HD
ATOM     19  H41 UNL     1      23.152  -3.467  26.021  1.00  0.00     0.279 HD
ENDBRANCH   1  12
TORSDOF 4
ENDMDL
MODEL 2
REMARK VINA RESULT: -5.353855766      1.408      4.976
REMARK  4 active torsions:
REMARK  status: ('A' for Active; 'I' for Inactive)
REMARK    1  A    between atoms: C2_4  and  C3_5 
REMARK    2  A    between atoms: C3_5  and  C4_6 
REMARK    3  A    between atoms: C4_6  and  N2_7 
REMARK    4  A    between atoms: N2_7  and  C5_9 
ROOT
HETATM    1  N2  UNL     1      23.024   2.257  26.233  1.00  0.00    -0.378 N 
ATOM      2  H2  UNL     1      22.357   2.923  25.844  1.00  0.00     0.160 HD
ENDROOT
BRANCH   1   3
HETATM    3  C4  UNL     1      22.684   1.453  27.398  1.00  0.00     0.127 C 
BRANCH   3   4
HETATM    4  C3  UNL     1      21.479   0.615  27.183  1.00  0.00     0.078 C 
BRANCH   4   5
HETATM    5  C2  UNL     1      21.669  -0.665  26.473  1.00  0.00     0.027 A 
HETATM    6  N1  UNL     1      21.248  -0.897  25.194  1.00  0.00    -0.355 N 
HETATM    7  C1  UNL     1      21.625  -2.144  24.820  1.00  0.00     0.180 A 
ATOM      8  H1  UNL     1      20.731  -0.237  24.612  1.00  0.00     0.166 HD
HETATM    9  N5  UNL     1      22.285  -2.733  25.834  1.00  0.00    -0.360 N 
HETATM   10  C8  UNL     1      22.308  -1.828  26.836  1.00  0.00     0.114 A 
ATOM     11  H5  UNL     1      22.686  -3.670  25.844  1.00  0.00     0.166 HD
ENDBRANCH   4   5
ENDBRANCH   3   4
ENDBRANCH   1   3
BRANCH   1  12
HETATM   12  C5  UNL     1      24.317   2.089  25.649  1.00  0.00     0.100 C 
HETATM   13  N3  UNL     1      25.064   3.132  25.320  1.00  0.00    -0.356 N 
HETATM   14  C6  UNL     1      26.300   2.669  24.761  1.00  0.00     0.356 C 
ATOM     15  H3  UNL     1      24.801   4.110  25.444  1.00  0.00     0.162 HD
HETATM   16  N4  UNL     1      26.475   1.319  25.304  1.00  0.00    -0.053 N 
HETATM   17  C7  UNL     1      25.062   0.888  25.303  1.00  0.00     0.309 C 
ATOM     18  H42 UNL     1      27.132   0.715  24.810  1.00  0.00     0.279 HD
ATOM     19  H41 UNL     1      26.968   1.251  26.194  1.00  0.00     0.279 HD
ENDBRANCH   1  12
TORSDOF 4
ENDMDL
MODEL 3
REMARK VINA RESULT: -5.335358029      1.232      1.326
REMARK  4 active torsions:
REMARK  status: ('A' for Active; 'I' for Inactive)
REMARK    1  A    between atoms: C2_4  and  C3_5 
REMARK    2  A    between atoms: C3_5  and  C4_6 
REMARK    3  A    between atoms: C4_6  and  N2_7 
REMARK    4  A    between atoms: N2_7  and  C5_9 
ROOT
HETATM    1  N2  UNL     1      22.417   0.523  26.580  1.00  0.00    -0.378 N 
ATOM      2  H2  UNL     1      21.712   1.231  26.780  1.00  0.00     0.160 HD
ENDROOT
BRANCH   1   3
HETATM    3  C4  UNL     1      23.822   0.766  26.874  1.00  0.00     0.127 C 
BRANCH   3   4
HETATM    4  C3  UNL     1      24.705   0.508  25.711  1.00  0.00     0.078 C 
BRANCH   4   5
HETATM    5  C2  UNL     1      25.235   1.686  24.996  1.00  0.00     0.027 A 
HETATM    6  N1  UNL     1      26.516   2.145  25.127  1.00  0.00    -0.355 N 
HETATM    7  C1  UNL     1      26.698   3.201  24.298  1.00  0.00     0.180 A 
ATOM      8  H1  UNL     1      27.223   1.754  25.750  1.00  0.00     0.166 HD
HETATM    9  N5  UNL     1      25.557   3.443  23.628  1.00  0.00    -0.360 N 
HETATM   10  C8  UNL     1      24.671   2.518  24.057  1.00  0.00     0.114 A 
ATOM     11  H5  UNL     1      25.394   4.175  22.936  1.00  0.00     0.166 HD
ENDBRANCH   4   5
ENDBRANCH   3   4
ENDBRANCH   1   3
BRANCH   1  12
HETATM   12  C5  UNL     1      22.054  -0.732  26.003  1.00  0.00     0.100 C 
HETATM   13  N3  UNL     1      21.394  -0.796  24.856  1.00  0.00    -0.356 N 
HETATM   14  C6  UNL     1      21.167  -2.171  24.519  1.00  0.00     0.356 C 
ATOM     15  H3  UNL     1      21.095   0.006  24.301  1.00  0.00     0.162 HD
HETATM   16  N4  UNL     1      22.217  -2.909  25.226  1.00  0.00    -0.053 N 
HETATM   17  C7  UNL     1      22.278  -2.096  26.458  1.00  0.00     0.309 C 
ATOM     18  H42 UNL     1      22.060  -3.909  25.352  1.00  0.00     0.279 HD
ATOM     19  H41 UNL     1      23.096  -3.035  24.724  1.00  0.00     0.279 HD
ENDBRANCH   1  12
TORSDOF 4
ENDMDL
MODEL 4
REMARK VINA RESULT: -5.288088827      0.781      4.883
REMARK  4 active torsions:
REMARK  status: ('A' for Active; 'I' for Inactive)
REMARK    1  A    between atoms: C2_4  and  C3_5 
REMARK    2  A    between atoms: C3_5  and  C4_6 
REMARK    3  A    between atoms: C4_6  and  N2_7 
REMARK    4  A    between atoms: N2_7  and  C5_9 
ROOT
HETATM    1  N2  UNL     1      24.231   2.525  27.337  1.00  0.00    -0.378 N 
ATOM      2  H2  UNL     1      24.556   3.096  28.117  1.00  0.00     0.160 HD
ENDROOT
BRANCH   1   3
HETATM    3  C4  UNL     1      23.167   1.548  27.519  1.00  0.00     0.127 C 
BRANCH   3   4
HETATM    4  C3  UNL     1      23.671   0.154  27.557  1.00  0.00     0.078 C 
BRANCH   4   5
HETATM    5  C2  UNL     1      23.052  -0.808  26.623  1.00  0.00     0.027 A 
HETATM    6  N1  UNL     1      23.110  -0.695  25.262  1.00  0.00    -0.355 N 
HETATM    7  C1  UNL     1      22.495  -1.764  24.699  1.00  0.00     0.180 A 
ATOM      8  H1  UNL     1      23.546   0.072  24.751  1.00  0.00     0.166 HD
HETATM    9  N5  UNL     1      22.035  -2.575  25.670  1.00  0.00    -0.360 N 
HETATM   10  C8  UNL     1      22.377  -1.988  26.837  1.00  0.00     0.114 A 
ATOM     11  H5  UNL     1      21.532  -3.453  25.549  1.00  0.00     0.166 HD
ENDBRANCH   4   5
ENDBRANCH   3   4
ENDBRANCH   1   3
BRANCH   1  12
HETATM   12  C5  UNL     1      24.807   2.664  26.037  1.00  0.00     0.100 C 
HETATM   13  N3  UNL     1      26.113   2.823  25.877  1.00  0.00    -0.356 N 
HETATM   14  C6  UNL     1      26.406   2.933  24.478  1.00  0.00     0.356 C 
ATOM     15  H3  UNL     1      26.800   2.862  26.629  1.00  0.00     0.162 HD
HETATM   16  N4  UNL     1      25.289   2.261  23.807  1.00  0.00    -0.053 N 
HETATM   17  C7  UNL     1      24.198   2.668  24.715  1.00  0.00     0.309 C 
ATOM     18  H42 UNL     1      25.159   2.479  22.819  1.00  0.00     0.279 HD
ATOM     19  H41 UNL     1      25.395   1.259  23.648  1.00  0.00     0.279 HD
ENDBRANCH   1  12
TORSDOF 4
ENDMDL
MODEL 5
REMARK VINA RESULT: -5.248210582      1.373      5.447
REMARK  4 active torsions:
REMARK  status: ('A' for Active; 'I' for Inactive)
REMARK    1  A    between atoms: C2_4  and  C3_5 
REMARK    2  A    between atoms: C3_5  and  C4_6 
REMARK    3  A    between atoms: C4_6  and  N2_7 
REMARK    4  A    between atoms: N2_7  and  C5_9 
ROOT
HETATM    1  N2  UNL     1      23.334   2.276  23.635  1.00  0.00    -0.378 N 
ATOM      2  H2  UNL     1      23.077   2.482  22.670  1.00  0.00     0.160 HD
ENDROOT
BRANCH   1   3
HETATM    3  C4  UNL     1      22.360   1.723  24.566  1.00  0.00     0.127 C 
BRANCH   3   4
HETATM    4  C3  UNL     1      21.849   0.398  24.139  1.00  0.00     0.078 C 
BRANCH   4   5
HETATM    5  C2  UNL     1      22.071  -0.735  25.060  1.00  0.00     0.027 A 
HETATM    6  N1  UNL     1      22.162  -0.607  26.418  1.00  0.00    -0.355 N 
HETATM    7  C1  UNL     1      22.309  -1.835  26.972  1.00  0.00     0.180 A 
ATOM      8  H1  UNL     1      22.126   0.273  26.933  1.00  0.00     0.166 HD
HETATM    9  N5  UNL     1      22.317  -2.765  25.999  1.00  0.00    -0.360 N 
HETATM   10  C8  UNL     1      22.171  -2.089  24.839  1.00  0.00     0.114 A 
ATOM     11  H5  UNL     1      22.412  -3.773  26.114  1.00  0.00     0.166 HD
ENDBRANCH   4   5
ENDBRANCH   3   4
ENDBRANCH   1   3
BRANCH   1  12
HETATM   12  C5  UNL     1      24.658   2.522  24.109  1.00  0.00     0.100 C 
HETATM   13  N3  UNL     1      25.494   3.305  23.442  1.00  0.00    -0.356 N 
HETATM   14  C6  UNL     1      26.741   3.372  24.145  1.00  0.00     0.356 C 
ATOM     15  H3  UNL     1      25.282   3.784  22.567  1.00  0.00     0.162 HD
HETATM   16  N4  UNL     1      26.405   3.055  25.536  1.00  0.00    -0.053 N 
HETATM   17  C7  UNL     1      25.356   2.044  25.293  1.00  0.00     0.309 C 
ATOM     18  H42 UNL     1      27.180   2.769  26.134  1.00  0.00     0.279 HD
ATOM     19  H41 UNL     1      26.143   3.844  26.128  1.00  0.00     0.279 HD
ENDBRANCH   1  12
TORSDOF 4
ENDMDL
