MODEL 1
REMARK VINA RESULT: -7.019542156      0.000      0.000
REMARK  14 active torsions:
REMARK  status: ('A' for Active; 'I' for Inactive)
REMARK    1  A    between atoms: N2_4  and  N3_6 
REMARK       I    between atoms: N3_6  and  C1_8 
REMARK    2  A    between atoms: N5_10  and  N6_12 
REMARK       I    between atoms: N6_12  and  C2_14 
REMARK    3  A    between atoms: C2_14  and  O2_16 
REMARK    4  A    between atoms: O2_16  and  C3_17 
REMARK    5  A    between atoms: C3_17  and  C4_18 
REMARK    6  A    between atoms: C4_18  and  C5_19 
REMARK    7  A    between atoms: C5_19  and  C6_20 
REMARK    8  A    between atoms: C6_20  and  O3_21 
REMARK    9  A    between atoms: O3_21  and  N7_22 
REMARK   10  A    between atoms: C7_23  and  C8_24 
REMARK   11  A    between atoms: C8_24  and  O4_25 
REMARK   12  A    between atoms: C11_29  and  C12_30 
REMARK   13  A    between atoms: C12_30  and  O5_31 
REMARK   14  A    between atoms: O5_31  and  N8_32 
ROOT
HETATM    1  C3  UNL     1      57.779  16.094  20.864  1.00  0.00     0.180 C 
ENDROOT
BRANCH   1   2
HETATM    2  O2  UNL     1      58.343  17.288  20.372  1.00  0.00    -0.303 OA
BRANCH   2   3
HETATM    3  C2  UNL     1      58.771  18.341  21.125  1.00  0.00     0.379 C 
HETATM    4  N6  UNL     1      57.936  19.494  21.344  1.00  0.00    -0.243 N 
ATOM      5  H6  UNL     1      57.004  19.532  20.930  1.00  0.00     0.192 HD
HETATM    6  O1  UNL     1      59.895  18.334  21.645  1.00  0.00    -0.237 OA
BRANCH   4   7
HETATM    7  N5  UNL     1      58.394  20.556  22.117  1.00  0.00    -0.268 N 
HETATM    8  C1  UNL     1      57.886  21.716  21.945  1.00  0.00     0.223 C 
HETATM    9  N3  UNL     1      56.872  21.913  20.984  1.00  0.00    -0.258 N 
HETATM   10  N4  UNL     1      58.347  22.794  22.726  1.00  0.00    -0.061 NA
ATOM     11  H3  UNL     1      56.098  21.253  20.914  1.00  0.00     0.191 HD
ATOM     12  H5  UNL     1      59.127  20.410  22.812  1.00  0.00     0.190 HD
BRANCH   9  13
HETATM   13  N2  UNL     1      56.930  23.021  20.124  1.00  0.00    -0.247 N 
HETATM   14  N1  UNL     1      56.213  23.058  19.060  1.00  0.00    -0.331 N 
ATOM     15  H12 UNL     1      55.602  22.268  18.852  1.00  0.00     0.178 HD
ATOM     16  H11 UNL     1      56.256  23.863  18.435  1.00  0.00     0.178 HD
ATOM     17  H2  UNL     1      57.546  23.803  20.347  1.00  0.00     0.207 HD
ENDBRANCH   9  13
ENDBRANCH   4   7
ENDBRANCH   2   3
ENDBRANCH   1   2
BRANCH   1  18
HETATM   18  C4  UNL     1      56.333  15.994  20.479  1.00  0.00     0.029 C 
BRANCH  18  19
HETATM   19  C5  UNL     1      56.106  15.416  19.113  1.00  0.00     0.030 C 
BRANCH  19  20
HETATM   20  C6  UNL     1      54.994  16.205  18.423  1.00  0.00     0.194 C 
BRANCH  20  21
HETATM   21  O3  UNL     1      55.457  16.535  17.183  1.00  0.00    -0.303 OA
BRANCH  21  22
HETATM   22  N7  UNL     1      55.151  17.716  16.739  1.00  0.00    -0.184 NA
HETATM   23  C7  UNL     1      54.833  17.796  15.339  1.00  0.00     0.110 C 
HETATM   24  C9  UNL     1      53.356  18.056  15.203  1.00  0.00     0.026 C 
HETATM   25  C10 UNL     1      52.894  18.136  16.640  1.00  0.00     0.026 C 
HETATM   26  C11 UNL     1      54.143  18.408  17.458  1.00  0.00     0.113 C 
BRANCH  23  27
HETATM   27  C8  UNL     1      55.238  16.541  14.615  1.00  0.00     0.186 C 
BRANCH  27  28
HETATM   28  O4  UNL     1      56.623  16.558  14.412  1.00  0.00    -0.399 OA
ATOM     29  H4  UNL     1      56.825  17.155  13.701  1.00  0.00     0.209 HD
ENDBRANCH  27  28
ENDBRANCH  23  27
BRANCH  26  30
HETATM   30  C12 UNL     1      54.464  19.910  17.426  1.00  0.00     0.222 C 
BRANCH  30  31
HETATM   31  O5  UNL     1      55.777  20.134  17.821  1.00  0.00    -0.286 OA
BRANCH  31  32
HETATM   32  N8  UNL     1      56.131  19.396  18.878  1.00  0.00    -0.311 N 
ATOM     33  H82 UNL     1      55.463  18.844  19.416  1.00  0.00     0.184 HD
ATOM     34  H81 UNL     1      57.130  19.450  19.080  1.00  0.00     0.184 HD
ENDBRANCH  31  32
ENDBRANCH  30  31
ENDBRANCH  26  30
ENDBRANCH  21  22
ENDBRANCH  20  21
ENDBRANCH  19  20
ENDBRANCH  18  19
ENDBRANCH   1  18
TORSDOF 14
ENDMDL
MODEL 2
REMARK VINA RESULT: -6.892186355      3.530      5.432
REMARK  14 active torsions:
REMARK  status: ('A' for Active; 'I' for Inactive)
REMARK    1  A    between atoms: N2_4  and  N3_6 
REMARK       I    between atoms: N3_6  and  C1_8 
REMARK    2  A    between atoms: N5_10  and  N6_12 
REMARK       I    between atoms: N6_12  and  C2_14 
REMARK    3  A    between atoms: C2_14  and  O2_16 
REMARK    4  A    between atoms: O2_16  and  C3_17 
REMARK    5  A    between atoms: C3_17  and  C4_18 
REMARK    6  A    between atoms: C4_18  and  C5_19 
REMARK    7  A    between atoms: C5_19  and  C6_20 
REMARK    8  A    between atoms: C6_20  and  O3_21 
REMARK    9  A    between atoms: O3_21  and  N7_22 
REMARK   10  A    between atoms: C7_23  and  C8_24 
REMARK   11  A    between atoms: C8_24  and  O4_25 
REMARK   12  A    between atoms: C11_29  and  C12_30 
REMARK   13  A    between atoms: C12_30  and  O5_31 
REMARK   14  A    between atoms: O5_31  and  N8_32 
ROOT
HETATM    1  C3  UNL     1      55.381  14.405  18.325  1.00  0.00     0.180 C 
ENDROOT
BRANCH   1   2
HETATM    2  O2  UNL     1      55.695  14.308  19.695  1.00  0.00    -0.303 OA
BRANCH   2   3
HETATM    3  C2  UNL     1      56.794  14.836  20.304  1.00  0.00     0.379 C 
HETATM    4  N6  UNL     1      57.220  16.187  20.041  1.00  0.00    -0.243 N 
ATOM      5  H6  UNL     1      56.694  16.766  19.386  1.00  0.00     0.192 HD
HETATM    6  O1  UNL     1      57.459  14.166  21.105  1.00  0.00    -0.237 OA
BRANCH   4   7
HETATM    7  N5  UNL     1      58.345  16.704  20.675  1.00  0.00    -0.268 N 
HETATM    8  C1  UNL     1      58.332  17.919  21.072  1.00  0.00     0.223 C 
HETATM    9  N3  UNL     1      57.190  18.723  20.868  1.00  0.00    -0.258 N 
HETATM   10  N4  UNL     1      59.469  18.448  21.715  1.00  0.00    -0.061 NA
ATOM     11  H3  UNL     1      56.261  18.351  21.067  1.00  0.00     0.191 HD
ATOM     12  H5  UNL     1      59.169  16.121  20.822  1.00  0.00     0.190 HD
BRANCH   9  13
HETATM   13  N2  UNL     1      57.334  20.035  20.391  1.00  0.00    -0.247 N 
HETATM   14  N1  UNL     1      57.666  20.985  21.188  1.00  0.00    -0.331 N 
ATOM     15  H12 UNL     1      57.821  20.768  22.173  1.00  0.00     0.178 HD
ATOM     16  H11 UNL     1      57.770  21.938  20.841  1.00  0.00     0.178 HD
ATOM     17  H2  UNL     1      57.176  20.235  19.404  1.00  0.00     0.207 HD
ENDBRANCH   9  13
ENDBRANCH   4   7
ENDBRANCH   2   3
ENDBRANCH   1   2
BRANCH   1  18
HETATM   18  C4  UNL     1      55.084  13.051  17.753  1.00  0.00     0.029 C 
BRANCH  18  19
HETATM   19  C5  UNL     1      55.225  12.976  16.260  1.00  0.00     0.030 C 
BRANCH  19  20
HETATM   20  C6  UNL     1      56.712  12.967  15.907  1.00  0.00     0.194 C 
BRANCH  20  21
HETATM   21  O3  UNL     1      56.942  14.076  15.146  1.00  0.00    -0.303 OA
BRANCH  21  22
HETATM   22  N7  UNL     1      57.054  13.894  13.866  1.00  0.00    -0.184 NA
HETATM   23  C7  UNL     1      56.523  14.942  13.036  1.00  0.00     0.110 C 
HETATM   24  C9  UNL     1      57.675  15.668  12.395  1.00  0.00     0.026 C 
HETATM   25  C10 UNL     1      58.879  14.921  12.920  1.00  0.00     0.026 C 
HETATM   26  C11 UNL     1      58.355  13.579  13.395  1.00  0.00     0.113 C 
BRANCH  23  27
HETATM   27  C8  UNL     1      55.656  15.880  13.830  1.00  0.00     0.186 C 
BRANCH  27  28
HETATM   28  O4  UNL     1      56.468  16.831  14.460  1.00  0.00    -0.399 OA
ATOM     29  H4  UNL     1      55.936  17.578  14.707  1.00  0.00     0.209 HD
ENDBRANCH  27  28
ENDBRANCH  23  27
BRANCH  26  30
HETATM   30  C12 UNL     1      58.223  12.624  12.199  1.00  0.00     0.222 C 
BRANCH  30  31
HETATM   31  O5  UNL     1      57.931  11.338  12.636  1.00  0.00    -0.286 OA
BRANCH  31  32
HETATM   32  N8  UNL     1      56.618  11.109  12.729  1.00  0.00    -0.311 N 
ATOM     33  H82 UNL     1      56.056  10.785  11.942  1.00  0.00     0.184 HD
ATOM     34  H81 UNL     1      56.251  11.294  13.663  1.00  0.00     0.184 HD
ENDBRANCH  31  32
ENDBRANCH  30  31
ENDBRANCH  26  30
ENDBRANCH  21  22
ENDBRANCH  20  21
ENDBRANCH  19  20
ENDBRANCH  18  19
ENDBRANCH   1  18
TORSDOF 14
ENDMDL
MODEL 3
REMARK VINA RESULT: -6.790044304      1.547      2.286
REMARK  14 active torsions:
REMARK  status: ('A' for Active; 'I' for Inactive)
REMARK    1  A    between atoms: N2_4  and  N3_6 
REMARK       I    between atoms: N3_6  and  C1_8 
REMARK    2  A    between atoms: N5_10  and  N6_12 
REMARK       I    between atoms: N6_12  and  C2_14 
REMARK    3  A    between atoms: C2_14  and  O2_16 
REMARK    4  A    between atoms: O2_16  and  C3_17 
REMARK    5  A    between atoms: C3_17  and  C4_18 
REMARK    6  A    between atoms: C4_18  and  C5_19 
REMARK    7  A    between atoms: C5_19  and  C6_20 
REMARK    8  A    between atoms: C6_20  and  O3_21 
REMARK    9  A    between atoms: O3_21  and  N7_22 
REMARK   10  A    between atoms: C7_23  and  C8_24 
REMARK   11  A    between atoms: C8_24  and  O4_25 
REMARK   12  A    between atoms: C11_29  and  C12_30 
REMARK   13  A    between atoms: C12_30  and  O5_31 
REMARK   14  A    between atoms: O5_31  and  N8_32 
ROOT
HETATM    1  C3  UNL     1      57.985  15.990  20.890  1.00  0.00     0.180 C 
ENDROOT
BRANCH   1   2
HETATM    2  O2  UNL     1      58.354  17.263  20.412  1.00  0.00    -0.303 OA
BRANCH   2   3
HETATM    3  C2  UNL     1      58.743  18.323  21.176  1.00  0.00     0.379 C 
HETATM    4  N6  UNL     1      57.902  19.482  21.335  1.00  0.00    -0.243 N 
ATOM      5  H6  UNL     1      56.996  19.519  20.869  1.00  0.00     0.192 HD
HETATM    6  O1  UNL     1      59.836  18.318  21.759  1.00  0.00    -0.237 OA
BRANCH   4   7
HETATM    7  N5  UNL     1      58.321  20.550  22.121  1.00  0.00    -0.268 N 
HETATM    8  C1  UNL     1      57.825  21.709  21.911  1.00  0.00     0.223 C 
HETATM    9  N3  UNL     1      56.865  21.900  20.895  1.00  0.00    -0.258 N 
HETATM   10  N4  UNL     1      58.247  22.795  22.705  1.00  0.00    -0.061 NA
ATOM     11  H3  UNL     1      56.095  21.240  20.789  1.00  0.00     0.191 HD
ATOM     12  H5  UNL     1      59.016  20.410  22.856  1.00  0.00     0.190 HD
BRANCH   9  13
HETATM   13  N2  UNL     1      56.972  22.998  20.028  1.00  0.00    -0.247 N 
HETATM   14  N1  UNL     1      56.123  23.166  19.081  1.00  0.00    -0.331 N 
ATOM     15  H12 UNL     1      55.370  22.487  18.970  1.00  0.00     0.178 HD
ATOM     16  H11 UNL     1      56.201  23.965  18.451  1.00  0.00     0.178 HD
ATOM     17  H2  UNL     1      57.731  23.669  20.153  1.00  0.00     0.207 HD
ENDBRANCH   9  13
ENDBRANCH   4   7
ENDBRANCH   2   3
ENDBRANCH   1   2
BRANCH   1  18
HETATM   18  C4  UNL     1      56.819  15.452  20.116  1.00  0.00     0.029 C 
BRANCH  18  19
HETATM   19  C5  UNL     1      55.662  16.405  20.017  1.00  0.00     0.030 C 
BRANCH  19  20
HETATM   20  C6  UNL     1      55.130  16.384  18.584  1.00  0.00     0.194 C 
BRANCH  20  21
HETATM   21  O3  UNL     1      55.186  17.668  18.125  1.00  0.00    -0.303 OA
BRANCH  21  22
HETATM   22  N7  UNL     1      54.057  18.300  18.017  1.00  0.00    -0.184 NA
HETATM   23  C7  UNL     1      54.132  19.621  17.455  1.00  0.00     0.110 C 
HETATM   24  C9  UNL     1      53.519  19.587  16.081  1.00  0.00     0.026 C 
HETATM   25  C10 UNL     1      53.081  18.147  15.942  1.00  0.00     0.026 C 
HETATM   26  C11 UNL     1      53.015  17.601  17.356  1.00  0.00     0.113 C 
BRANCH  23  27
HETATM   27  C8  UNL     1      55.551  20.117  17.412  1.00  0.00     0.186 C 
BRANCH  27  28
HETATM   28  O4  UNL     1      56.061  20.158  18.715  1.00  0.00    -0.399 OA
ATOM     29  H4  UNL     1      56.684  19.449  18.826  1.00  0.00     0.209 HD
ENDBRANCH  27  28
ENDBRANCH  23  27
BRANCH  26  30
HETATM   30  C12 UNL     1      51.677  17.996  18.000  1.00  0.00     0.222 C 
BRANCH  30  31
HETATM   31  O5  UNL     1      51.870  18.385  19.320  1.00  0.00    -0.286 OA
BRANCH  31  32
HETATM   32  N8  UNL     1      51.914  17.348  20.163  1.00  0.00    -0.311 N 
ATOM     33  H82 UNL     1      52.788  16.974  20.532  1.00  0.00     0.184 HD
ATOM     34  H81 UNL     1      50.989  16.984  20.388  1.00  0.00     0.184 HD
ENDBRANCH  31  32
ENDBRANCH  30  31
ENDBRANCH  26  30
ENDBRANCH  21  22
ENDBRANCH  20  21
ENDBRANCH  19  20
ENDBRANCH  18  19
ENDBRANCH   1  18
TORSDOF 14
ENDMDL
MODEL 4
REMARK VINA RESULT: -6.768414314      7.031      9.576
REMARK  14 active torsions:
REMARK  status: ('A' for Active; 'I' for Inactive)
REMARK    1  A    between atoms: N2_4  and  N3_6 
REMARK       I    between atoms: N3_6  and  C1_8 
REMARK    2  A    between atoms: N5_10  and  N6_12 
REMARK       I    between atoms: N6_12  and  C2_14 
REMARK    3  A    between atoms: C2_14  and  O2_16 
REMARK    4  A    between atoms: O2_16  and  C3_17 
REMARK    5  A    between atoms: C3_17  and  C4_18 
REMARK    6  A    between atoms: C4_18  and  C5_19 
REMARK    7  A    between atoms: C5_19  and  C6_20 
REMARK    8  A    between atoms: C6_20  and  O3_21 
REMARK    9  A    between atoms: O3_21  and  N7_22 
REMARK   10  A    between atoms: C7_23  and  C8_24 
REMARK   11  A    between atoms: C8_24  and  O4_25 
REMARK   12  A    between atoms: C11_29  and  C12_30 
REMARK   13  A    between atoms: C12_30  and  O5_31 
REMARK   14  A    between atoms: O5_31  and  N8_32 
ROOT
HETATM    1  C3  UNL     1      55.527  16.286  14.480  1.00  0.00     0.180 C 
ENDROOT
BRANCH   1   2
HETATM    2  O2  UNL     1      56.897  16.444  14.190  1.00  0.00    -0.303 OA
BRANCH   2   3
HETATM    3  C2  UNL     1      57.628  15.672  13.337  1.00  0.00     0.379 C 
HETATM    4  N6  UNL     1      57.978  14.314  13.668  1.00  0.00    -0.243 N 
ATOM      5  H6  UNL     1      57.677  13.915  14.557  1.00  0.00     0.192 HD
HETATM    6  O1  UNL     1      58.013  16.119  12.248  1.00  0.00    -0.237 OA
BRANCH   4   7
HETATM    7  N5  UNL     1      58.724  13.546  12.781  1.00  0.00    -0.268 N 
HETATM    8  C1  UNL     1      58.185  12.520  12.240  1.00  0.00     0.223 C 
HETATM    9  N3  UNL     1      56.851  12.175  12.542  1.00  0.00    -0.258 N 
HETATM   10  N4  UNL     1      58.938  11.738  11.341  1.00  0.00    -0.061 NA
ATOM     11  H3  UNL     1      56.129  12.894  12.563  1.00  0.00     0.191 HD
ATOM     12  H5  UNL     1      59.689  13.798  12.564  1.00  0.00     0.190 HD
BRANCH   9  13
HETATM   13  N2  UNL     1      56.519  10.838  12.813  1.00  0.00    -0.247 N 
HETATM   14  N1  UNL     1      57.232  10.141  13.621  1.00  0.00    -0.331 N 
ATOM     15  H12 UNL     1      58.043  10.577  14.061  1.00  0.00     0.178 HD
ATOM     16  H11 UNL     1      56.991   9.170  13.818  1.00  0.00     0.178 HD
ATOM     17  H2  UNL     1      55.705  10.418  12.366  1.00  0.00     0.207 HD
ENDBRANCH   9  13
ENDBRANCH   4   7
ENDBRANCH   2   3
ENDBRANCH   1   2
BRANCH   1  18
HETATM   18  C4  UNL     1      54.832  15.553  13.372  1.00  0.00     0.029 C 
BRANCH  18  19
HETATM   19  C5  UNL     1      53.570  14.860  13.797  1.00  0.00     0.030 C 
BRANCH  19  20
HETATM   20  C6  UNL     1      53.717  13.363  13.528  1.00  0.00     0.194 C 
BRANCH  20  21
HETATM   21  O3  UNL     1      54.650  12.895  14.408  1.00  0.00    -0.303 OA
BRANCH  21  22
HETATM   22  N7  UNL     1      54.530  11.659  14.785  1.00  0.00    -0.184 NA
HETATM   23  C7  UNL     1      55.179  11.317  16.022  1.00  0.00     0.110 C 
HETATM   24  C9  UNL     1      54.119  11.075  17.063  1.00  0.00     0.026 C 
HETATM   25  C10 UNL     1      52.836  11.289  16.293  1.00  0.00     0.026 C 
HETATM   26  C11 UNL     1      53.207  11.149  14.829  1.00  0.00     0.113 C 
BRANCH  23  27
HETATM   27  C8  UNL     1      56.136  12.394  16.452  1.00  0.00     0.186 C 
BRANCH  27  28
HETATM   28  O4  UNL     1      57.235  12.403  15.585  1.00  0.00    -0.399 OA
ATOM     29  H4  UNL     1      58.030  12.279  16.090  1.00  0.00     0.209 HD
ENDBRANCH  27  28
ENDBRANCH  23  27
BRANCH  26  30
HETATM   30  C12 UNL     1      53.245   9.662  14.447  1.00  0.00     0.222 C 
BRANCH  30  31
HETATM   31  O5  UNL     1      53.984   9.478  13.285  1.00  0.00    -0.286 OA
BRANCH  31  32
HETATM   32  N8  UNL     1      53.379   9.977  12.203  1.00  0.00    -0.311 N 
ATOM     33  H82 UNL     1      53.747  10.774  11.683  1.00  0.00     0.184 HD
ATOM     34  H81 UNL     1      52.524   9.476  11.963  1.00  0.00     0.184 HD
ENDBRANCH  31  32
ENDBRANCH  30  31
ENDBRANCH  26  30
ENDBRANCH  21  22
ENDBRANCH  20  21
ENDBRANCH  19  20
ENDBRANCH  18  19
ENDBRANCH   1  18
TORSDOF 14
ENDMDL
MODEL 5
REMARK VINA RESULT: -6.740569734      2.675      4.238
REMARK  14 active torsions:
REMARK  status: ('A' for Active; 'I' for Inactive)
REMARK    1  A    between atoms: N2_4  and  N3_6 
REMARK       I    between atoms: N3_6  and  C1_8 
REMARK    2  A    between atoms: N5_10  and  N6_12 
REMARK       I    between atoms: N6_12  and  C2_14 
REMARK    3  A    between atoms: C2_14  and  O2_16 
REMARK    4  A    between atoms: O2_16  and  C3_17 
REMARK    5  A    between atoms: C3_17  and  C4_18 
REMARK    6  A    between atoms: C4_18  and  C5_19 
REMARK    7  A    between atoms: C5_19  and  C6_20 
REMARK    8  A    between atoms: C6_20  and  O3_21 
REMARK    9  A    between atoms: O3_21  and  N7_22 
REMARK   10  A    between atoms: C7_23  and  C8_24 
REMARK   11  A    between atoms: C8_24  and  O4_25 
REMARK   12  A    between atoms: C11_29  and  C12_30 
REMARK   13  A    between atoms: C12_30  and  O5_31 
REMARK   14  A    between atoms: O5_31  and  N8_32 
ROOT
HETATM    1  C3  UNL     1      55.408  17.266  18.817  1.00  0.00     0.180 C 
ENDROOT
BRANCH   1   2
HETATM    2  O2  UNL     1      56.163  16.999  19.976  1.00  0.00    -0.303 OA
BRANCH   2   3
HETATM    3  C2  UNL     1      57.220  17.732  20.428  1.00  0.00     0.379 C 
HETATM    4  N6  UNL     1      57.027  18.894  21.256  1.00  0.00    -0.243 N 
ATOM      5  H6  UNL     1      56.083  19.183  21.514  1.00  0.00     0.192 HD
HETATM    6  O1  UNL     1      58.382  17.415  20.138  1.00  0.00    -0.237 OA
BRANCH   4   7
HETATM    7  N5  UNL     1      58.122  19.625  21.706  1.00  0.00    -0.268 N 
HETATM    8  C1  UNL     1      58.048  20.901  21.737  1.00  0.00     0.223 C 
HETATM    9  N3  UNL     1      56.870  21.557  21.320  1.00  0.00    -0.258 N 
HETATM   10  N4  UNL     1      59.155  21.645  22.192  1.00  0.00    -0.061 NA
ATOM     11  H3  UNL     1      55.959  21.214  21.625  1.00  0.00     0.191 HD
ATOM     12  H5  UNL     1      58.972  19.149  22.008  1.00  0.00     0.190 HD
BRANCH   9  13
HETATM   13  N2  UNL     1      56.955  22.681  20.485  1.00  0.00    -0.247 N 
HETATM   14  N1  UNL     1      56.151  22.818  19.494  1.00  0.00    -0.331 N 
ATOM     15  H12 UNL     1      55.451  22.095  19.325  1.00  0.00     0.178 HD
ATOM     16  H11 UNL     1      56.213  23.636  18.887  1.00  0.00     0.178 HD
ATOM     17  H2  UNL     1      57.660  23.395  20.667  1.00  0.00     0.207 HD
ENDBRANCH   9  13
ENDBRANCH   4   7
ENDBRANCH   2   3
ENDBRANCH   1   2
BRANCH   1  18
HETATM   18  C4  UNL     1      54.862  15.995  18.236  1.00  0.00     0.029 C 
BRANCH  18  19
HETATM   19  C5  UNL     1      55.743  14.799  18.454  1.00  0.00     0.030 C 
BRANCH  19  20
HETATM   20  C6  UNL     1      55.676  13.907  17.214  1.00  0.00     0.194 C 
BRANCH  20  21
HETATM   21  O3  UNL     1      56.107  14.662  16.163  1.00  0.00    -0.303 OA
BRANCH  21  22
HETATM   22  N7  UNL     1      55.978  14.145  14.979  1.00  0.00    -0.184 NA
HETATM   23  C7  UNL     1      55.552  15.048  13.945  1.00  0.00     0.110 C 
HETATM   24  C9  UNL     1      56.714  15.292  13.020  1.00  0.00     0.026 C 
HETATM   25  C10 UNL     1      57.805  14.433  13.615  1.00  0.00     0.026 C 
HETATM   26  C11 UNL     1      57.096  13.419  14.493  1.00  0.00     0.113 C 
BRANCH  23  27
HETATM   27  C8  UNL     1      55.031  16.335  14.524  1.00  0.00     0.186 C 
BRANCH  27  28
HETATM   28  O4  UNL     1      56.084  17.252  14.619  1.00  0.00    -0.399 OA
ATOM     29  H4  UNL     1      55.832  17.953  15.208  1.00  0.00     0.209 HD
ENDBRANCH  27  28
ENDBRANCH  23  27
BRANCH  26  30
HETATM   30  C12 UNL     1      56.586  12.256  13.630  1.00  0.00     0.222 C 
BRANCH  30  31
HETATM   31  O5  UNL     1      56.911  11.038  14.215  1.00  0.00    -0.286 OA
BRANCH  31  32
HETATM   32  N8  UNL     1      56.540  10.965  15.496  1.00  0.00    -0.311 N 
ATOM     33  H82 UNL     1      55.630  11.284  15.827  1.00  0.00     0.184 HD
ATOM     34  H81 UNL     1      57.261  10.559  16.093  1.00  0.00     0.184 HD
ENDBRANCH  31  32
ENDBRANCH  30  31
ENDBRANCH  26  30
ENDBRANCH  21  22
ENDBRANCH  20  21
ENDBRANCH  19  20
ENDBRANCH  18  19
ENDBRANCH   1  18
TORSDOF 14
ENDMDL
