MODEL 1
REMARK VINA RESULT: -6.850786636      0.000      0.000
REMARK  10 active torsions:
REMARK  status: ('A' for Active; 'I' for Inactive)
REMARK    1  A    between atoms: N1_2  and  C2_5 
REMARK    2  A    between atoms: C2_5  and  C3_6 
REMARK    3  A    between atoms: C3_6  and  N2_7 
REMARK    4  A    between atoms: N2_7  and  C4_10 
REMARK    5  A    between atoms: C4_10  and  C5_11 
REMARK    6  A    between atoms: C5_11  and  N3_12 
REMARK    7  A    between atoms: N3_12  and  C6_14 
REMARK    8  A    between atoms: C6_14  and  C7_15 
REMARK    9  A    between atoms: C7_15  and  N4_17 
REMARK   10  A    between atoms: N4_17  and  C9_19 
ROOT
HETATM    1  N4  UNL     1      55.762  14.126  20.073  1.00  0.00    -0.217 N 
ATOM      2  H4  UNL     1      55.577  13.195  20.449  1.00  0.00     0.178 HD
ENDROOT
BRANCH   1   3
HETATM    3  C7  UNL     1      56.177  15.170  21.005  1.00  0.00     0.133 C 
HETATM    4  C8  UNL     1      55.736  14.751  22.377  1.00  0.00     0.038 C 
BRANCH   3   5
HETATM    5  C6  UNL     1      57.660  15.265  20.839  1.00  0.00     0.080 C 
BRANCH   5   6
HETATM    6  N3  UNL     1      58.239  16.487  20.502  1.00  0.00    -0.399 N 
ATOM      7  H3  UNL     1      59.250  16.541  20.383  1.00  0.00     0.158 HD
BRANCH   6   8
HETATM    8  C5  UNL     1      57.462  17.651  20.322  1.00  0.00     0.146 C 
BRANCH   8   9
HETATM    9  C4  UNL     1      58.378  18.808  20.801  1.00  0.00     0.251 C 
BRANCH   9  10
HETATM   10  N2  UNL     1      57.617  20.024  20.804  1.00  0.00    -0.072 N 
ATOM     11  H22 UNL     1      56.620  19.823  20.726  1.00  0.00     0.277 HD
ATOM     12  H21 UNL     1      57.756  20.537  19.934  1.00  0.00     0.277 HD
BRANCH  10  13
HETATM   13  C3  UNL     1      57.875  20.864  21.930  1.00  0.00     0.259 C 
BRANCH  13  14
HETATM   14  C2  UNL     1      57.963  22.351  21.641  1.00  0.00     0.259 C 
BRANCH  14  15
HETATM   15  N1  UNL     1      58.641  22.945  22.793  1.00  0.00    -0.077 N 
HETATM   16  C1  UNL     1      59.932  23.488  22.506  1.00  0.00     0.267 C 
ATOM     17  H12 UNL     1      58.701  22.271  23.556  1.00  0.00     0.276 HD
ATOM     18  H11 UNL     1      58.047  23.651  23.230  1.00  0.00     0.276 HD
ENDBRANCH  14  15
ENDBRANCH  13  14
ENDBRANCH  10  13
ENDBRANCH   9  10
ENDBRANCH   8   9
ENDBRANCH   6   8
ENDBRANCH   5   6
ENDBRANCH   3   5
ENDBRANCH   1   3
BRANCH   1  19
HETATM   19  C9  UNL     1      55.614  14.308  18.799  1.00  0.00     0.683 A 
HETATM   20  N5  UNL     1      55.377  15.503  18.232  1.00  0.00    -0.154 N 
HETATM   21  C10 UNL     1      55.300  15.653  16.879  1.00  0.00     0.290 A 
ATOM     22  H5  UNL     1      55.251  16.319  18.830  1.00  0.00     0.187 HD
HETATM   23  O1  UNL     1      55.080  16.778  16.381  1.00  0.00    -0.265 OA
HETATM   24  C11 UNL     1      55.463  14.579  16.034  1.00  0.00     0.152 A 
HETATM   25  C12 UNL     1      55.705  13.346  16.623  1.00  0.00     0.159 A 
HETATM   26  N8  UNL     1      55.443  14.460  14.696  1.00  0.00    -0.296 N 
HETATM   27  N6  UNL     1      55.771  13.250  17.974  1.00  0.00    -0.174 N 
HETATM   28  N7  UNL     1      55.827  12.492  15.606  1.00  0.00    -0.287 N 
ATOM     29  H6  UNL     1      55.948  12.334  18.386  1.00  0.00     0.186 HD
HETATM   30  C13 UNL     1      56.090  11.084  15.738  1.00  0.00     0.163 C 
HETATM   31  C14 UNL     1      55.673  13.143  14.444  1.00  0.00     0.330 A 
HETATM   32  O2  UNL     1      55.732  12.622  13.307  1.00  0.00    -0.246 OA
HETATM   33  C15 UNL     1      55.234  15.470  13.675  1.00  0.00     0.161 C 
ENDBRANCH   1  19
TORSDOF 10
ENDMDL
MODEL 2
REMARK VINA RESULT: -6.719968708      1.177      2.244
REMARK  10 active torsions:
REMARK  status: ('A' for Active; 'I' for Inactive)
REMARK    1  A    between atoms: N1_2  and  C2_5 
REMARK    2  A    between atoms: C2_5  and  C3_6 
REMARK    3  A    between atoms: C3_6  and  N2_7 
REMARK    4  A    between atoms: N2_7  and  C4_10 
REMARK    5  A    between atoms: C4_10  and  C5_11 
REMARK    6  A    between atoms: C5_11  and  N3_12 
REMARK    7  A    between atoms: N3_12  and  C6_14 
REMARK    8  A    between atoms: C6_14  and  C7_15 
REMARK    9  A    between atoms: C7_15  and  N4_17 
REMARK   10  A    between atoms: N4_17  and  C9_19 
ROOT
HETATM    1  N4  UNL     1      55.733  14.050  20.128  1.00  0.00    -0.217 N 
ATOM      2  H4  UNL     1      55.434  13.172  20.552  1.00  0.00     0.178 HD
ENDROOT
BRANCH   1   3
HETATM    3  C7  UNL     1      56.099  15.149  21.016  1.00  0.00     0.133 C 
HETATM    4  C8  UNL     1      55.656  14.776  22.401  1.00  0.00     0.038 C 
BRANCH   3   5
HETATM    5  C6  UNL     1      57.580  15.288  20.863  1.00  0.00     0.080 C 
BRANCH   5   6
HETATM    6  N3  UNL     1      58.122  16.517  20.491  1.00  0.00    -0.399 N 
ATOM      7  H3  UNL     1      59.127  16.589  20.332  1.00  0.00     0.158 HD
BRANCH   6   8
HETATM    8  C5  UNL     1      57.316  17.664  20.329  1.00  0.00     0.146 C 
BRANCH   8   9
HETATM    9  C4  UNL     1      58.289  18.856  20.537  1.00  0.00     0.251 C 
BRANCH   9  10
HETATM   10  N2  UNL     1      57.517  20.055  20.688  1.00  0.00    -0.072 N 
ATOM     11  H22 UNL     1      56.520  19.845  20.673  1.00  0.00     0.277 HD
ATOM     12  H21 UNL     1      57.584  20.633  19.850  1.00  0.00     0.277 HD
BRANCH  10  13
HETATM   13  C3  UNL     1      57.854  20.814  21.851  1.00  0.00     0.259 C 
BRANCH  13  14
HETATM   14  C2  UNL     1      57.904  22.320  21.667  1.00  0.00     0.259 C 
BRANCH  14  15
HETATM   15  N1  UNL     1      58.659  22.839  22.807  1.00  0.00    -0.077 N 
HETATM   16  C1  UNL     1      59.721  23.731  22.460  1.00  0.00     0.267 C 
ATOM     17  H12 UNL     1      59.014  22.071  23.377  1.00  0.00     0.276 HD
ATOM     18  H11 UNL     1      58.030  23.279  23.479  1.00  0.00     0.276 HD
ENDBRANCH  14  15
ENDBRANCH  13  14
ENDBRANCH  10  13
ENDBRANCH   9  10
ENDBRANCH   8   9
ENDBRANCH   6   8
ENDBRANCH   5   6
ENDBRANCH   3   5
ENDBRANCH   1   3
BRANCH   1  19
HETATM   19  C9  UNL     1      55.763  14.122  18.835  1.00  0.00     0.683 A 
HETATM   20  N5  UNL     1      56.483  13.301  18.052  1.00  0.00    -0.154 N 
HETATM   21  C10 UNL     1      56.427  13.372  16.692  1.00  0.00     0.290 A 
ATOM     22  H5  UNL     1      57.090  12.606  18.488  1.00  0.00     0.187 HD
HETATM   23  O1  UNL     1      57.108  12.593  15.991  1.00  0.00    -0.265 OA
HETATM   24  C11 UNL     1      55.623  14.295  16.061  1.00  0.00     0.152 A 
HETATM   25  C12 UNL     1      54.884  15.143  16.873  1.00  0.00     0.159 A 
HETATM   26  N8  UNL     1      55.385  14.562  14.767  1.00  0.00    -0.296 N 
HETATM   27  N6  UNL     1      54.976  15.032  18.220  1.00  0.00    -0.174 N 
HETATM   28  N7  UNL     1      54.200  15.921  16.032  1.00  0.00    -0.287 N 
ATOM     29  H6  UNL     1      54.425  15.666  18.798  1.00  0.00     0.186 HD
HETATM   30  C13 UNL     1      53.287  16.960  16.426  1.00  0.00     0.163 C 
HETATM   31  C14 UNL     1      54.489  15.587  14.766  1.00  0.00     0.330 A 
HETATM   32  O2  UNL     1      54.010  16.129  13.744  1.00  0.00    -0.246 OA
HETATM   33  C15 UNL     1      55.921  13.936  13.572  1.00  0.00     0.161 C 
ENDBRANCH   1  19
TORSDOF 10
ENDMDL
MODEL 3
REMARK VINA RESULT: -6.682830781      2.450      3.663
REMARK  10 active torsions:
REMARK  status: ('A' for Active; 'I' for Inactive)
REMARK    1  A    between atoms: N1_2  and  C2_5 
REMARK    2  A    between atoms: C2_5  and  C3_6 
REMARK    3  A    between atoms: C3_6  and  N2_7 
REMARK    4  A    between atoms: N2_7  and  C4_10 
REMARK    5  A    between atoms: C4_10  and  C5_11 
REMARK    6  A    between atoms: C5_11  and  N3_12 
REMARK    7  A    between atoms: N3_12  and  C6_14 
REMARK    8  A    between atoms: C6_14  and  C7_15 
REMARK    9  A    between atoms: C7_15  and  N4_17 
REMARK   10  A    between atoms: N4_17  and  C9_19 
ROOT
HETATM    1  N4  UNL     1      55.742  16.351  21.146  1.00  0.00    -0.217 N 
ATOM      2  H4  UNL     1      55.057  16.625  21.851  1.00  0.00     0.178 HD
ENDROOT
BRANCH   1   3
HETATM    3  C7  UNL     1      57.034  15.853  21.605  1.00  0.00     0.133 C 
HETATM    4  C8  UNL     1      57.028  14.362  21.439  1.00  0.00     0.038 C 
BRANCH   3   5
HETATM    5  C6  UNL     1      58.042  16.561  20.757  1.00  0.00     0.080 C 
BRANCH   5   6
HETATM    6  N3  UNL     1      58.657  17.715  21.236  1.00  0.00    -0.399 N 
ATOM      7  H3  UNL     1      59.397  17.631  21.933  1.00  0.00     0.158 HD
BRANCH   6   8
HETATM    8  C5  UNL     1      58.283  18.998  20.782  1.00  0.00     0.146 C 
BRANCH   8   9
HETATM    9  C4  UNL     1      58.468  19.917  22.019  1.00  0.00     0.251 C 
BRANCH   9  10
HETATM   10  N2  UNL     1      57.217  20.560  22.303  1.00  0.00    -0.072 N 
ATOM     11  H22 UNL     1      56.790  20.160  23.138  1.00  0.00     0.277 HD
ATOM     12  H21 UNL     1      56.515  20.301  21.610  1.00  0.00     0.277 HD
BRANCH  10  13
HETATM   13  C3  UNL     1      57.312  21.981  22.417  1.00  0.00     0.259 C 
BRANCH  13  14
HETATM   14  C2  UNL     1      58.575  22.608  21.856  1.00  0.00     0.259 C 
BRANCH  14  15
HETATM   15  N1  UNL     1      59.142  23.409  22.941  1.00  0.00    -0.077 N 
HETATM   16  C1  UNL     1      60.514  23.767  22.760  1.00  0.00     0.267 C 
ATOM     17  H12 UNL     1      59.013  22.937  23.836  1.00  0.00     0.276 HD
ATOM     18  H11 UNL     1      58.575  24.243  23.100  1.00  0.00     0.276 HD
ENDBRANCH  14  15
ENDBRANCH  13  14
ENDBRANCH  10  13
ENDBRANCH   9  10
ENDBRANCH   8   9
ENDBRANCH   6   8
ENDBRANCH   5   6
ENDBRANCH   3   5
ENDBRANCH   1   3
BRANCH   1  19
HETATM   19  C9  UNL     1      55.410  16.466  19.899  1.00  0.00     0.683 A 
HETATM   20  N5  UNL     1      55.060  15.432  19.114  1.00  0.00    -0.154 N 
HETATM   21  C10 UNL     1      54.651  15.614  17.827  1.00  0.00     0.290 A 
ATOM     22  H5  UNL     1      55.102  14.486  19.493  1.00  0.00     0.187 HD
HETATM   23  O1  UNL     1      54.331  14.632  17.122  1.00  0.00    -0.265 OA
HETATM   24  C11 UNL     1      54.581  16.873  17.274  1.00  0.00     0.152 A 
HETATM   25  C12 UNL     1      54.945  17.937  18.086  1.00  0.00     0.159 A 
HETATM   26  N8  UNL     1      54.212  17.316  16.061  1.00  0.00    -0.296 N 
HETATM   27  N6  UNL     1      55.346  17.703  19.360  1.00  0.00    -0.174 N 
HETATM   28  N7  UNL     1      54.786  19.024  17.328  1.00  0.00    -0.287 N 
ATOM     29  H6  UNL     1      55.611  18.499  19.939  1.00  0.00     0.186 HD
HETATM   30  C13 UNL     1      55.043  20.372  17.756  1.00  0.00     0.163 C 
HETATM   31  C14 UNL     1      54.347  18.670  16.112  1.00  0.00     0.330 A 
HETATM   32  O2  UNL     1      54.099  19.459  15.172  1.00  0.00    -0.246 OA
HETATM   33  C15 UNL     1      53.751  16.578  14.900  1.00  0.00     0.161 C 
ENDBRANCH   1  19
TORSDOF 10
ENDMDL
MODEL 4
REMARK VINA RESULT: -6.658940839      5.488      7.875
REMARK  10 active torsions:
REMARK  status: ('A' for Active; 'I' for Inactive)
REMARK    1  A    between atoms: N1_2  and  C2_5 
REMARK    2  A    between atoms: C2_5  and  C3_6 
REMARK    3  A    between atoms: C3_6  and  N2_7 
REMARK    4  A    between atoms: N2_7  and  C4_10 
REMARK    5  A    between atoms: C4_10  and  C5_11 
REMARK    6  A    between atoms: C5_11  and  N3_12 
REMARK    7  A    between atoms: N3_12  and  C6_14 
REMARK    8  A    between atoms: C6_14  and  C7_15 
REMARK    9  A    between atoms: C7_15  and  N4_17 
REMARK   10  A    between atoms: N4_17  and  C9_19 
ROOT
HETATM    1  N4  UNL     1      51.614  18.048  19.665  1.00  0.00    -0.217 N 
ATOM      2  H4  UNL     1      51.776  19.034  19.868  1.00  0.00     0.178 HD
ENDROOT
BRANCH   1   3
HETATM    3  C7  UNL     1      52.239  17.483  18.473  1.00  0.00     0.133 C 
HETATM    4  C8  UNL     1      51.901  18.380  17.319  1.00  0.00     0.038 C 
BRANCH   3   5
HETATM    5  C6  UNL     1      53.698  17.423  18.797  1.00  0.00     0.080 C 
BRANCH   5   6
HETATM    6  N3  UNL     1      54.396  16.231  18.616  1.00  0.00    -0.399 N 
ATOM      7  H3  UNL     1      53.931  15.448  18.155  1.00  0.00     0.158 HD
BRANCH   6   8
HETATM    8  C5  UNL     1      55.728  16.077  19.055  1.00  0.00     0.146 C 
BRANCH   8   9
HETATM    9  C4  UNL     1      55.624  16.032  20.604  1.00  0.00     0.251 C 
BRANCH   9  10
HETATM   10  N2  UNL     1      56.359  17.139  21.144  1.00  0.00    -0.072 N 
ATOM     11  H22 UNL     1      56.660  16.938  22.098  1.00  0.00     0.277 HD
ATOM     12  H21 UNL     1      55.738  17.928  21.323  1.00  0.00     0.277 HD
BRANCH  10  13
HETATM   13  C3  UNL     1      57.468  17.542  20.340  1.00  0.00     0.259 C 
BRANCH  13  14
HETATM   14  C2  UNL     1      57.866  19.003  20.443  1.00  0.00     0.259 C 
BRANCH  14  15
HETATM   15  N1  UNL     1      57.175  19.524  21.622  1.00  0.00    -0.077 N 
HETATM   16  C1  UNL     1      57.659  20.788  22.083  1.00  0.00     0.267 C 
ATOM     17  H12 UNL     1      57.196  18.840  22.378  1.00  0.00     0.276 HD
ATOM     18  H11 UNL     1      56.169  19.568  21.454  1.00  0.00     0.276 HD
ENDBRANCH  14  15
ENDBRANCH  13  14
ENDBRANCH  10  13
ENDBRANCH   9  10
ENDBRANCH   8   9
ENDBRANCH   6   8
ENDBRANCH   5   6
ENDBRANCH   3   5
ENDBRANCH   1   3
BRANCH   1  19
HETATM   19  C9  UNL     1      50.866  17.374  20.480  1.00  0.00     0.683 A 
HETATM   20  N5  UNL     1      50.019  16.402  20.096  1.00  0.00    -0.154 N 
HETATM   21  C10 UNL     1      49.305  15.673  21.000  1.00  0.00     0.290 A 
ATOM     22  H5  UNL     1      49.908  16.206  19.101  1.00  0.00     0.187 HD
HETATM   23  O1  UNL     1      48.527  14.775  20.611  1.00  0.00    -0.265 OA
HETATM   24  C11 UNL     1      49.423  15.904  22.352  1.00  0.00     0.152 A 
HETATM   25  C12 UNL     1      50.296  16.909  22.743  1.00  0.00     0.159 A 
HETATM   26  N8  UNL     1      48.853  15.336  23.426  1.00  0.00    -0.296 N 
HETATM   27  N6  UNL     1      50.982  17.606  21.805  1.00  0.00    -0.174 N 
HETATM   28  N7  UNL     1      50.230  16.927  24.076  1.00  0.00    -0.287 N 
ATOM     29  H6  UNL     1      51.616  18.342  22.115  1.00  0.00     0.186 HD
HETATM   30  C13 UNL     1      50.975  17.815  24.927  1.00  0.00     0.163 C 
HETATM   31  C14 UNL     1      49.370  15.991  24.502  1.00  0.00     0.330 A 
HETATM   32  O2  UNL     1      49.088  15.754  25.699  1.00  0.00    -0.246 OA
HETATM   33  C15 UNL     1      47.890  14.253  23.507  1.00  0.00     0.161 C 
ENDBRANCH   1  19
TORSDOF 10
ENDMDL
MODEL 5
REMARK VINA RESULT: -6.649104535      5.562      8.566
REMARK  10 active torsions:
REMARK  status: ('A' for Active; 'I' for Inactive)
REMARK    1  A    between atoms: N1_2  and  C2_5 
REMARK    2  A    between atoms: C2_5  and  C3_6 
REMARK    3  A    between atoms: C3_6  and  N2_7 
REMARK    4  A    between atoms: N2_7  and  C4_10 
REMARK    5  A    between atoms: C4_10  and  C5_11 
REMARK    6  A    between atoms: C5_11  and  N3_12 
REMARK    7  A    between atoms: N3_12  and  C6_14 
REMARK    8  A    between atoms: C6_14  and  C7_15 
REMARK    9  A    between atoms: C7_15  and  N4_17 
REMARK   10  A    between atoms: N4_17  and  C9_19 
ROOT
HETATM    1  N4  UNL     1      51.731  17.920  19.723  1.00  0.00    -0.217 N 
ATOM      2  H4  UNL     1      52.026  18.856  20.003  1.00  0.00     0.178 HD
ENDROOT
BRANCH   1   3
HETATM    3  C7  UNL     1      52.227  17.397  18.455  1.00  0.00     0.133 C 
HETATM    4  C8  UNL     1      51.656  18.251  17.361  1.00  0.00     0.038 C 
BRANCH   3   5
HETATM    5  C6  UNL     1      53.717  17.461  18.569  1.00  0.00     0.080 C 
BRANCH   5   6
HETATM    6  N3  UNL     1      54.339  17.009  19.730  1.00  0.00    -0.399 N 
ATOM      7  H3  UNL     1      54.026  17.367  20.633  1.00  0.00     0.158 HD
BRANCH   6   8
HETATM    8  C5  UNL     1      55.392  16.070  19.690  1.00  0.00     0.146 C 
BRANCH   8   9
HETATM    9  C4  UNL     1      56.575  16.782  20.400  1.00  0.00     0.251 C 
BRANCH   9  10
HETATM   10  N2  UNL     1      56.946  16.015  21.553  1.00  0.00    -0.072 N 
ATOM     11  H22 UNL     1      56.694  16.509  22.409  1.00  0.00     0.277 HD
ATOM     12  H21 UNL     1      57.960  15.994  21.660  1.00  0.00     0.277 HD
BRANCH  10  13
HETATM   13  C3  UNL     1      56.411  14.690  21.560  1.00  0.00     0.259 C 
BRANCH  13  14
HETATM   14  C2  UNL     1      57.288  13.625  22.194  1.00  0.00     0.259 C 
BRANCH  14  15
HETATM   15  N1  UNL     1      56.402  12.828  23.042  1.00  0.00    -0.077 N 
HETATM   16  C1  UNL     1      55.653  13.586  23.995  1.00  0.00     0.267 C 
ATOM     17  H12 UNL     1      56.927  12.090  23.509  1.00  0.00     0.276 HD
ATOM     18  H11 UNL     1      55.776  12.262  22.468  1.00  0.00     0.276 HD
ENDBRANCH  14  15
ENDBRANCH  13  14
ENDBRANCH  10  13
ENDBRANCH   9  10
ENDBRANCH   8   9
ENDBRANCH   6   8
ENDBRANCH   5   6
ENDBRANCH   3   5
ENDBRANCH   1   3
BRANCH   1  19
HETATM   19  C9  UNL     1      50.939  17.270  20.516  1.00  0.00     0.683 A 
HETATM   20  N5  UNL     1      50.071  16.329  20.108  1.00  0.00    -0.154 N 
HETATM   21  C10 UNL     1      49.310  15.622  20.990  1.00  0.00     0.290 A 
ATOM     22  H5  UNL     1      49.980  16.138  19.109  1.00  0.00     0.187 HD
HETATM   23  O1  UNL     1      48.512  14.752  20.579  1.00  0.00    -0.265 OA
HETATM   24  C11 UNL     1      49.400  15.846  22.345  1.00  0.00     0.152 A 
HETATM   25  C12 UNL     1      50.295  16.820  22.763  1.00  0.00     0.159 A 
HETATM   26  N8  UNL     1      48.782  15.295  23.403  1.00  0.00    -0.296 N 
HETATM   27  N6  UNL     1      51.028  17.496  21.845  1.00  0.00    -0.174 N 
HETATM   28  N7  UNL     1      50.195  16.837  24.094  1.00  0.00    -0.287 N 
ATOM     29  H6  UNL     1      51.679  18.209  22.173  1.00  0.00     0.186 HD
HETATM   30  C13 UNL     1      50.947  17.697  24.966  1.00  0.00     0.163 C 
HETATM   31  C14 UNL     1      49.293  15.929  24.494  1.00  0.00     0.330 A 
HETATM   32  O2  UNL     1      48.972  15.700  25.682  1.00  0.00    -0.246 OA
HETATM   33  C15 UNL     1      47.782  14.245  23.455  1.00  0.00     0.161 C 
ENDBRANCH   1  19
TORSDOF 10
ENDMDL
