MODEL 1
REMARK VINA RESULT: -6.752150498      0.000      0.000
REMARK  13 active torsions:
REMARK  status: ('A' for Active; 'I' for Inactive)
REMARK    1  A    between atoms: O1_2  and  C2_3 
REMARK    2  A    between atoms: C5_6  and  O2_7 
REMARK       I    between atoms: N1_9  and  C6_10 
REMARK       I    between atoms: C6_10  and  N4_22 
REMARK    3  A    between atoms: N2_11  and  N3_13 
REMARK    4  A    between atoms: N3_13  and  C7_15 
REMARK    5  A    between atoms: C7_15  and  C8_16 
REMARK    6  A    between atoms: C7_15  and  C9_19 
REMARK    7  A    between atoms: C8_16  and  O3_17 
REMARK    8  A    between atoms: C9_19  and  O4_20 
REMARK    9  A    between atoms: N4_22  and  C10_24 
REMARK   10  A    between atoms: C10_24  and  C11_25 
REMARK   11  A    between atoms: C11_25  and  C12_26 
REMARK   12  A    between atoms: C12_26  and  C13_27 
REMARK   13  A    between atoms: C13_27  and  N5_28 
ROOT
HETATM    1  C2  UNL     1      52.771  16.416  17.143  1.00  0.00     0.160 C 
HETATM    2  C3  UNL     1      53.641  15.793  16.375  1.00  0.00     0.058 C 
HETATM    3  C4  UNL     1      53.871  15.477  14.957  1.00  0.00     0.114 C 
HETATM    4  C5  UNL     1      55.346  15.552  15.381  1.00  0.00     0.248 C 
HETATM    5  N1  UNL     1      54.848  15.099  16.666  1.00  0.00    -0.157 N 
HETATM    6  C6  UNL     1      55.233  14.337  17.783  1.00  0.00     0.697 C 
HETATM    7  N2  UNL     1      55.283  14.840  18.958  1.00  0.00    -0.136 N 
ATOM      8  H2  UNL     1      55.040  15.819  19.107  1.00  0.00     0.205 HD
HETATM    9  N4  UNL     1      55.572  12.973  17.571  1.00  0.00    -0.225 N 
ATOM     10  H4  UNL     1      56.268  12.540  18.178  1.00  0.00     0.177 HD
ENDROOT
BRANCH   7  11
HETATM   11  N3  UNL     1      55.676  14.035  20.046  1.00  0.00    -0.313 N 
ATOM     12  H3  UNL     1      55.263  13.108  20.141  1.00  0.00     0.181 HD
BRANCH  11  13
HETATM   13  C7  UNL     1      56.627  14.462  21.022  1.00  0.00     0.147 C 
BRANCH  13  14
HETATM   14  C8  UNL     1      57.521  15.576  20.521  1.00  0.00     0.193 C 
BRANCH  14  15
HETATM   15  O3  UNL     1      58.039  16.315  21.609  1.00  0.00    -0.399 OA
ATOM     16  H3  UNL     1      57.453  17.030  21.830  1.00  0.00     0.209 HD
ENDBRANCH  14  15
ENDBRANCH  13  14
BRANCH  13  17
HETATM   17  C9  UNL     1      55.899  14.975  22.242  1.00  0.00     0.193 C 
BRANCH  17  18
HETATM   18  O4  UNL     1      55.074  16.011  21.851  1.00  0.00    -0.399 OA
ATOM     19  H4  UNL     1      55.489  16.830  22.092  1.00  0.00     0.209 HD
ENDBRANCH  17  18
ENDBRANCH  13  17
ENDBRANCH  11  13
ENDBRANCH   7  11
BRANCH   9  20
HETATM   20  C10 UNL     1      54.966  12.173  16.523  1.00  0.00     0.138 C 
BRANCH  20  21
HETATM   21  C11 UNL     1      55.936  11.105  16.125  1.00  0.00     0.022 C 
BRANCH  21  22
HETATM   22  C12 UNL     1      56.113  10.935  14.653  1.00  0.00     0.021 C 
BRANCH  22  23
HETATM   23  C13 UNL     1      56.365  12.274  14.003  1.00  0.00     0.122 C 
BRANCH  23  24
HETATM   24  N5  UNL     1      56.964  12.067  12.691  1.00  0.00    -0.367 N 
HETATM   25  C14 UNL     1      58.108  12.616  12.461  1.00  0.00     0.196 C 
HETATM   26  N6  UNL     1      58.781  13.398  13.429  1.00  0.00    -0.067 NA
HETATM   27  N7  UNL     1      58.659  12.382  11.153  1.00  0.00    -0.067 NA
ATOM     28  H5  UNL     1      56.495  11.507  11.979  1.00  0.00     0.161 HD
ENDBRANCH  23  24
ENDBRANCH  22  23
ENDBRANCH  21  22
ENDBRANCH  20  21
ENDBRANCH   9  20
BRANCH   4  29
HETATM   29  O2  UNL     1      55.745  16.872  15.389  1.00  0.00    -0.375 OA
ATOM     30  H2  UNL     1      55.639  17.234  14.518  1.00  0.00     0.212 HD
ENDBRANCH   4  29
BRANCH   1  31
HETATM   31  O1  UNL     1      51.639  17.040  16.648  1.00  0.00    -0.366 OA
HETATM   32  C1  UNL     1      51.593  18.311  16.074  1.00  0.00     0.209 C 
ENDBRANCH   1  31
TORSDOF 13
ENDMDL
MODEL 2
REMARK VINA RESULT: -6.717822556      2.237      5.539
REMARK  13 active torsions:
REMARK  status: ('A' for Active; 'I' for Inactive)
REMARK    1  A    between atoms: O1_2  and  C2_3 
REMARK    2  A    between atoms: C5_6  and  O2_7 
REMARK       I    between atoms: N1_9  and  C6_10 
REMARK       I    between atoms: C6_10  and  N4_22 
REMARK    3  A    between atoms: N2_11  and  N3_13 
REMARK    4  A    between atoms: N3_13  and  C7_15 
REMARK    5  A    between atoms: C7_15  and  C8_16 
REMARK    6  A    between atoms: C7_15  and  C9_19 
REMARK    7  A    between atoms: C8_16  and  O3_17 
REMARK    8  A    between atoms: C9_19  and  O4_20 
REMARK    9  A    between atoms: N4_22  and  C10_24 
REMARK   10  A    between atoms: C10_24  and  C11_25 
REMARK   11  A    between atoms: C11_25  and  C12_26 
REMARK   12  A    between atoms: C12_26  and  C13_27 
REMARK   13  A    between atoms: C13_27  and  N5_28 
ROOT
HETATM    1  C2  UNL     1      57.949  17.472  20.570  1.00  0.00     0.160 C 
HETATM    2  C3  UNL     1      57.198  16.395  20.670  1.00  0.00     0.058 C 
HETATM    3  C4  UNL     1      57.145  15.120  21.402  1.00  0.00     0.114 C 
HETATM    4  C5  UNL     1      55.630  15.318  21.247  1.00  0.00     0.248 C 
HETATM    5  N1  UNL     1      55.992  16.008  20.024  1.00  0.00    -0.157 N 
HETATM    6  C6  UNL     1      55.508  16.270  18.729  1.00  0.00     0.697 C 
HETATM    7  N2  UNL     1      55.304  17.462  18.313  1.00  0.00    -0.136 N 
ATOM      8  H2  UNL     1      55.492  18.256  18.925  1.00  0.00     0.205 HD
HETATM    9  N4  UNL     1      55.246  15.159  17.882  1.00  0.00    -0.225 N 
ATOM     10  H4  UNL     1      54.501  15.235  17.189  1.00  0.00     0.177 HD
ENDROOT
BRANCH   7  11
HETATM   11  N3  UNL     1      54.818  17.673  17.008  1.00  0.00    -0.313 N 
ATOM     12  H3  UNL     1      55.013  16.970  16.296  1.00  0.00     0.181 HD
BRANCH  11  13
HETATM   13  C7  UNL     1      54.064  18.828  16.639  1.00  0.00     0.147 C 
BRANCH  13  14
HETATM   14  C8  UNL     1      54.415  20.046  17.466  1.00  0.00     0.193 C 
BRANCH  14  15
HETATM   15  O3  UNL     1      55.812  20.266  17.446  1.00  0.00    -0.399 OA
ATOM     16  H3  UNL     1      56.104  20.447  16.560  1.00  0.00     0.209 HD
ENDBRANCH  14  15
ENDBRANCH  13  14
BRANCH  13  17
HETATM   17  C9  UNL     1      54.336  19.164  15.192  1.00  0.00     0.193 C 
BRANCH  17  18
HETATM   18  O4  UNL     1      55.609  18.732  14.878  1.00  0.00    -0.399 OA
ATOM     19  H4  UNL     1      55.759  18.894  13.954  1.00  0.00     0.209 HD
ENDBRANCH  17  18
ENDBRANCH  13  17
ENDBRANCH  11  13
ENDBRANCH   7  11
BRANCH   9  20
HETATM   20  C10 UNL     1      55.999  13.920  17.964  1.00  0.00     0.138 C 
BRANCH  20  21
HETATM   21  C11 UNL     1      55.406  12.945  16.997  1.00  0.00     0.022 C 
BRANCH  21  22
HETATM   22  C12 UNL     1      56.332  12.490  15.919  1.00  0.00     0.021 C 
BRANCH  22  23
HETATM   23  C13 UNL     1      55.911  13.077  14.593  1.00  0.00     0.122 C 
BRANCH  23  24
HETATM   24  N5  UNL     1      56.806  14.173  14.247  1.00  0.00    -0.367 N 
HETATM   25  C14 UNL     1      56.333  15.372  14.299  1.00  0.00     0.196 C 
HETATM   26  N6  UNL     1      54.996  15.642  14.674  1.00  0.00    -0.067 NA
HETATM   27  N7  UNL     1      57.253  16.420  13.949  1.00  0.00    -0.067 NA
ATOM     28  H5  UNL     1      57.773  14.000  13.974  1.00  0.00     0.161 HD
ENDBRANCH  23  24
ENDBRANCH  22  23
ENDBRANCH  21  22
ENDBRANCH  20  21
ENDBRANCH   9  20
BRANCH   4  29
HETATM   29  O2  UNL     1      55.184  16.169  22.237  1.00  0.00    -0.375 OA
ATOM     30  H2  UNL     1      55.281  17.066  21.941  1.00  0.00     0.212 HD
ENDBRANCH   4  29
BRANCH   1  31
HETATM   31  O1  UNL     1      59.108  17.655  21.306  1.00  0.00    -0.366 OA
HETATM   32  C1  UNL     1      59.314  18.641  22.270  1.00  0.00     0.209 C 
ENDBRANCH   1  31
TORSDOF 13
ENDMDL
MODEL 3
REMARK VINA RESULT: -6.511048454      2.114      5.195
REMARK  13 active torsions:
REMARK  status: ('A' for Active; 'I' for Inactive)
REMARK    1  A    between atoms: O1_2  and  C2_3 
REMARK    2  A    between atoms: C5_6  and  O2_7 
REMARK       I    between atoms: N1_9  and  C6_10 
REMARK       I    between atoms: C6_10  and  N4_22 
REMARK    3  A    between atoms: N2_11  and  N3_13 
REMARK    4  A    between atoms: N3_13  and  C7_15 
REMARK    5  A    between atoms: C7_15  and  C8_16 
REMARK    6  A    between atoms: C7_15  and  C9_19 
REMARK    7  A    between atoms: C8_16  and  O3_17 
REMARK    8  A    between atoms: C9_19  and  O4_20 
REMARK    9  A    between atoms: N4_22  and  C10_24 
REMARK   10  A    between atoms: C10_24  and  C11_25 
REMARK   11  A    between atoms: C11_25  and  C12_26 
REMARK   12  A    between atoms: C12_26  and  C13_27 
REMARK   13  A    between atoms: C13_27  and  N5_28 
ROOT
HETATM    1  C2  UNL     1      57.630  17.794  20.265  1.00  0.00     0.160 C 
HETATM    2  C3  UNL     1      57.093  16.603  20.430  1.00  0.00     0.058 C 
HETATM    3  C4  UNL     1      57.402  15.302  21.042  1.00  0.00     0.114 C 
HETATM    4  C5  UNL     1      55.880  15.250  21.235  1.00  0.00     0.248 C 
HETATM    5  N1  UNL     1      55.846  16.052  20.027  1.00  0.00    -0.157 N 
HETATM    6  C6  UNL     1      55.047  16.294  18.894  1.00  0.00     0.697 C 
HETATM    7  N2  UNL     1      54.576  17.454  18.637  1.00  0.00    -0.136 N 
ATOM      8  H2  UNL     1      54.774  18.238  19.261  1.00  0.00     0.205 HD
HETATM    9  N4  UNL     1      54.773  15.200  18.030  1.00  0.00    -0.225 N 
ATOM     10  H4  UNL     1      53.888  15.185  17.523  1.00  0.00     0.177 HD
ENDROOT
BRANCH   7  11
HETATM   11  N3  UNL     1      53.781  17.647  17.491  1.00  0.00    -0.313 N 
ATOM     12  H3  UNL     1      53.129  16.911  17.219  1.00  0.00     0.181 HD
BRANCH  11  13
HETATM   13  C7  UNL     1      53.847  18.829  16.691  1.00  0.00     0.147 C 
BRANCH  13  14
HETATM   14  C8  UNL     1      54.409  20.015  17.444  1.00  0.00     0.193 C 
BRANCH  14  15
HETATM   15  O3  UNL     1      55.818  19.928  17.514  1.00  0.00    -0.399 OA
ATOM     16  H3  UNL     1      56.209  20.255  16.712  1.00  0.00     0.209 HD
ENDBRANCH  14  15
ENDBRANCH  13  14
BRANCH  13  17
HETATM   17  C9  UNL     1      54.740  18.579  15.499  1.00  0.00     0.193 C 
BRANCH  17  18
HETATM   18  O4  UNL     1      55.469  17.431  15.736  1.00  0.00    -0.399 OA
ATOM     19  H4  UNL     1      55.266  16.803  15.052  1.00  0.00     0.209 HD
ENDBRANCH  17  18
ENDBRANCH  13  17
ENDBRANCH  11  13
ENDBRANCH   7  11
BRANCH   9  20
HETATM   20  C10 UNL     1      55.705  14.103  17.841  1.00  0.00     0.138 C 
BRANCH  20  21
HETATM   21  C11 UNL     1      54.934  12.905  17.382  1.00  0.00     0.022 C 
BRANCH  21  22
HETATM   22  C12 UNL     1      55.691  11.975  16.494  1.00  0.00     0.021 C 
BRANCH  22  23
HETATM   23  C13 UNL     1      55.590  12.432  15.058  1.00  0.00     0.122 C 
BRANCH  23  24
HETATM   24  N5  UNL     1      56.920  12.439  14.462  1.00  0.00    -0.367 N 
HETATM   25  C14 UNL     1      57.449  13.584  14.193  1.00  0.00     0.196 C 
HETATM   26  N6  UNL     1      56.787  14.806  14.456  1.00  0.00    -0.067 NA
HETATM   27  N7  UNL     1      58.762  13.540  13.605  1.00  0.00    -0.067 NA
ATOM     28  H5  UNL     1      57.415  11.570  14.264  1.00  0.00     0.161 HD
ENDBRANCH  23  24
ENDBRANCH  22  23
ENDBRANCH  21  22
ENDBRANCH  20  21
ENDBRANCH   9  20
BRANCH   4  29
HETATM   29  O2  UNL     1      55.545  15.962  22.367  1.00  0.00    -0.375 OA
ATOM     30  H2  UNL     1      56.081  15.663  23.092  1.00  0.00     0.212 HD
ENDBRANCH   4  29
BRANCH   1  31
HETATM   31  O1  UNL     1      58.883  18.132  20.747  1.00  0.00    -0.366 OA
HETATM   32  C1  UNL     1      59.158  18.641  22.017  1.00  0.00     0.209 C 
ENDBRANCH   1  31
TORSDOF 13
ENDMDL
MODEL 4
REMARK VINA RESULT: -6.485193118      3.509      7.405
REMARK  13 active torsions:
REMARK  status: ('A' for Active; 'I' for Inactive)
REMARK    1  A    between atoms: O1_2  and  C2_3 
REMARK    2  A    between atoms: C5_6  and  O2_7 
REMARK       I    between atoms: N1_9  and  C6_10 
REMARK       I    between atoms: C6_10  and  N4_22 
REMARK    3  A    between atoms: N2_11  and  N3_13 
REMARK    4  A    between atoms: N3_13  and  C7_15 
REMARK    5  A    between atoms: C7_15  and  C8_16 
REMARK    6  A    between atoms: C7_15  and  C9_19 
REMARK    7  A    between atoms: C8_16  and  O3_17 
REMARK    8  A    between atoms: C9_19  and  O4_20 
REMARK    9  A    between atoms: N4_22  and  C10_24 
REMARK   10  A    between atoms: C10_24  and  C11_25 
REMARK   11  A    between atoms: C11_25  and  C12_26 
REMARK   12  A    between atoms: C12_26  and  C13_27 
REMARK   13  A    between atoms: C13_27  and  N5_28 
ROOT
HETATM    1  C2  UNL     1      56.224  13.337  21.878  1.00  0.00     0.160 C 
HETATM    2  C3  UNL     1      56.641  14.453  21.317  1.00  0.00     0.058 C 
HETATM    3  C4  UNL     1      57.237  15.747  21.684  1.00  0.00     0.114 C 
HETATM    4  C5  UNL     1      57.882  15.624  20.296  1.00  0.00     0.248 C 
HETATM    5  N1  UNL     1      56.679  14.887  19.963  1.00  0.00    -0.157 N 
HETATM    6  C6  UNL     1      55.823  14.618  18.878  1.00  0.00     0.697 C 
HETATM    7  N2  UNL     1      55.626  13.429  18.454  1.00  0.00    -0.136 N 
ATOM      8  H2  UNL     1      56.094  12.640  18.902  1.00  0.00     0.205 HD
HETATM    9  N4  UNL     1      55.175  15.720  18.257  1.00  0.00    -0.225 N 
ATOM     10  H4  UNL     1      54.962  15.665  17.261  1.00  0.00     0.177 HD
ENDROOT
BRANCH   7  11
HETATM   11  N3  UNL     1      54.760  13.211  17.364  1.00  0.00    -0.313 N 
ATOM     12  H3  UNL     1      54.064  13.922  17.145  1.00  0.00     0.181 HD
BRANCH  11  13
HETATM   13  C7  UNL     1      54.815  12.037  16.553  1.00  0.00     0.147 C 
BRANCH  13  14
HETATM   14  C8  UNL     1      56.197  11.422  16.504  1.00  0.00     0.193 C 
BRANCH  14  15
HETATM   15  O3  UNL     1      57.155  12.397  16.145  1.00  0.00    -0.399 OA
ATOM     16  H3  UNL     1      56.895  12.835  15.343  1.00  0.00     0.209 HD
ENDBRANCH  14  15
ENDBRANCH  13  14
BRANCH  13  17
HETATM   17  C9  UNL     1      53.872  10.997  17.110  1.00  0.00     0.193 C 
BRANCH  17  18
HETATM   18  O4  UNL     1      54.326  10.624  18.359  1.00  0.00    -0.399 OA
ATOM     19  H4  UNL     1      55.275  10.630  18.345  1.00  0.00     0.209 HD
ENDBRANCH  17  18
ENDBRANCH  13  17
ENDBRANCH  11  13
ENDBRANCH   7  11
BRANCH   9  20
HETATM   20  C10 UNL     1      54.805  16.920  18.986  1.00  0.00     0.138 C 
BRANCH  20  21
HETATM   21  C11 UNL     1      54.877  18.081  18.046  1.00  0.00     0.022 C 
BRANCH  21  22
HETATM   22  C12 UNL     1      55.696  19.231  18.531  1.00  0.00     0.021 C 
BRANCH  22  23
HETATM   23  C13 UNL     1      56.774  18.740  19.467  1.00  0.00     0.122 C 
BRANCH  23  24
HETATM   24  N5  UNL     1      57.096  19.792  20.423  1.00  0.00    -0.367 N 
HETATM   25  C14 UNL     1      58.275  19.786  20.946  1.00  0.00     0.196 C 
HETATM   26  N6  UNL     1      59.242  18.805  20.622  1.00  0.00    -0.067 NA
HETATM   27  N7  UNL     1      58.546  20.843  21.883  1.00  0.00    -0.067 NA
ATOM     28  H5  UNL     1      56.414  20.508  20.670  1.00  0.00     0.161 HD
ENDBRANCH  23  24
ENDBRANCH  22  23
ENDBRANCH  21  22
ENDBRANCH  20  21
ENDBRANCH   9  20
BRANCH   4  29
HETATM   29  O2  UNL     1      59.001  14.822  20.390  1.00  0.00    -0.375 OA
ATOM     30  H2  UNL     1      59.234  14.721  21.305  1.00  0.00     0.212 HD
ENDBRANCH   4  29
BRANCH   1  31
HETATM   31  O1  UNL     1      56.278  13.113  23.243  1.00  0.00    -0.366 OA
HETATM   32  C1  UNL     1      55.432  13.680  24.196  1.00  0.00     0.209 C 
ENDBRANCH   1  31
TORSDOF 13
ENDMDL
MODEL 5
REMARK VINA RESULT: -6.466341622      2.285      5.642
REMARK  13 active torsions:
REMARK  status: ('A' for Active; 'I' for Inactive)
REMARK    1  A    between atoms: O1_2  and  C2_3 
REMARK    2  A    between atoms: C5_6  and  O2_7 
REMARK       I    between atoms: N1_9  and  C6_10 
REMARK       I    between atoms: C6_10  and  N4_22 
REMARK    3  A    between atoms: N2_11  and  N3_13 
REMARK    4  A    between atoms: N3_13  and  C7_15 
REMARK    5  A    between atoms: C7_15  and  C8_16 
REMARK    6  A    between atoms: C7_15  and  C9_19 
REMARK    7  A    between atoms: C8_16  and  O3_17 
REMARK    8  A    between atoms: C9_19  and  O4_20 
REMARK    9  A    between atoms: N4_22  and  C10_24 
REMARK   10  A    between atoms: C10_24  and  C11_25 
REMARK   11  A    between atoms: C11_25  and  C12_26 
REMARK   12  A    between atoms: C12_26  and  C13_27 
REMARK   13  A    between atoms: C13_27  and  N5_28 
ROOT
HETATM    1  C2  UNL     1      57.933  17.438  20.597  1.00  0.00     0.160 C 
HETATM    2  C3  UNL     1      57.185  16.359  20.706  1.00  0.00     0.058 C 
HETATM    3  C4  UNL     1      57.143  15.085  21.440  1.00  0.00     0.114 C 
HETATM    4  C5  UNL     1      55.626  15.279  21.301  1.00  0.00     0.248 C 
HETATM    5  N1  UNL     1      55.974  15.968  20.073  1.00  0.00    -0.157 N 
HETATM    6  C6  UNL     1      55.476  16.227  18.783  1.00  0.00     0.697 C 
HETATM    7  N2  UNL     1      55.265  17.418  18.368  1.00  0.00    -0.136 N 
ATOM      8  H2  UNL     1      55.458  18.214  18.976  1.00  0.00     0.205 HD
HETATM    9  N4  UNL     1      55.208  15.114  17.940  1.00  0.00    -0.225 N 
ATOM     10  H4  UNL     1      54.456  15.188  17.255  1.00  0.00     0.177 HD
ENDROOT
BRANCH   7  11
HETATM   11  N3  UNL     1      54.765  17.626  17.067  1.00  0.00    -0.313 N 
ATOM     12  H3  UNL     1      54.445  16.819  16.533  1.00  0.00     0.181 HD
BRANCH  11  13
HETATM   13  C7  UNL     1      54.688  18.918  16.464  1.00  0.00     0.147 C 
BRANCH  13  14
HETATM   14  C8  UNL     1      53.515  19.055  15.518  1.00  0.00     0.193 C 
BRANCH  14  15
HETATM   15  O3  UNL     1      53.838  18.508  14.255  1.00  0.00    -0.399 OA
ATOM     16  H3  UNL     1      54.054  19.201  13.641  1.00  0.00     0.209 HD
ENDBRANCH  14  15
ENDBRANCH  13  14
BRANCH  13  17
HETATM   17  C9  UNL     1      54.531  19.966  17.541  1.00  0.00     0.193 C 
BRANCH  17  18
HETATM   18  O4  UNL     1      55.780  20.255  18.051  1.00  0.00    -0.399 OA
ATOM     19  H4  UNL     1      55.695  20.402  18.985  1.00  0.00     0.209 HD
ENDBRANCH  17  18
ENDBRANCH  13  17
ENDBRANCH  11  13
ENDBRANCH   7  11
BRANCH   9  20
HETATM   20  C10 UNL     1      55.964  13.878  18.016  1.00  0.00     0.138 C 
BRANCH  20  21
HETATM   21  C11 UNL     1      55.381  12.908  17.038  1.00  0.00     0.022 C 
BRANCH  21  22
HETATM   22  C12 UNL     1      56.277  12.551  15.899  1.00  0.00     0.021 C 
BRANCH  22  23
HETATM   23  C13 UNL     1      55.774  13.185  14.625  1.00  0.00     0.122 C 
BRANCH  23  24
HETATM   24  N5  UNL     1      56.452  14.458  14.421  1.00  0.00    -0.367 N 
HETATM   25  C14 UNL     1      55.747  15.534  14.514  1.00  0.00     0.196 C 
HETATM   26  N6  UNL     1      54.362  15.509  14.801  1.00  0.00    -0.067 NA
HETATM   27  N7  UNL     1      56.461  16.766  14.305  1.00  0.00    -0.067 NA
ATOM     28  H5  UNL     1      57.450  14.498  14.213  1.00  0.00     0.161 HD
ENDBRANCH  23  24
ENDBRANCH  22  23
ENDBRANCH  21  22
ENDBRANCH  20  21
ENDBRANCH   9  20
BRANCH   4  29
HETATM   29  O2  UNL     1      55.188  16.130  22.294  1.00  0.00    -0.375 OA
ATOM     30  H2  UNL     1      54.250  16.026  22.400  1.00  0.00     0.212 HD
ENDBRANCH   4  29
BRANCH   1  31
HETATM   31  O1  UNL     1      59.099  17.624  21.321  1.00  0.00    -0.366 OA
HETATM   32  C1  UNL     1      59.326  18.636  22.254  1.00  0.00     0.209 C 
ENDBRANCH   1  31
TORSDOF 13
ENDMDL
