MODEL 1
REMARK VINA RESULT: -6.035787480      0.000      0.000
REMARK  6 active torsions:
REMARK  status: ('A' for Active; 'I' for Inactive)
REMARK    1  A    between atoms: N1_2  and  C3_4 
REMARK    2  A    between atoms: C3_4  and  C4_5 
REMARK    3  A    between atoms: C4_5  and  S1_6 
REMARK    4  A    between atoms: S1_6  and  C5_7 
REMARK    5  A    between atoms: C6_10  and  C7_11 
REMARK    6  A    between atoms: C8_14  and  C9_15 
ROOT
HETATM    1  C5  UNL     1       8.524   1.644  27.686  1.00  0.00     0.145 A 
HETATM    2  N2  UNL     1       9.153   1.235  26.606  1.00  0.00    -0.334 N 
ATOM      3  H2  UNL     1       9.273   0.258  26.341  1.00  0.00     0.168 HD
HETATM    4  C6  UNL     1       9.611   2.266  25.906  1.00  0.00     0.099 A 
HETATM    5  C8  UNL     1       9.226   3.426  26.622  1.00  0.00     0.043 A 
HETATM    6  N3  UNL     1       8.564   3.002  27.695  1.00  0.00    -0.338 N 
ATOM      7  H3  UNL     1       8.153   3.601  28.411  1.00  0.00     0.168 HD
ENDROOT
BRANCH   1   8
HETATM    8  S1  UNL     1       7.775   0.624  28.986  1.00  0.00    -0.092 SA
BRANCH   8   9
HETATM    9  C4  UNL     1       6.230   1.375  29.555  1.00  0.00     0.102 C 
BRANCH   9  10
HETATM   10  C3  UNL     1       6.472   2.425  30.600  1.00  0.00     0.126 C 
BRANCH  10  11
HETATM   11  N1  UNL     1       5.829   2.225  31.841  1.00  0.00    -0.420 N 
HETATM   12  C1  UNL     1       5.441   3.314  32.634  1.00  0.00     0.142 C 
HETATM   13  C2  UNL     1       6.037   1.029  32.564  1.00  0.00     0.142 C 
ENDBRANCH  10  11
ENDBRANCH   9  10
ENDBRANCH   8   9
ENDBRANCH   1   8
BRANCH   4  14
HETATM   14  C7  UNL     1      10.296   2.205  24.604  1.00  0.00     0.405 C 
HETATM   15  F1  UNL     1       9.434   2.930  23.697  1.00  0.00    -0.207 F 
HETATM   16  F2  UNL     1      10.313   0.927  24.128  1.00  0.00    -0.207 F 
ENDBRANCH   4  14
BRANCH   5  17
HETATM   17  C9  UNL     1       9.699   4.759  26.263  1.00  0.00     0.039 C 
HETATM   18  C10 UNL     1       9.009   6.000  26.693  1.00  0.00     0.019 C 
HETATM   19  C11 UNL     1      10.364   6.565  27.113  1.00  0.00    -0.046 C 
HETATM   20  C12 UNL     1      10.195   7.548  28.276  1.00  0.00     0.015 C 
HETATM   21  C13 UNL     1      11.230   7.133  26.036  1.00  0.00     0.015 C 
HETATM   22  C14 UNL     1      10.700   5.144  27.500  1.00  0.00     0.019 C 
ENDBRANCH   5  17
TORSDOF 6
ENDMDL
MODEL 2
REMARK VINA RESULT: -5.987066920      3.688      8.355
REMARK  6 active torsions:
REMARK  status: ('A' for Active; 'I' for Inactive)
REMARK    1  A    between atoms: N1_2  and  C3_4 
REMARK    2  A    between atoms: C3_4  and  C4_5 
REMARK    3  A    between atoms: C4_5  and  S1_6 
REMARK    4  A    between atoms: S1_6  and  C5_7 
REMARK    5  A    between atoms: C6_10  and  C7_11 
REMARK    6  A    between atoms: C8_14  and  C9_15 
ROOT
HETATM    1  C5  UNL     1       7.314   1.388  29.366  1.00  0.00     0.145 A 
HETATM    2  N2  UNL     1       6.821   2.431  29.997  1.00  0.00    -0.334 N 
ATOM      3  H2  UNL     1       6.879   3.391  29.661  1.00  0.00     0.168 HD
HETATM    4  C6  UNL     1       6.237   2.064  31.131  1.00  0.00     0.099 A 
HETATM    5  C8  UNL     1       6.380   0.658  31.208  1.00  0.00     0.043 A 
HETATM    6  N3  UNL     1       7.038   0.288  30.112  1.00  0.00    -0.338 N 
ATOM      7  H3  UNL     1       7.294  -0.670  29.871  1.00  0.00     0.168 HD
ENDROOT
BRANCH   1   8
HETATM    8  S1  UNL     1       8.250   1.374  27.812  1.00  0.00    -0.092 SA
BRANCH   8   9
HETATM    9  C4  UNL     1       8.676   3.064  27.326  1.00  0.00     0.102 C 
BRANCH   9  10
HETATM   10  C3  UNL     1       8.740   3.217  25.833  1.00  0.00     0.126 C 
BRANCH  10  11
HETATM   11  N1  UNL     1      10.001   2.990  25.239  1.00  0.00    -0.420 N 
HETATM   12  C1  UNL     1      10.825   4.063  24.872  1.00  0.00     0.142 C 
HETATM   13  C2  UNL     1      10.241   1.800  24.516  1.00  0.00     0.142 C 
ENDBRANCH  10  11
ENDBRANCH   9  10
ENDBRANCH   8   9
ENDBRANCH   1   8
BRANCH   4  14
HETATM   14  C7  UNL     1       5.508   2.941  32.065  1.00  0.00     0.405 C 
HETATM   15  F1  UNL     1       5.946   4.279  31.733  1.00  0.00    -0.207 F 
HETATM   16  F2  UNL     1       5.933   2.739  33.344  1.00  0.00    -0.207 F 
ENDBRANCH   4  14
BRANCH   5  17
HETATM   17  C9  UNL     1       6.021  -0.101  32.401  1.00  0.00     0.039 C 
HETATM   18  C10 UNL     1       4.785  -0.917  32.493  1.00  0.00     0.019 C 
HETATM   19  C11 UNL     1       5.623  -2.059  33.063  1.00  0.00    -0.046 C 
HETATM   20  C12 UNL     1       5.003  -3.411  32.698  1.00  0.00     0.015 C 
HETATM   21  C13 UNL     1       5.975  -1.991  34.513  1.00  0.00     0.015 C 
HETATM   22  C14 UNL     1       6.707  -1.564  32.134  1.00  0.00     0.019 C 
ENDBRANCH   5  17
TORSDOF 6
ENDMDL
MODEL 3
REMARK VINA RESULT: -5.968467949      3.692      8.138
REMARK  6 active torsions:
REMARK  status: ('A' for Active; 'I' for Inactive)
REMARK    1  A    between atoms: N1_2  and  C3_4 
REMARK    2  A    between atoms: C3_4  and  C4_5 
REMARK    3  A    between atoms: C4_5  and  S1_6 
REMARK    4  A    between atoms: S1_6  and  C5_7 
REMARK    5  A    between atoms: C6_10  and  C7_11 
REMARK    6  A    between atoms: C8_14  and  C9_15 
ROOT
HETATM    1  C5  UNL     1       7.179   1.879  29.314  1.00  0.00     0.145 A 
HETATM    2  N2  UNL     1       6.672   2.864  30.024  1.00  0.00    -0.334 N 
ATOM      3  H2  UNL     1       6.691   3.845  29.748  1.00  0.00     0.168 HD
HETATM    4  C6  UNL     1       6.134   2.409  31.149  1.00  0.00     0.099 A 
HETATM    5  C8  UNL     1       6.323   1.006  31.132  1.00  0.00     0.043 A 
HETATM    6  N3  UNL     1       6.959   0.726  29.997  1.00  0.00    -0.338 N 
ATOM      7  H3  UNL     1       7.237  -0.205  29.689  1.00  0.00     0.168 HD
ENDROOT
BRANCH   1   8
HETATM    8  S1  UNL     1       8.067   1.993  27.737  1.00  0.00    -0.092 SA
BRANCH   8   9
HETATM    9  C4  UNL     1       8.672   3.680  27.482  1.00  0.00     0.102 C 
BRANCH   9  10
HETATM   10  C3  UNL     1      10.165   3.720  27.327  1.00  0.00     0.126 C 
BRANCH  10  11
HETATM   11  N1  UNL     1      10.745   5.005  27.233  1.00  0.00    -0.420 N 
HETATM   12  C1  UNL     1      10.067   6.136  27.710  1.00  0.00     0.142 C 
HETATM   13  C2  UNL     1      11.697   5.282  26.227  1.00  0.00     0.142 C 
ENDBRANCH  10  11
ENDBRANCH   9  10
ENDBRANCH   8   9
ENDBRANCH   1   8
BRANCH   4  14
HETATM   14  C7  UNL     1       5.407   3.202  32.156  1.00  0.00     0.405 C 
HETATM   15  F1  UNL     1       5.712   4.578  31.834  1.00  0.00    -0.207 F 
HETATM   16  F2  UNL     1       5.937   3.004  33.396  1.00  0.00    -0.207 F 
ENDBRANCH   4  14
BRANCH   5  17
HETATM   17  C9  UNL     1       6.023   0.162  32.285  1.00  0.00     0.039 C 
HETATM   18  C10 UNL     1       4.894  -0.799  32.305  1.00  0.00     0.019 C 
HETATM   19  C11 UNL     1       5.848  -1.853  32.862  1.00  0.00    -0.046 C 
HETATM   20  C12 UNL     1       5.407  -3.255  32.428  1.00  0.00     0.015 C 
HETATM   21  C13 UNL     1       6.145  -1.802  34.325  1.00  0.00     0.015 C 
HETATM   22  C14 UNL     1       6.890  -1.195  31.989  1.00  0.00     0.019 C 
ENDBRANCH   5  17
TORSDOF 6
ENDMDL
MODEL 4
REMARK VINA RESULT: -5.812229913      3.856      7.790
REMARK  6 active torsions:
REMARK  status: ('A' for Active; 'I' for Inactive)
REMARK    1  A    between atoms: N1_2  and  C3_4 
REMARK    2  A    between atoms: C3_4  and  C4_5 
REMARK    3  A    between atoms: C4_5  and  S1_6 
REMARK    4  A    between atoms: S1_6  and  C5_7 
REMARK    5  A    between atoms: C6_10  and  C7_11 
REMARK    6  A    between atoms: C8_14  and  C9_15 
ROOT
HETATM    1  C5  UNL     1       7.185   3.022  28.304  1.00  0.00     0.145 A 
HETATM    2  N2  UNL     1       6.611   3.988  28.986  1.00  0.00    -0.334 N 
ATOM      3  H2  UNL     1       6.513   4.949  28.658  1.00  0.00     0.168 HD
HETATM    4  C6  UNL     1       6.175   3.546  30.159  1.00  0.00     0.099 A 
HETATM    5  C8  UNL     1       6.510   2.171  30.206  1.00  0.00     0.043 A 
HETATM    6  N3  UNL     1       7.120   1.894  29.056  1.00  0.00    -0.338 N 
ATOM      7  H3  UNL     1       7.481   0.979  28.784  1.00  0.00     0.168 HD
ENDROOT
BRANCH   1   8
HETATM    8  S1  UNL     1       7.985   3.135  26.679  1.00  0.00    -0.092 SA
BRANCH   8   9
HETATM    9  C4  UNL     1       9.672   2.488  26.768  1.00  0.00     0.102 C 
BRANCH   9  10
HETATM   10  C3  UNL     1       9.970   1.547  25.637  1.00  0.00     0.126 C 
BRANCH  10  11
HETATM   11  N1  UNL     1      10.224   2.146  24.383  1.00  0.00    -0.420 N 
HETATM   12  C1  UNL     1      10.287   1.371  23.216  1.00  0.00     0.142 C 
HETATM   13  C2  UNL     1      10.939   3.362  24.309  1.00  0.00     0.142 C 
ENDBRANCH  10  11
ENDBRANCH   9  10
ENDBRANCH   8   9
ENDBRANCH   1   8
BRANCH   4  14
HETATM   14  C7  UNL     1       5.415   4.316  31.158  1.00  0.00     0.405 C 
HETATM   15  F1  UNL     1       5.710   5.700  30.862  1.00  0.00    -0.207 F 
HETATM   16  F2  UNL     1       5.918   4.109  32.408  1.00  0.00    -0.207 F 
ENDBRANCH   4  14
BRANCH   5  17
HETATM   17  C9  UNL     1       6.353   1.369  31.415  1.00  0.00     0.039 C 
HETATM   18  C10 UNL     1       5.107   0.631  31.735  1.00  0.00     0.019 C 
HETATM   19  C11 UNL     1       5.957  -0.594  32.062  1.00  0.00    -0.046 C 
HETATM   20  C12 UNL     1       5.173  -1.880  31.781  1.00  0.00     0.015 C 
HETATM   21  C13 UNL     1       6.610  -0.634  33.405  1.00  0.00     0.015 C 
HETATM   22  C14 UNL     1       6.855  -0.117  30.945  1.00  0.00     0.019 C 
ENDBRANCH   5  17
TORSDOF 6
ENDMDL
MODEL 5
REMARK VINA RESULT: -5.791577353      3.784      7.469
REMARK  6 active torsions:
REMARK  status: ('A' for Active; 'I' for Inactive)
REMARK    1  A    between atoms: N1_2  and  C3_4 
REMARK    2  A    between atoms: C3_4  and  C4_5 
REMARK    3  A    between atoms: C4_5  and  S1_6 
REMARK    4  A    between atoms: S1_6  and  C5_7 
REMARK    5  A    between atoms: C6_10  and  C7_11 
REMARK    6  A    between atoms: C8_14  and  C9_15 
ROOT
HETATM    1  C5  UNL     1      10.215   5.441  23.939  1.00  0.00     0.145 A 
HETATM    2  N2  UNL     1      10.536   4.361  23.260  1.00  0.00    -0.334 N 
ATOM      3  H2  UNL     1      10.856   4.361  22.292  1.00  0.00     0.168 HD
HETATM    4  C6  UNL     1      10.386   3.272  24.003  1.00  0.00     0.099 A 
HETATM    5  C8  UNL     1       9.930   3.721  25.266  1.00  0.00     0.043 A 
HETATM    6  N3  UNL     1       9.844   5.046  25.185  1.00  0.00    -0.338 N 
ATOM      7  H3  UNL     1       9.546   5.667  25.937  1.00  0.00     0.168 HD
ENDROOT
BRANCH   1   8
HETATM    8  S1  UNL     1      10.197   7.156  23.350  1.00  0.00    -0.092 SA
BRANCH   8   9
HETATM    9  C4  UNL     1      11.392   8.147  24.282  1.00  0.00     0.102 C 
BRANCH   9  10
HETATM   10  C3  UNL     1      11.806   9.377  23.527  1.00  0.00     0.126 C 
BRANCH  10  11
HETATM   11  N1  UNL     1      13.190   9.660  23.515  1.00  0.00    -0.420 N 
HETATM   12  C1  UNL     1      13.843  10.005  22.323  1.00  0.00     0.142 C 
HETATM   13  C2  UNL     1      14.038   9.103  24.499  1.00  0.00     0.142 C 
ENDBRANCH  10  11
ENDBRANCH   9  10
ENDBRANCH   8   9
ENDBRANCH   1   8
BRANCH   4  14
HETATM   14  C7  UNL     1      10.719   1.891  23.612  1.00  0.00     0.405 C 
HETATM   15  F1  UNL     1      11.960   2.004  22.877  1.00  0.00    -0.207 F 
HETATM   16  F2  UNL     1       9.816   1.417  22.708  1.00  0.00    -0.207 F 
ENDBRANCH   4  14
BRANCH   5  17
HETATM   17  C9  UNL     1       9.479   2.803  26.307  1.00  0.00     0.039 C 
HETATM   18  C10 UNL     1       9.390   3.188  27.736  1.00  0.00     0.019 C 
HETATM   19  C11 UNL     1       7.996   2.568  27.781  1.00  0.00    -0.046 C 
HETATM   20  C12 UNL     1       7.125   3.285  28.818  1.00  0.00     0.015 C 
HETATM   21  C13 UNL     1       7.912   1.084  27.927  1.00  0.00     0.015 C 
HETATM   22  C14 UNL     1       7.863   3.064  26.360  1.00  0.00     0.019 C 
ENDBRANCH   5  17
TORSDOF 6
ENDMDL
