MODEL 1
REMARK VINA RESULT: -7.357816506      0.000      0.000
REMARK  12 active torsions:
REMARK  status: ('A' for Active; 'I' for Inactive)
REMARK    1  A    between atoms: C2_2  and  C3_3 
REMARK    2  A    between atoms: C3_3  and  C4_4 
REMARK    3  A    between atoms: C4_4  and  C5_5 
REMARK    4  A    between atoms: C5_5  and  C6_6 
REMARK    5  A    between atoms: C8_9  and  C9_10 
REMARK    6  A    between atoms: C10_15  and  O3_16 
REMARK    7  A    between atoms: C11_18  and  C12_19 
REMARK    8  A    between atoms: C12_19  and  C14_21 
REMARK    9  A    between atoms: C17_27  and  C18_28 
REMARK   10  A    between atoms: C18_28  and  C19_29 
REMARK   11  A    between atoms: C19_29  and  C20_30 
REMARK   12  A    between atoms: C20_30  and  N3_31 
ROOT
HETATM    1  C6  UNL     1      20.116  19.327  28.536  1.00  0.00     0.139 C 
HETATM    2  S1  UNL     1      18.916  19.674  29.840  1.00  0.00    -0.152 SA
HETATM    3  C7  UNL     1      19.506  19.616  31.505  1.00  0.00     0.111 C 
HETATM    4  C8  UNL     1      20.888  19.187  31.777  1.00  0.00     0.194 C 
HETATM    5  N1  UNL     1      21.301  17.861  31.548  1.00  0.00    -0.358 N 
ATOM      6  H1  UNL     1      21.853  17.805  30.692  1.00  0.00     0.162 HD
HETATM    7  C10 UNL     1      21.186  16.609  32.128  1.00  0.00     0.136 C 
HETATM    8  C11 UNL     1      20.105  15.642  32.274  1.00  0.00     0.162 C 
HETATM    9  N2  UNL     1      19.941  14.761  31.104  1.00  0.00    -0.347 N 
ATOM     10  H2  UNL     1      19.840  13.763  31.292  1.00  0.00     0.163 HD
HETATM   11  C16 UNL     1      19.910  15.159  29.749  1.00  0.00     0.241 C 
HETATM   12  O4  UNL     1      20.670  14.575  28.934  1.00  0.00    -0.271 OA
HETATM   13  C17 UNL     1      19.065  16.216  29.141  1.00  0.00     0.177 C 
HETATM   14  N6  UNL     1      19.673  16.843  27.974  1.00  0.00    -0.347 N 
ATOM     15  H6  UNL     1      20.186  16.237  27.334  1.00  0.00     0.163 HD
HETATM   16  C22 UNL     1      19.616  18.222  27.650  1.00  0.00     0.232 C 
HETATM   17  O5  UNL     1      19.100  18.498  26.533  1.00  0.00    -0.272 OA
ENDROOT
BRANCH  13  18
HETATM   18  C18 UNL     1      17.717  15.625  28.690  1.00  0.00     0.040 C 
BRANCH  18  19
HETATM   19  C19 UNL     1      16.558  16.438  29.175  1.00  0.00     0.047 C 
BRANCH  19  20
HETATM   20  C20 UNL     1      15.481  16.511  28.127  1.00  0.00     0.063 C 
BRANCH  20  21
HETATM   21  N3  UNL     1      14.204  16.050  28.502  1.00  0.00    -0.347 N 
HETATM   22  C21 UNL     1      13.060  16.202  27.987  1.00  0.00     0.200 C 
HETATM   23  N4  UNL     1      12.726  16.922  26.817  1.00  0.00    -0.067 NA
HETATM   24  N5  UNL     1      11.956  15.566  28.668  1.00  0.00    -0.067 NA
ATOM     25  H3  UNL     1      14.202  15.485  29.352  1.00  0.00     0.167 HD
ENDBRANCH  20  21
ENDBRANCH  19  20
ENDBRANCH  18  19
ENDBRANCH  13  18
BRANCH   8  26
HETATM   26  C12 UNL     1      18.782  16.116  32.783  1.00  0.00     0.012 C 
HETATM   27  C13 UNL     1      17.806  14.951  32.493  1.00  0.00     0.012 C 
BRANCH  26  28
HETATM   28  C14 UNL     1      18.777  16.185  34.317  1.00  0.00     0.002 C 
HETATM   29  C15 UNL     1      17.398  15.787  34.803  1.00  0.00     0.005 C 
ENDBRANCH  26  28
ENDBRANCH   8  26
BRANCH   1  30
HETATM   30  C5  UNL     1      20.217  20.606  27.730  1.00  0.00     0.025 C 
BRANCH  30  31
HETATM   31  C4  UNL     1      19.347  21.716  28.187  1.00  0.00     0.002 C 
BRANCH  31  32
HETATM   32  C3  UNL     1      19.744  22.995  27.486  1.00  0.00    -0.000 C 
BRANCH  32  33
HETATM   33  C2  UNL     1      19.327  23.030  26.051  1.00  0.00    -0.005 C 
HETATM   34  C1  UNL     1      19.680  24.383  25.432  1.00  0.00     0.005 C 
ENDBRANCH  32  33
ENDBRANCH  31  32
ENDBRANCH  30  31
ENDBRANCH   1  30
BRANCH   7  35
HETATM   35  O3  UNL     1      22.310  16.187  32.674  1.00  0.00    -0.348 OA
ATOM     36  H3  UNL     1      22.867  16.896  32.976  1.00  0.00     0.219 HD
ENDBRANCH   7  35
BRANCH   4  37
HETATM   37  C9  UNL     1      21.244  19.735  33.148  1.00  0.00     0.197 C 
HETATM   38  O1  UNL     1      22.428  19.580  33.509  1.00  0.00    -0.646 OA
HETATM   39  O2  UNL     1      20.290  20.362  33.924  1.00  0.00    -0.646 OA
ENDBRANCH   4  37
TORSDOF 12
ENDMDL
MODEL 2
REMARK VINA RESULT: -7.180811695      3.231      6.649
REMARK  12 active torsions:
REMARK  status: ('A' for Active; 'I' for Inactive)
REMARK    1  A    between atoms: C2_2  and  C3_3 
REMARK    2  A    between atoms: C3_3  and  C4_4 
REMARK    3  A    between atoms: C4_4  and  C5_5 
REMARK    4  A    between atoms: C5_5  and  C6_6 
REMARK    5  A    between atoms: C8_9  and  C9_10 
REMARK    6  A    between atoms: C10_15  and  O3_16 
REMARK    7  A    between atoms: C11_18  and  C12_19 
REMARK    8  A    between atoms: C12_19  and  C14_21 
REMARK    9  A    between atoms: C17_27  and  C18_28 
REMARK   10  A    between atoms: C18_28  and  C19_29 
REMARK   11  A    between atoms: C19_29  and  C20_30 
REMARK   12  A    between atoms: C20_30  and  N3_31 
ROOT
HETATM    1  C6  UNL     1      23.584  17.800  30.832  1.00  0.00     0.139 C 
HETATM    2  S1  UNL     1      22.280  16.563  30.663  1.00  0.00    -0.152 SA
HETATM    3  C7  UNL     1      21.271  16.656  29.215  1.00  0.00     0.111 C 
HETATM    4  C8  UNL     1      21.444  17.776  28.274  1.00  0.00     0.194 C 
HETATM    5  N1  UNL     1      21.108  19.094  28.636  1.00  0.00    -0.358 N 
ATOM      6  H1  UNL     1      21.952  19.630  28.840  1.00  0.00     0.162 HD
HETATM    7  C10 UNL     1      19.984  19.885  28.801  1.00  0.00     0.136 C 
HETATM    8  C11 UNL     1      18.912  19.950  29.786  1.00  0.00     0.162 C 
HETATM    9  N2  UNL     1      19.253  20.749  30.976  1.00  0.00    -0.347 N 
ATOM     10  H2  UNL     1      18.556  21.425  31.290  1.00  0.00     0.163 HD
HETATM   11  C16 UNL     1      20.448  20.674  31.725  1.00  0.00     0.241 C 
HETATM   12  O4  UNL     1      21.079  21.737  31.959  1.00  0.00    -0.271 OA
HETATM   13  C17 UNL     1      21.079  19.457  32.292  1.00  0.00     0.177 C 
HETATM   14  N6  UNL     1      22.529  19.556  32.408  1.00  0.00    -0.347 N 
ATOM     15  H6  UNL     1      22.911  20.455  32.702  1.00  0.00     0.163 HD
HETATM   16  C22 UNL     1      23.455  18.515  32.147  1.00  0.00     0.232 C 
HETATM   17  O5  UNL     1      24.202  18.196  33.111  1.00  0.00    -0.272 OA
ENDROOT
BRANCH  13  18
HETATM   18  C18 UNL     1      20.528  19.180  33.702  1.00  0.00     0.040 C 
BRANCH  18  19
HETATM   19  C19 UNL     1      20.642  17.736  34.076  1.00  0.00     0.047 C 
BRANCH  19  20
HETATM   20  C20 UNL     1      19.616  16.912  33.344  1.00  0.00     0.063 C 
BRANCH  20  21
HETATM   21  N3  UNL     1      18.904  15.967  34.108  1.00  0.00    -0.347 N 
HETATM   22  C21 UNL     1      17.668  15.789  34.302  1.00  0.00     0.200 C 
HETATM   23  N4  UNL     1      16.592  16.537  33.772  1.00  0.00    -0.067 NA
HETATM   24  N5  UNL     1      17.303  14.692  35.168  1.00  0.00    -0.067 NA
ATOM     25  H3  UNL     1      19.500  15.299  34.597  1.00  0.00     0.167 HD
ENDBRANCH  20  21
ENDBRANCH  19  20
ENDBRANCH  18  19
ENDBRANCH  13  18
BRANCH   8  26
HETATM   26  C12 UNL     1      18.208  18.687  30.165  1.00  0.00     0.012 C 
HETATM   27  C13 UNL     1      17.278  19.090  31.334  1.00  0.00     0.012 C 
BRANCH  26  28
HETATM   28  C14 UNL     1      17.214  18.263  29.075  1.00  0.00     0.002 C 
HETATM   29  C15 UNL     1      16.810  16.827  29.338  1.00  0.00     0.005 C 
ENDBRANCH  26  28
ENDBRANCH   8  26
BRANCH   1  30
HETATM   30  C5  UNL     1      24.883  17.022  30.813  1.00  0.00     0.025 C 
BRANCH  30  31
HETATM   31  C4  UNL     1      25.256  16.437  29.503  1.00  0.00     0.002 C 
BRANCH  31  32
HETATM   32  C3  UNL     1      25.132  17.487  28.423  1.00  0.00    -0.000 C 
BRANCH  32  33
HETATM   33  C2  UNL     1      26.081  17.274  27.287  1.00  0.00    -0.005 C 
HETATM   34  C1  UNL     1      27.331  16.540  27.775  1.00  0.00     0.005 C 
ENDBRANCH  32  33
ENDBRANCH  31  32
ENDBRANCH  30  31
ENDBRANCH   1  30
BRANCH   7  35
HETATM   35  O3  UNL     1      19.847  20.791  27.852  1.00  0.00    -0.348 OA
ATOM     36  H3  UNL     1      19.874  21.682  28.181  1.00  0.00     0.219 HD
ENDBRANCH   7  35
BRANCH   4  37
HETATM   37  C9  UNL     1      20.865  17.314  26.949  1.00  0.00     0.197 C 
HETATM   38  O1  UNL     1      21.656  17.290  25.984  1.00  0.00    -0.646 OA
HETATM   39  O2  UNL     1      19.537  16.948  26.851  1.00  0.00    -0.646 OA
ENDBRANCH   4  37
TORSDOF 12
ENDMDL
MODEL 3
REMARK VINA RESULT: -7.153464192      3.258      6.701
REMARK  12 active torsions:
REMARK  status: ('A' for Active; 'I' for Inactive)
REMARK    1  A    between atoms: C2_2  and  C3_3 
REMARK    2  A    between atoms: C3_3  and  C4_4 
REMARK    3  A    between atoms: C4_4  and  C5_5 
REMARK    4  A    between atoms: C5_5  and  C6_6 
REMARK    5  A    between atoms: C8_9  and  C9_10 
REMARK    6  A    between atoms: C10_15  and  O3_16 
REMARK    7  A    between atoms: C11_18  and  C12_19 
REMARK    8  A    between atoms: C12_19  and  C14_21 
REMARK    9  A    between atoms: C17_27  and  C18_28 
REMARK   10  A    between atoms: C18_28  and  C19_29 
REMARK   11  A    between atoms: C19_29  and  C20_30 
REMARK   12  A    between atoms: C20_30  and  N3_31 
ROOT
HETATM    1  C6  UNL     1      18.504  15.872  27.044  1.00  0.00     0.139 C 
HETATM    2  S1  UNL     1      19.774  15.137  28.097  1.00  0.00    -0.152 SA
HETATM    3  C7  UNL     1      19.220  14.285  29.542  1.00  0.00     0.111 C 
HETATM    4  C8  UNL     1      17.790  14.297  29.896  1.00  0.00     0.194 C 
HETATM    5  N1  UNL     1      17.149  15.481  30.305  1.00  0.00    -0.358 N 
ATOM      6  H1  UNL     1      16.577  15.853  29.547  1.00  0.00     0.162 HD
HETATM    7  C10 UNL     1      17.057  16.295  31.421  1.00  0.00     0.136 C 
HETATM    8  C11 UNL     1      17.957  17.232  32.084  1.00  0.00     0.162 C 
HETATM    9  N2  UNL     1      17.939  18.582  31.495  1.00  0.00    -0.347 N 
ATOM     10  H2  UNL     1      17.869  19.366  32.145  1.00  0.00     0.163 HD
HETATM   11  C16 UNL     1      18.009  18.901  30.121  1.00  0.00     0.241 C 
HETATM   12  O4  UNL     1      17.142  19.675  29.638  1.00  0.00    -0.271 OA
HETATM   13  C17 UNL     1      19.012  18.425  29.136  1.00  0.00     0.177 C 
HETATM   14  N6  UNL     1      18.496  18.351  27.775  1.00  0.00    -0.347 N 
ATOM     15  H6  UNL     1      17.872  19.099  27.473  1.00  0.00     0.163 HD
HETATM   16  C22 UNL     1      18.786  17.332  26.833  1.00  0.00     0.232 C 
HETATM   17  O5  UNL     1      19.317  17.720  25.757  1.00  0.00    -0.272 OA
ENDROOT
BRANCH  13  18
HETATM   18  C18 UNL     1      20.226  19.370  29.114  1.00  0.00     0.040 C 
BRANCH  18  19
HETATM   19  C19 UNL     1      20.070  20.460  28.102  1.00  0.00     0.047 C 
BRANCH  19  20
HETATM   20  C20 UNL     1      20.189  21.813  28.751  1.00  0.00     0.063 C 
BRANCH  20  21
HETATM   21  N3  UNL     1      19.531  21.980  29.985  1.00  0.00    -0.347 N 
HETATM   22  C21 UNL     1      19.933  22.378  31.115  1.00  0.00     0.200 C 
HETATM   23  N4  UNL     1      21.236  22.794  31.474  1.00  0.00    -0.067 NA
HETATM   24  N5  UNL     1      18.949  22.419  32.172  1.00  0.00    -0.067 NA
ATOM     25  H3  UNL     1      18.542  21.732  29.963  1.00  0.00     0.167 HD
ENDBRANCH  20  21
ENDBRANCH  19  20
ENDBRANCH  18  19
ENDBRANCH  13  18
BRANCH   8  26
HETATM   26  C12 UNL     1      19.352  16.792  32.389  1.00  0.00     0.012 C 
HETATM   27  C13 UNL     1      20.083  18.081  32.836  1.00  0.00     0.012 C 
BRANCH  26  28
HETATM   28  C14 UNL     1      19.391  15.926  33.656  1.00  0.00     0.002 C 
HETATM   29  C15 UNL     1      20.072  16.721  34.751  1.00  0.00     0.005 C 
ENDBRANCH  26  28
ENDBRANCH   8  26
BRANCH   1  30
HETATM   30  C5  UNL     1      18.610  15.147  25.719  1.00  0.00     0.025 C 
BRANCH  30  31
HETATM   31  C4  UNL     1      19.781  14.248  25.576  1.00  0.00     0.002 C 
BRANCH  31  32
HETATM   32  C3  UNL     1      19.386  13.017  24.794  1.00  0.00    -0.000 C 
BRANCH  32  33
HETATM   33  C2  UNL     1      19.373  11.773  25.624  1.00  0.00    -0.005 C 
HETATM   34  C1  UNL     1      20.622  11.716  26.506  1.00  0.00     0.005 C 
ENDBRANCH  32  33
ENDBRANCH  31  32
ENDBRANCH  30  31
ENDBRANCH   1  30
BRANCH   7  35
HETATM   35  O3  UNL     1      15.889  16.211  32.028  1.00  0.00    -0.348 OA
ATOM     36  H3  UNL     1      15.261  16.855  31.720  1.00  0.00     0.219 HD
ENDBRANCH   7  35
BRANCH   4  37
HETATM   37  C9  UNL     1      17.565  13.105  30.808  1.00  0.00     0.197 C 
HETATM   38  O1  UNL     1      18.212  13.100  31.875  1.00  0.00    -0.646 OA
HETATM   39  O2  UNL     1      16.689  12.100  30.448  1.00  0.00    -0.646 OA
ENDBRANCH   4  37
TORSDOF 12
ENDMDL
MODEL 4
REMARK VINA RESULT: -7.092031686      2.675      5.621
REMARK  12 active torsions:
REMARK  status: ('A' for Active; 'I' for Inactive)
REMARK    1  A    between atoms: C2_2  and  C3_3 
REMARK    2  A    between atoms: C3_3  and  C4_4 
REMARK    3  A    between atoms: C4_4  and  C5_5 
REMARK    4  A    between atoms: C5_5  and  C6_6 
REMARK    5  A    between atoms: C8_9  and  C9_10 
REMARK    6  A    between atoms: C10_15  and  O3_16 
REMARK    7  A    between atoms: C11_18  and  C12_19 
REMARK    8  A    between atoms: C12_19  and  C14_21 
REMARK    9  A    between atoms: C17_27  and  C18_28 
REMARK   10  A    between atoms: C18_28  and  C19_29 
REMARK   11  A    between atoms: C19_29  and  C20_30 
REMARK   12  A    between atoms: C20_30  and  N3_31 
ROOT
HETATM    1  C6  UNL     1      19.227  19.806  28.789  1.00  0.00     0.139 C 
HETATM    2  S1  UNL     1      20.157  18.319  28.361  1.00  0.00    -0.152 SA
HETATM    3  C7  UNL     1      19.289  17.060  27.476  1.00  0.00     0.111 C 
HETATM    4  C8  UNL     1      17.846  17.207  27.221  1.00  0.00     0.194 C 
HETATM    5  N1  UNL     1      16.910  17.163  28.271  1.00  0.00    -0.358 N 
ATOM      6  H1  UNL     1      16.582  18.103  28.493  1.00  0.00     0.162 HD
HETATM    7  C10 UNL     1      16.298  16.234  29.096  1.00  0.00     0.136 C 
HETATM    8  C11 UNL     1      16.737  15.412  30.217  1.00  0.00     0.162 C 
HETATM    9  N2  UNL     1      16.695  16.112  31.512  1.00  0.00    -0.347 N 
ATOM     10  H2  UNL     1      16.271  15.609  32.292  1.00  0.00     0.163 HD
HETATM   11  C16 UNL     1      17.183  17.409  31.783  1.00  0.00     0.241 C 
HETATM   12  O4  UNL     1      16.419  18.233  32.351  1.00  0.00    -0.271 OA
HETATM   13  C17 UNL     1      18.531  17.947  31.474  1.00  0.00     0.177 C 
HETATM   14  N6  UNL     1      18.542  19.386  31.246  1.00  0.00    -0.347 N 
ATOM     15  H6  UNL     1      17.944  19.956  31.843  1.00  0.00     0.163 HD
HETATM   16  C22 UNL     1      19.311  20.064  30.266  1.00  0.00     0.232 C 
HETATM   17  O5  UNL     1      20.109  20.936  30.707  1.00  0.00    -0.272 OA
ENDROOT
BRANCH  13  18
HETATM   18  C18 UNL     1      19.497  17.662  32.638  1.00  0.00     0.040 C 
BRANCH  18  19
HETATM   19  C19 UNL     1      19.418  16.241  33.097  1.00  0.00     0.047 C 
BRANCH  19  20
HETATM   20  C20 UNL     1      18.672  16.142  34.401  1.00  0.00     0.063 C 
BRANCH  20  21
HETATM   21  N3  UNL     1      18.107  14.889  34.711  1.00  0.00    -0.347 N 
HETATM   22  C21 UNL     1      16.917  14.466  34.692  1.00  0.00     0.200 C 
HETATM   23  N4  UNL     1      15.750  15.178  34.332  1.00  0.00    -0.067 NA
HETATM   24  N5  UNL     1      16.715  13.090  35.084  1.00  0.00    -0.067 NA
ATOM     25  H3  UNL     1      18.789  14.191  35.006  1.00  0.00     0.167 HD
ENDBRANCH  20  21
ENDBRANCH  19  20
ENDBRANCH  18  19
ENDBRANCH  13  18
BRANCH   8  26
HETATM   26  C12 UNL     1      17.992  14.614  30.073  1.00  0.00     0.012 C 
HETATM   27  C13 UNL     1      17.914  13.549  31.193  1.00  0.00     0.012 C 
BRANCH  26  28
HETATM   28  C14 UNL     1      17.959  13.762  28.796  1.00  0.00     0.002 C 
HETATM   29  C15 UNL     1      19.388  13.455  28.396  1.00  0.00     0.005 C 
ENDBRANCH  26  28
ENDBRANCH   8  26
BRANCH   1  30
HETATM   30  C5  UNL     1      19.909  20.936  28.046  1.00  0.00     0.025 C 
BRANCH  30  31
HETATM   31  C4  UNL     1      19.077  22.143  27.821  1.00  0.00     0.002 C 
BRANCH  31  32
HETATM   32  C3  UNL     1      19.883  23.186  27.081  1.00  0.00    -0.000 C 
BRANCH  32  33
HETATM   33  C2  UNL     1      19.411  23.406  25.679  1.00  0.00    -0.005 C 
HETATM   34  C1  UNL     1      19.820  24.799  25.199  1.00  0.00     0.005 C 
ENDBRANCH  32  33
ENDBRANCH  31  32
ENDBRANCH  30  31
ENDBRANCH   1  30
BRANCH   7  35
HETATM   35  O3  UNL     1      15.024  16.047  28.807  1.00  0.00    -0.348 OA
ATOM     36  H3  UNL     1      14.576  15.496  29.439  1.00  0.00     0.219 HD
ENDBRANCH   7  35
BRANCH   4  37
HETATM   37  C9  UNL     1      17.524  16.302  26.045  1.00  0.00     0.197 C 
HETATM   38  O1  UNL     1      18.473  15.625  25.599  1.00  0.00    -0.646 OA
HETATM   39  O2  UNL     1      16.247  16.255  25.522  1.00  0.00    -0.646 OA
ENDBRANCH   4  37
TORSDOF 12
ENDMDL
MODEL 5
REMARK VINA RESULT: -7.071954231      3.058      6.319
REMARK  12 active torsions:
REMARK  status: ('A' for Active; 'I' for Inactive)
REMARK    1  A    between atoms: C2_2  and  C3_3 
REMARK    2  A    between atoms: C3_3  and  C4_4 
REMARK    3  A    between atoms: C4_4  and  C5_5 
REMARK    4  A    between atoms: C5_5  and  C6_6 
REMARK    5  A    between atoms: C8_9  and  C9_10 
REMARK    6  A    between atoms: C10_15  and  O3_16 
REMARK    7  A    between atoms: C11_18  and  C12_19 
REMARK    8  A    between atoms: C12_19  and  C14_21 
REMARK    9  A    between atoms: C17_27  and  C18_28 
REMARK   10  A    between atoms: C18_28  and  C19_29 
REMARK   11  A    between atoms: C19_29  and  C20_30 
REMARK   12  A    between atoms: C20_30  and  N3_31 
ROOT
HETATM    1  C6  UNL     1      18.268  16.220  26.880  1.00  0.00     0.139 C 
HETATM    2  S1  UNL     1      19.555  15.343  27.793  1.00  0.00    -0.152 SA
HETATM    3  C7  UNL     1      19.037  14.391  29.189  1.00  0.00     0.111 C 
HETATM    4  C8  UNL     1      17.630  14.433  29.622  1.00  0.00     0.194 C 
HETATM    5  N1  UNL     1      17.067  15.603  30.166  1.00  0.00    -0.358 N 
ATOM      6  H1  UNL     1      16.474  16.064  29.476  1.00  0.00     0.162 HD
HETATM    7  C10 UNL     1      17.071  16.319  31.350  1.00  0.00     0.136 C 
HETATM    8  C11 UNL     1      18.047  17.154  32.040  1.00  0.00     0.162 C 
HETATM    9  N2  UNL     1      18.063  18.550  31.571  1.00  0.00    -0.347 N 
ATOM     10  H2  UNL     1      18.064  19.276  32.288  1.00  0.00     0.163 HD
HETATM   11  C16 UNL     1      18.077  18.986  30.227  1.00  0.00     0.241 C 
HETATM   12  O4  UNL     1      17.223  19.835  29.862  1.00  0.00    -0.271 OA
HETATM   13  C17 UNL     1      19.003  18.556  29.151  1.00  0.00     0.177 C 
HETATM   14  N6  UNL     1      18.415  18.624  27.819  1.00  0.00    -0.347 N 
ATOM     15  H6  UNL     1      17.812  19.422  27.617  1.00  0.00     0.163 HD
HETATM   16  C22 UNL     1      18.607  17.681  26.779  1.00  0.00     0.232 C 
HETATM   17  O5  UNL     1      19.100  18.139  25.712  1.00  0.00    -0.272 OA
ENDROOT
BRANCH  13  18
HETATM   18  C18 UNL     1      20.258  19.447  29.142  1.00  0.00     0.040 C 
BRANCH  18  19
HETATM   19  C19 UNL     1      20.173  20.525  28.109  1.00  0.00     0.047 C 
BRANCH  19  20
HETATM   20  C20 UNL     1      20.212  21.885  28.752  1.00  0.00     0.063 C 
BRANCH  20  21
HETATM   21  N3  UNL     1      19.552  22.017  29.988  1.00  0.00    -0.347 N 
HETATM   22  C21 UNL     1      19.948  22.394  31.128  1.00  0.00     0.200 C 
HETATM   23  N4  UNL     1      21.247  22.813  31.497  1.00  0.00    -0.067 NA
HETATM   24  N5  UNL     1      18.963  22.400  32.184  1.00  0.00    -0.067 NA
ATOM     25  H3  UNL     1      18.565  21.760  29.959  1.00  0.00     0.167 HD
ENDBRANCH  20  21
ENDBRANCH  19  20
ENDBRANCH  18  19
ENDBRANCH  13  18
BRANCH   8  26
HETATM   26  C12 UNL     1      19.434  16.631  32.228  1.00  0.00     0.012 C 
HETATM   27  C13 UNL     1      20.241  17.835  32.769  1.00  0.00     0.012 C 
BRANCH  26  28
HETATM   28  C14 UNL     1      19.493  15.635  33.395  1.00  0.00     0.002 C 
HETATM   29  C15 UNL     1      19.640  16.423  34.681  1.00  0.00     0.005 C 
ENDBRANCH  26  28
ENDBRANCH   8  26
BRANCH   1  30
HETATM   30  C5  UNL     1      18.271  15.611  25.493  1.00  0.00     0.025 C 
BRANCH  30  31
HETATM   31  C4  UNL     1      17.026  15.805  24.711  1.00  0.00     0.002 C 
BRANCH  31  32
HETATM   32  C3  UNL     1      15.828  15.710  25.627  1.00  0.00    -0.000 C 
BRANCH  32  33
HETATM   33  C2  UNL     1      14.681  16.560  25.182  1.00  0.00    -0.005 C 
HETATM   34  C1  UNL     1      13.789  16.907  26.375  1.00  0.00     0.005 C 
ENDBRANCH  32  33
ENDBRANCH  31  32
ENDBRANCH  30  31
ENDBRANCH   1  30
BRANCH   7  35
HETATM   35  O3  UNL     1      15.933  16.230  32.012  1.00  0.00    -0.348 OA
ATOM     36  H3  UNL     1      15.666  17.053  32.406  1.00  0.00     0.219 HD
ENDBRANCH   7  35
BRANCH   4  37
HETATM   37  C9  UNL     1      17.396  13.176  30.439  1.00  0.00     0.197 C 
HETATM   38  O1  UNL     1      16.672  12.306  29.913  1.00  0.00    -0.646 OA
HETATM   39  O2  UNL     1      17.966  13.033  31.689  1.00  0.00    -0.646 OA
ENDBRANCH   4  37
TORSDOF 12
ENDMDL
