MODEL 1
REMARK VINA RESULT: -7.214434881      0.000      0.000
REMARK  11 active torsions:
REMARK  status: ('A' for Active; 'I' for Inactive)
REMARK    1  A    between atoms: C2_2  and  N1_3 
REMARK    2  A    between atoms: C2_2  and  C23_40 
REMARK    3  A    between atoms: N1_3  and  C3_5 
REMARK    4  A    between atoms: C3_5  and  C4_6 
REMARK    5  A    between atoms: C3_5  and  C8_16 
REMARK    6  A    between atoms: C4_6  and  C5_7 
REMARK    7  A    between atoms: C5_7  and  C6_8 
REMARK    8  A    between atoms: C6_8  and  N2_9 
REMARK       I    between atoms: N2_9  and  C7_11 
REMARK       I    between atoms: C8_16  and  N5_18 
REMARK       I    between atoms: N6_24  and  C14_25 
REMARK    9  A    between atoms: C14_25  and  C15_27 
REMARK   10  A    between atoms: C15_27  and  N7_28 
REMARK   11  A    between atoms: C15_27  and  C16_32 
ROOT
HETATM    1  C8  UNL     1      19.727  18.636  30.583  1.00  0.00     0.257 C 
HETATM    2  O1  UNL     1      19.484  18.397  29.338  1.00  0.00    -0.270 OA
HETATM    3  N5  UNL     1      20.954  18.191  31.134  1.00  0.00    -0.261 N 
HETATM    4  C9  UNL     1      21.460  18.362  32.452  1.00  0.00     0.156 C 
HETATM    5  C10 UNL     1      22.931  17.940  32.328  1.00  0.00     0.046 C 
HETATM    6  C11 UNL     1      23.021  16.580  32.949  1.00  0.00     0.011 C 
HETATM    7  C12 UNL     1      23.843  15.598  32.141  1.00  0.00     0.020 C 
HETATM    8  C13 UNL     1      24.937  16.380  31.404  1.00  0.00     0.127 C 
HETATM    9  N6  UNL     1      24.281  17.172  30.399  1.00  0.00    -0.330 N 
HETATM   10  C14 UNL     1      24.618  17.221  29.041  1.00  0.00     0.252 C 
HETATM   11  O2  UNL     1      23.976  18.022  28.261  1.00  0.00    -0.271 OA
HETATM   12  C22 UNL     1      23.168  17.990  30.858  1.00  0.00     0.207 C 
HETATM   13  N8  UNL     1      21.905  17.469  30.353  1.00  0.00    -0.110 NA
ENDROOT
BRANCH   1  14
HETATM   14  C3  UNL     1      18.683  19.373  31.345  1.00  0.00     0.171 C 
BRANCH  14  15
HETATM   15  N1  UNL     1      18.696  20.708  30.825  1.00  0.00    -0.405 N 
ATOM     16  H1  UNL     1      17.838  21.189  30.554  1.00  0.00     0.154 HD
BRANCH  15  17
HETATM   17  C2  UNL     1      19.975  21.326  30.707  1.00  0.00     0.077 C 
HETATM   18  C1  UNL     1      20.152  22.256  31.878  1.00  0.00     0.032 C 
BRANCH  17  19
HETATM   19  C23 UNL     1      19.976  22.132  29.430  1.00  0.00     0.007 C 
HETATM   20  C24 UNL     1      20.955  21.759  28.370  1.00  0.00     0.007 C 
HETATM   21  C25 UNL     1      19.880  22.153  27.343  1.00  0.00     0.001 C 
HETATM   22  C26 UNL     1      18.866  21.843  28.457  1.00  0.00     0.007 C 
ENDBRANCH  17  19
ENDBRANCH  15  17
ENDBRANCH  14  15
BRANCH  14  23
HETATM   23  C4  UNL     1      17.379  18.675  31.169  1.00  0.00     0.036 C 
BRANCH  23  24
HETATM   24  C5  UNL     1      17.224  17.461  32.029  1.00  0.00     0.022 C 
BRANCH  24  25
HETATM   25  C6  UNL     1      17.219  16.179  31.257  1.00  0.00     0.122 C 
BRANCH  25  26
HETATM   26  N2  UNL     1      16.143  16.200  30.315  1.00  0.00    -0.365 N 
HETATM   27  C7  UNL     1      16.388  15.872  28.960  1.00  0.00     0.181 C 
HETATM   28  N3  UNL     1      17.436  16.295  28.344  1.00  0.00    -0.374 N 
HETATM   29  N4  UNL     1      15.487  15.057  28.214  1.00  0.00    -0.064 NA
ATOM     30  H32 UNL     1      18.080  16.878  28.878  1.00  0.00     0.158 HD
ATOM     31  H31 UNL     1      17.612  16.059  27.368  1.00  0.00     0.158 HD
ATOM     32  H2  UNL     1      15.202  16.451  30.619  1.00  0.00     0.162 HD
ENDBRANCH  25  26
ENDBRANCH  24  25
ENDBRANCH  23  24
ENDBRANCH  14  23
ENDBRANCH   1  14
BRANCH  10  33
HETATM   33  C15 UNL     1      25.659  16.432  28.386  1.00  0.00     0.278 C 
BRANCH  33  34
HETATM   34  N7  UNL     1      26.996  16.887  28.848  1.00  0.00    -0.066 N 
ATOM     35  H73 UNL     1      27.125  16.748  29.850  1.00  0.00     0.275 HD
ATOM     36  H72 UNL     1      27.745  16.277  28.518  1.00  0.00     0.275 HD
ATOM     37  H71 UNL     1      27.142  17.859  28.572  1.00  0.00     0.275 HD
ENDBRANCH  33  34
BRANCH  33  38
HETATM   38  C16 UNL     1      25.636  16.553  26.880  1.00  0.00     0.025 C 
HETATM   39  C17 UNL     1      26.865  17.322  26.462  1.00  0.00     0.007 C 
HETATM   40  C18 UNL     1      27.306  16.953  25.062  1.00  0.00     0.000 C 
HETATM   41  C19 UNL     1      26.066  16.661  24.252  1.00  0.00     0.000 C 
HETATM   42  C20 UNL     1      25.526  15.326  24.715  1.00  0.00     0.000 C 
HETATM   43  C21 UNL     1      25.513  15.236  26.233  1.00  0.00     0.007 C 
ENDBRANCH  33  38
ENDBRANCH  10  33
TORSDOF 11
ENDMDL
MODEL 2
REMARK VINA RESULT: -7.126318296      1.409      1.768
REMARK  11 active torsions:
REMARK  status: ('A' for Active; 'I' for Inactive)
REMARK    1  A    between atoms: C2_2  and  N1_3 
REMARK    2  A    between atoms: C2_2  and  C23_40 
REMARK    3  A    between atoms: N1_3  and  C3_5 
REMARK    4  A    between atoms: C3_5  and  C4_6 
REMARK    5  A    between atoms: C3_5  and  C8_16 
REMARK    6  A    between atoms: C4_6  and  C5_7 
REMARK    7  A    between atoms: C5_7  and  C6_8 
REMARK    8  A    between atoms: C6_8  and  N2_9 
REMARK       I    between atoms: N2_9  and  C7_11 
REMARK       I    between atoms: C8_16  and  N5_18 
REMARK       I    between atoms: N6_24  and  C14_25 
REMARK    9  A    between atoms: C14_25  and  C15_27 
REMARK   10  A    between atoms: C15_27  and  N7_28 
REMARK   11  A    between atoms: C15_27  and  C16_32 
ROOT
HETATM    1  C8  UNL     1      20.010  18.687  30.663  1.00  0.00     0.257 C 
HETATM    2  O1  UNL     1      19.755  18.517  29.409  1.00  0.00    -0.270 OA
HETATM    3  N5  UNL     1      21.223  18.173  31.187  1.00  0.00    -0.261 N 
HETATM    4  C9  UNL     1      21.738  18.263  32.509  1.00  0.00     0.156 C 
HETATM    5  C10 UNL     1      23.193  17.795  32.359  1.00  0.00     0.046 C 
HETATM    6  C11 UNL     1      23.236  16.405  32.913  1.00  0.00     0.011 C 
HETATM    7  C12 UNL     1      24.021  15.435  32.056  1.00  0.00     0.020 C 
HETATM    8  C13 UNL     1      25.139  16.211  31.351  1.00  0.00     0.127 C 
HETATM    9  N6  UNL     1      24.509  17.074  30.388  1.00  0.00    -0.330 N 
HETATM   10  C14 UNL     1      24.843  17.175  29.033  1.00  0.00     0.252 C 
HETATM   11  O2  UNL     1      24.228  18.034  28.294  1.00  0.00    -0.271 OA
HETATM   12  C22 UNL     1      23.427  17.907  30.892  1.00  0.00     0.207 C 
HETATM   13  N8  UNL     1      22.145  17.456  30.367  1.00  0.00    -0.110 NA
ENDROOT
BRANCH   1  14
HETATM   14  C3  UNL     1      18.996  19.423  31.465  1.00  0.00     0.171 C 
BRANCH  14  15
HETATM   15  N1  UNL     1      18.848  20.697  30.824  1.00  0.00    -0.405 N 
ATOM     16  H1  UNL     1      17.956  21.006  30.440  1.00  0.00     0.154 HD
BRANCH  15  17
HETATM   17  C2  UNL     1      20.020  21.506  30.756  1.00  0.00     0.077 C 
HETATM   18  C1  UNL     1      19.940  22.534  31.853  1.00  0.00     0.032 C 
BRANCH  17  19
HETATM   19  C23 UNL     1      20.010  22.208  29.419  1.00  0.00     0.007 C 
HETATM   20  C24 UNL     1      20.980  21.750  28.383  1.00  0.00     0.007 C 
HETATM   21  C25 UNL     1      19.895  22.064  27.338  1.00  0.00     0.001 C 
HETATM   22  C26 UNL     1      18.892  21.845  28.482  1.00  0.00     0.007 C 
ENDBRANCH  17  19
ENDBRANCH  15  17
ENDBRANCH  14  15
BRANCH  14  23
HETATM   23  C4  UNL     1      17.740  18.622  31.499  1.00  0.00     0.036 C 
BRANCH  23  24
HETATM   24  C5  UNL     1      17.869  17.329  32.240  1.00  0.00     0.022 C 
BRANCH  24  25
HETATM   25  C6  UNL     1      16.767  16.361  31.948  1.00  0.00     0.122 C 
BRANCH  25  26
HETATM   26  N2  UNL     1      16.268  15.830  33.179  1.00  0.00    -0.365 N 
HETATM   27  C7  UNL     1      16.748  14.586  33.655  1.00  0.00     0.181 C 
HETATM   28  N3  UNL     1      16.932  13.588  32.862  1.00  0.00    -0.374 N 
HETATM   29  N4  UNL     1      17.051  14.378  35.032  1.00  0.00    -0.064 NA
ATOM     30  H32 UNL     1      16.716  13.736  31.877  1.00  0.00     0.158 HD
ATOM     31  H31 UNL     1      17.278  12.692  33.205  1.00  0.00     0.158 HD
ATOM     32  H2  UNL     1      15.569  16.346  33.714  1.00  0.00     0.162 HD
ENDBRANCH  25  26
ENDBRANCH  24  25
ENDBRANCH  23  24
ENDBRANCH  14  23
ENDBRANCH   1  14
BRANCH  10  33
HETATM   33  C15 UNL     1      25.854  16.382  28.336  1.00  0.00     0.278 C 
BRANCH  33  34
HETATM   34  N7  UNL     1      27.211  16.848  28.725  1.00  0.00    -0.066 N 
ATOM     35  H73 UNL     1      27.179  17.704  29.278  1.00  0.00     0.275 HD
ATOM     36  H72 UNL     1      27.641  16.239  29.422  1.00  0.00     0.275 HD
ATOM     37  H71 UNL     1      27.791  16.949  27.892  1.00  0.00     0.275 HD
ENDBRANCH  33  34
BRANCH  33  38
HETATM   38  C16 UNL     1      25.756  16.485  26.831  1.00  0.00     0.025 C 
HETATM   39  C17 UNL     1      26.954  17.261  26.344  1.00  0.00     0.007 C 
HETATM   40  C18 UNL     1      27.329  16.880  24.929  1.00  0.00     0.000 C 
HETATM   41  C19 UNL     1      26.054  16.566  24.185  1.00  0.00     0.000 C 
HETATM   42  C20 UNL     1      25.552  15.231  24.689  1.00  0.00     0.000 C 
HETATM   43  C21 UNL     1      25.614  15.160  26.206  1.00  0.00     0.007 C 
ENDBRANCH  33  38
ENDBRANCH  10  33
TORSDOF 11
ENDMDL
MODEL 3
REMARK VINA RESULT: -7.120331397      5.716      8.759
REMARK  11 active torsions:
REMARK  status: ('A' for Active; 'I' for Inactive)
REMARK    1  A    between atoms: C2_2  and  N1_3 
REMARK    2  A    between atoms: C2_2  and  C23_40 
REMARK    3  A    between atoms: N1_3  and  C3_5 
REMARK    4  A    between atoms: C3_5  and  C4_6 
REMARK    5  A    between atoms: C3_5  and  C8_16 
REMARK    6  A    between atoms: C4_6  and  C5_7 
REMARK    7  A    between atoms: C5_7  and  C6_8 
REMARK    8  A    between atoms: C6_8  and  N2_9 
REMARK       I    between atoms: N2_9  and  C7_11 
REMARK       I    between atoms: C8_16  and  N5_18 
REMARK       I    between atoms: N6_24  and  C14_25 
REMARK    9  A    between atoms: C14_25  and  C15_27 
REMARK   10  A    between atoms: C15_27  and  N7_28 
REMARK   11  A    between atoms: C15_27  and  C16_32 
ROOT
HETATM    1  C8  UNL     1      17.412  12.957  29.442  1.00  0.00     0.257 C 
HETATM    2  O1  UNL     1      16.425  12.210  29.075  1.00  0.00    -0.270 OA
HETATM    3  N5  UNL     1      17.774  14.056  28.624  1.00  0.00    -0.261 N 
HETATM    4  C9  UNL     1      18.787  15.031  28.830  1.00  0.00     0.156 C 
HETATM    5  C10 UNL     1      18.473  16.102  27.775  1.00  0.00     0.046 C 
HETATM    6  C11 UNL     1      19.490  15.921  26.691  1.00  0.00     0.011 C 
HETATM    7  C12 UNL     1      18.906  15.985  25.296  1.00  0.00     0.020 C 
HETATM    8  C13 UNL     1      17.704  16.936  25.321  1.00  0.00     0.127 C 
HETATM    9  N6  UNL     1      16.672  16.288  26.085  1.00  0.00    -0.330 N 
HETATM   10  C14 UNL     1      15.345  16.101  25.681  1.00  0.00     0.252 C 
HETATM   11  O2  UNL     1      14.511  15.550  26.495  1.00  0.00    -0.271 OA
HETATM   12  C22 UNL     1      17.067  15.789  27.393  1.00  0.00     0.207 C 
HETATM   13  N8  UNL     1      17.093  14.332  27.401  1.00  0.00    -0.110 NA
ENDROOT
BRANCH   1  14
HETATM   14  C3  UNL     1      18.092  12.599  30.716  1.00  0.00     0.171 C 
BRANCH  14  15
HETATM   15  N1  UNL     1      17.293  13.176  31.756  1.00  0.00    -0.405 N 
ATOM     16  H1  UNL     1      16.348  12.846  31.955  1.00  0.00     0.154 HD
BRANCH  15  17
HETATM   17  C2  UNL     1      17.894  14.235  32.497  1.00  0.00     0.077 C 
HETATM   18  C1  UNL     1      17.642  13.980  33.960  1.00  0.00     0.032 C 
BRANCH  17  19
HETATM   19  C23 UNL     1      17.208  15.519  32.093  1.00  0.00     0.007 C 
HETATM   20  C24 UNL     1      16.424  16.247  33.131  1.00  0.00     0.007 C 
HETATM   21  C25 UNL     1      16.886  17.550  32.457  1.00  0.00     0.001 C 
HETATM   22  C26 UNL     1      18.087  16.731  31.957  1.00  0.00     0.007 C 
ENDBRANCH  17  19
ENDBRANCH  15  17
ENDBRANCH  14  15
BRANCH  14  23
HETATM   23  C4  UNL     1      18.202  11.115  30.799  1.00  0.00     0.036 C 
BRANCH  23  24
HETATM   24  C5  UNL     1      17.718  10.546  32.095  1.00  0.00     0.022 C 
BRANCH  24  25
HETATM   25  C6  UNL     1      16.652   9.509  31.931  1.00  0.00     0.122 C 
BRANCH  25  26
HETATM   26  N2  UNL     1      15.462  10.131  31.438  1.00  0.00    -0.365 N 
HETATM   27  C7  UNL     1      14.830   9.620  30.278  1.00  0.00     0.181 C 
HETATM   28  N3  UNL     1      15.510   9.242  29.253  1.00  0.00    -0.374 N 
HETATM   29  N4  UNL     1      13.412   9.499  30.192  1.00  0.00    -0.064 NA
ATOM     30  H32 UNL     1      16.524   9.329  29.315  1.00  0.00     0.158 HD
ATOM     31  H31 UNL     1      15.054   8.874  28.418  1.00  0.00     0.158 HD
ATOM     32  H2  UNL     1      15.069  10.940  31.920  1.00  0.00     0.162 HD
ENDBRANCH  25  26
ENDBRANCH  24  25
ENDBRANCH  23  24
ENDBRANCH  14  23
ENDBRANCH   1  14
BRANCH  10  33
HETATM   33  C15 UNL     1      14.780  16.478  24.387  1.00  0.00     0.278 C 
BRANCH  33  34
HETATM   34  N7  UNL     1      13.319  16.711  24.528  1.00  0.00    -0.066 N 
ATOM     35  H73 UNL     1      12.768  15.934  24.163  1.00  0.00     0.275 HD
ATOM     36  H72 UNL     1      13.014  16.662  25.501  1.00  0.00     0.275 HD
ATOM     37  H71 UNL     1      13.069  17.598  24.091  1.00  0.00     0.275 HD
ENDBRANCH  33  34
BRANCH  33  38
HETATM   38  C16 UNL     1      14.968  15.418  23.326  1.00  0.00     0.025 C 
HETATM   39  C17 UNL     1      13.743  15.427  22.446  1.00  0.00     0.007 C 
HETATM   40  C18 UNL     1      14.056  14.947  21.046  1.00  0.00     0.000 C 
HETATM   41  C19 UNL     1      15.122  13.883  21.154  1.00  0.00     0.000 C 
HETATM   42  C20 UNL     1      16.424  14.577  21.488  1.00  0.00     0.000 C 
HETATM   43  C21 UNL     1      16.228  15.608  22.589  1.00  0.00     0.007 C 
ENDBRANCH  33  38
ENDBRANCH  10  33
TORSDOF 11
ENDMDL
MODEL 4
REMARK VINA RESULT: -7.109325341      3.933      7.920
REMARK  11 active torsions:
REMARK  status: ('A' for Active; 'I' for Inactive)
REMARK    1  A    between atoms: C2_2  and  N1_3 
REMARK    2  A    between atoms: C2_2  and  C23_40 
REMARK    3  A    between atoms: N1_3  and  C3_5 
REMARK    4  A    between atoms: C3_5  and  C4_6 
REMARK    5  A    between atoms: C3_5  and  C8_16 
REMARK    6  A    between atoms: C4_6  and  C5_7 
REMARK    7  A    between atoms: C5_7  and  C6_8 
REMARK    8  A    between atoms: C6_8  and  N2_9 
REMARK       I    between atoms: N2_9  and  C7_11 
REMARK       I    between atoms: C8_16  and  N5_18 
REMARK       I    between atoms: N6_24  and  C14_25 
REMARK    9  A    between atoms: C14_25  and  C15_27 
REMARK   10  A    between atoms: C15_27  and  N7_28 
REMARK   11  A    between atoms: C15_27  and  C16_32 
ROOT
HETATM    1  C8  UNL     1      16.972  15.886  26.398  1.00  0.00     0.257 C 
HETATM    2  O1  UNL     1      16.360  15.044  27.161  1.00  0.00    -0.270 OA
HETATM    3  N5  UNL     1      17.875  16.806  26.987  1.00  0.00    -0.261 N 
HETATM    4  C9  UNL     1      18.685  17.792  26.361  1.00  0.00     0.156 C 
HETATM    5  C10 UNL     1      19.644  18.230  27.478  1.00  0.00     0.046 C 
HETATM    6  C11 UNL     1      19.151  19.566  27.941  1.00  0.00     0.011 C 
HETATM    7  C12 UNL     1      19.126  19.715  29.447  1.00  0.00     0.020 C 
HETATM    8  C13 UNL     1      20.261  18.865  30.033  1.00  0.00     0.127 C 
HETATM    9  N6  UNL     1      19.903  17.488  29.827  1.00  0.00    -0.330 N 
HETATM   10  C14 UNL     1      19.890  16.487  30.805  1.00  0.00     0.252 C 
HETATM   11  O2  UNL     1      19.601  15.278  30.466  1.00  0.00    -0.271 OA
HETATM   12  C22 UNL     1      19.523  17.125  28.470  1.00  0.00     0.207 C 
HETATM   13  N8  UNL     1      18.097  16.835  28.396  1.00  0.00    -0.110 NA
ENDROOT
BRANCH   1  14
HETATM   14  C3  UNL     1      16.677  15.815  24.941  1.00  0.00     0.171 C 
BRANCH  14  15
HETATM   15  N1  UNL     1      17.467  14.729  24.440  1.00  0.00    -0.405 N 
ATOM     16  H1  UNL     1      17.298  13.764  24.726  1.00  0.00     0.154 HD
BRANCH  15  17
HETATM   17  C2  UNL     1      18.500  15.073  23.520  1.00  0.00     0.077 C 
HETATM   18  C1  UNL     1      18.039  14.689  22.139  1.00  0.00     0.032 C 
BRANCH  17  19
HETATM   19  C23 UNL     1      19.720  14.258  23.879  1.00  0.00     0.007 C 
HETATM   20  C24 UNL     1      20.508  14.674  25.074  1.00  0.00     0.007 C 
HETATM   21  C25 UNL     1      20.771  13.179  25.326  1.00  0.00     0.001 C 
HETATM   22  C26 UNL     1      19.466  12.936  24.549  1.00  0.00     0.007 C 
ENDBRANCH  17  19
ENDBRANCH  15  17
ENDBRANCH  14  15
BRANCH  14  23
HETATM   23  C4  UNL     1      15.211  15.623  24.758  1.00  0.00     0.036 C 
BRANCH  23  24
HETATM   24  C5  UNL     1      14.435  16.901  24.728  1.00  0.00     0.022 C 
BRANCH  24  25
HETATM   25  C6  UNL     1      13.781  17.234  26.032  1.00  0.00     0.122 C 
BRANCH  25  26
HETATM   26  N2  UNL     1      13.174  16.055  26.568  1.00  0.00    -0.365 N 
HETATM   27  C7  UNL     1      13.134  15.860  27.970  1.00  0.00     0.181 C 
HETATM   28  N3  UNL     1      14.145  16.137  28.718  1.00  0.00    -0.374 N 
HETATM   29  N4  UNL     1      11.972  15.351  28.622  1.00  0.00    -0.064 NA
ATOM     30  H32 UNL     1      14.976  16.501  28.252  1.00  0.00     0.158 HD
ATOM     31  H31 UNL     1      14.116  15.996  29.727  1.00  0.00     0.158 HD
ATOM     32  H2  UNL     1      12.771  15.356  25.944  1.00  0.00     0.162 HD
ENDBRANCH  25  26
ENDBRANCH  24  25
ENDBRANCH  23  24
ENDBRANCH  14  23
ENDBRANCH   1  14
BRANCH  10  33
HETATM   33  C15 UNL     1      20.181  16.671  32.226  1.00  0.00     0.278 C 
BRANCH  33  34
HETATM   34  N7  UNL     1      21.215  15.693  32.655  1.00  0.00    -0.066 N 
ATOM     35  H73 UNL     1      21.167  15.498  33.655  1.00  0.00     0.275 HD
ATOM     36  H72 UNL     1      21.020  14.752  32.312  1.00  0.00     0.275 HD
ATOM     37  H71 UNL     1      22.137  16.022  32.371  1.00  0.00     0.275 HD
ENDBRANCH  33  34
BRANCH  33  38
HETATM   38  C16 UNL     1      18.972  16.469  33.110  1.00  0.00     0.025 C 
HETATM   39  C17 UNL     1      17.785  17.086  32.414  1.00  0.00     0.007 C 
HETATM   40  C18 UNL     1      16.491  16.412  32.813  1.00  0.00     0.000 C 
HETATM   41  C19 UNL     1      16.615  15.998  34.259  1.00  0.00     0.000 C 
HETATM   42  C20 UNL     1      17.553  14.812  34.313  1.00  0.00     0.000 C 
HETATM   43  C21 UNL     1      18.785  15.049  33.454  1.00  0.00     0.007 C 
ENDBRANCH  33  38
ENDBRANCH  10  33
TORSDOF 11
ENDMDL
MODEL 5
REMARK VINA RESULT: -7.050467573      3.992      7.642
REMARK  11 active torsions:
REMARK  status: ('A' for Active; 'I' for Inactive)
REMARK    1  A    between atoms: C2_2  and  N1_3 
REMARK    2  A    between atoms: C2_2  and  C23_40 
REMARK    3  A    between atoms: N1_3  and  C3_5 
REMARK    4  A    between atoms: C3_5  and  C4_6 
REMARK    5  A    between atoms: C3_5  and  C8_16 
REMARK    6  A    between atoms: C4_6  and  C5_7 
REMARK    7  A    between atoms: C5_7  and  C6_8 
REMARK    8  A    between atoms: C6_8  and  N2_9 
REMARK       I    between atoms: N2_9  and  C7_11 
REMARK       I    between atoms: C8_16  and  N5_18 
REMARK       I    between atoms: N6_24  and  C14_25 
REMARK    9  A    between atoms: C14_25  and  C15_27 
REMARK   10  A    between atoms: C15_27  and  N7_28 
REMARK   11  A    between atoms: C15_27  and  C16_32 
ROOT
HETATM    1  C8  UNL     1      18.550  17.179  25.820  1.00  0.00     0.257 C 
HETATM    2  O1  UNL     1      19.636  17.855  25.642  1.00  0.00    -0.270 OA
HETATM    3  N5  UNL     1      18.002  17.105  27.125  1.00  0.00    -0.261 N 
HETATM    4  C9  UNL     1      16.813  16.461  27.563  1.00  0.00     0.156 C 
HETATM    5  C10 UNL     1      16.617  17.000  28.988  1.00  0.00     0.046 C 
HETATM    6  C11 UNL     1      17.026  15.890  29.905  1.00  0.00     0.011 C 
HETATM    7  C12 UNL     1      17.890  16.347  31.061  1.00  0.00     0.020 C 
HETATM    8  C13 UNL     1      17.488  17.781  31.425  1.00  0.00     0.127 C 
HETATM    9  N6  UNL     1      17.910  18.624  30.339  1.00  0.00    -0.330 N 
HETATM   10  C14 UNL     1      18.673  19.791  30.453  1.00  0.00     0.252 C 
HETATM   11  O2  UNL     1      18.933  20.481  29.396  1.00  0.00    -0.271 OA
HETATM   12  C22 UNL     1      17.493  18.204  29.009  1.00  0.00     0.207 C 
HETATM   13  N8  UNL     1      18.636  17.734  28.237  1.00  0.00    -0.110 NA
ENDROOT
BRANCH   1  14
HETATM   14  C3  UNL     1      17.954  16.530  24.622  1.00  0.00     0.171 C 
BRANCH  14  15
HETATM   15  N1  UNL     1      18.065  15.120  24.852  1.00  0.00    -0.405 N 
ATOM     16  H1  UNL     1      17.312  14.584  25.285  1.00  0.00     0.154 HD
BRANCH  15  17
HETATM   17  C2  UNL     1      19.285  14.508  24.440  1.00  0.00     0.077 C 
HETATM   18  C1  UNL     1      19.045  13.839  23.113  1.00  0.00     0.032 C 
BRANCH  17  19
HETATM   19  C23 UNL     1      19.637  13.459  25.467  1.00  0.00     0.007 C 
HETATM   20  C24 UNL     1      18.687  13.240  26.594  1.00  0.00     0.007 C 
HETATM   21  C25 UNL     1      19.069  11.751  26.528  1.00  0.00     0.001 C 
HETATM   22  C26 UNL     1      19.428  12.027  25.059  1.00  0.00     0.007 C 
ENDBRANCH  17  19
ENDBRANCH  15  17
ENDBRANCH  14  15
BRANCH  14  23
HETATM   23  C4  UNL     1      16.550  17.003  24.470  1.00  0.00     0.036 C 
BRANCH  23  24
HETATM   24  C5  UNL     1      15.669  16.049  23.727  1.00  0.00     0.022 C 
BRANCH  24  25
HETATM   25  C6  UNL     1      14.655  15.373  24.595  1.00  0.00     0.122 C 
BRANCH  25  26
HETATM   26  N2  UNL     1      13.659  16.323  24.983  1.00  0.00    -0.365 N 
HETATM   27  C7  UNL     1      13.333  16.482  26.352  1.00  0.00     0.181 C 
HETATM   28  N3  UNL     1      13.214  15.469  27.137  1.00  0.00    -0.374 N 
HETATM   29  N4  UNL     1      13.125  17.770  26.926  1.00  0.00    -0.064 NA
ATOM     30  H32 UNL     1      13.363  14.547  26.727  1.00  0.00     0.158 HD
ATOM     31  H31 UNL     1      12.979  15.584  28.123  1.00  0.00     0.158 HD
ATOM     32  H2  UNL     1      13.184  16.884  24.276  1.00  0.00     0.162 HD
ENDBRANCH  25  26
ENDBRANCH  24  25
ENDBRANCH  23  24
ENDBRANCH  14  23
ENDBRANCH   1  14
BRANCH  10  33
HETATM   33  C15 UNL     1      19.230  20.335  31.690  1.00  0.00     0.278 C 
BRANCH  33  34
HETATM   34  N7  UNL     1      19.190  21.820  31.646  1.00  0.00    -0.066 N 
ATOM     35  H73 UNL     1      20.124  22.230  31.626  1.00  0.00     0.275 HD
ATOM     36  H72 UNL     1      18.858  22.169  30.747  1.00  0.00     0.275 HD
ATOM     37  H71 UNL     1      18.632  22.171  32.424  1.00  0.00     0.275 HD
ENDBRANCH  33  34
BRANCH  33  38
HETATM   38  C16 UNL     1      20.668  19.929  31.923  1.00  0.00     0.025 C 
HETATM   39  C17 UNL     1      20.836  19.661  33.398  1.00  0.00     0.007 C 
HETATM   40  C18 UNL     1      21.939  18.660  33.662  1.00  0.00     0.000 C 
HETATM   41  C19 UNL     1      23.012  18.875  32.622  1.00  0.00     0.000 C 
HETATM   42  C20 UNL     1      22.486  18.341  31.309  1.00  0.00     0.000 C 
HETATM   43  C21 UNL     1      21.055  18.795  31.067  1.00  0.00     0.007 C 
ENDBRANCH  33  38
ENDBRANCH  10  33
TORSDOF 11
ENDMDL
