MODEL 1
REMARK VINA RESULT: -6.502700999      0.000      0.000
REMARK  15 active torsions:
REMARK  status: ('A' for Active; 'I' for Inactive)
REMARK    1  A    between atoms: C7_7  and  C8_8 
REMARK    2  A    between atoms: C10_14  and  C11_15 
REMARK    3  A    between atoms: C11_15  and  C12_16 
REMARK    4  A    between atoms: C12_16  and  C13_17 
REMARK    5  A    between atoms: C13_17  and  N2_18 
REMARK    6  A    between atoms: N2_18  and  C14_20 
REMARK    7  A    between atoms: C14_20  and  N3_22 
REMARK    8  A    between atoms: N3_22  and  C15_24 
REMARK    9  A    between atoms: C15_24  and  C16_25 
REMARK   10  A    between atoms: C16_25  and  C17_26 
REMARK   11  A    between atoms: C17_26  and  C18_27 
REMARK   12  A    between atoms: C18_27  and  C19_28 
REMARK   13  A    between atoms: C19_28  and  N4_29 
REMARK   14  A    between atoms: N4_29  and  C20_31 
REMARK   15  A    between atoms: C20_31  and  N5_33 
ROOT
HETATM    1  N5  UNL     1      14.663  15.079  26.270  1.00  0.00    -0.270 N 
ATOM      2  H5  UNL     1      14.604  14.065  26.361  1.00  0.00     0.180 HD
HETATM    3  C21 UNL     1      15.086  15.587  25.060  1.00  0.00     0.184 C 
HETATM    4  N6  UNL     1      15.456  15.982  24.012  1.00  0.00    -0.172 NA
ENDROOT
BRANCH   1   5
HETATM    5  C20 UNL     1      14.306  15.848  27.387  1.00  0.00     0.180 C 
HETATM    6  S2  UNL     1      13.061  16.951  27.139  1.00  0.00    -0.040 SA
BRANCH   5   7
HETATM    7  N4  UNL     1      14.881  15.786  28.667  1.00  0.00    -0.366 N 
ATOM      8  H4  UNL     1      14.260  15.577  29.448  1.00  0.00     0.161 HD
BRANCH   7   9
HETATM    9  C19 UNL     1      16.268  15.993  28.967  1.00  0.00     0.122 C 
BRANCH   9  10
HETATM   10  C18 UNL     1      16.648  17.409  28.540  1.00  0.00     0.020 C 
BRANCH  10  11
HETATM   11  C17 UNL     1      17.173  18.219  29.679  1.00  0.00     0.003 C 
BRANCH  11  12
HETATM   12  C16 UNL     1      17.958  19.426  29.147  1.00  0.00     0.020 C 
BRANCH  12  13
HETATM   13  C15 UNL     1      19.134  19.675  30.027  1.00  0.00     0.122 C 
BRANCH  13  14
HETATM   14  N3  UNL     1      19.065  20.835  30.858  1.00  0.00    -0.367 N 
ATOM     15  H3  UNL     1      18.128  21.159  31.098  1.00  0.00     0.161 HD
BRANCH  14  16
HETATM   16  C14 UNL     1      20.134  21.582  31.384  1.00  0.00     0.167 C 
HETATM   17  S1  UNL     1      20.241  23.170  30.973  1.00  0.00    -0.041 SA
BRANCH  16  18
HETATM   18  N2  UNL     1      21.135  21.058  32.231  1.00  0.00    -0.367 N 
ATOM     19  H2  UNL     1      22.097  21.350  32.060  1.00  0.00     0.161 HD
BRANCH  18  20
HETATM   20  C13 UNL     1      20.904  20.153  33.305  1.00  0.00     0.122 C 
BRANCH  20  21
HETATM   21  C12 UNL     1      21.192  18.717  33.041  1.00  0.00     0.022 C 
BRANCH  21  22
HETATM   22  C11 UNL     1      20.118  17.881  33.733  1.00  0.00     0.044 C 
BRANCH  22  23
HETATM   23  C10 UNL     1      19.434  16.968  32.712  1.00  0.00     0.277 C 
HETATM   24  C9  UNL     1      18.903  15.803  33.465  1.00  0.00     0.252 C 
HETATM   25  N1  UNL     1      18.079  14.692  33.137  1.00  0.00    -0.331 N 
HETATM   26  O3  UNL     1      19.243  15.756  34.674  1.00  0.00    -0.271 OA
HETATM   27  C5  UNL     1      17.533  14.062  31.983  1.00  0.00     0.090 C 
HETATM   28  C7  UNL     1      17.425  13.691  33.959  1.00  0.00     0.190 C 
HETATM   29  C4  UNL     1      18.443  13.891  30.822  1.00  0.00     0.027 C 
HETATM   30  C6  UNL     1      17.471  12.757  32.773  1.00  0.00     0.061 C 
HETATM   31  C3  UNL     1      19.837  14.386  30.997  1.00  0.00     0.034 C 
HETATM   32  C2  UNL     1      19.859  15.867  30.708  1.00  0.00     0.183 C 
HETATM   33  C1  UNL     1      20.582  16.196  29.417  1.00  0.00     0.040 C 
HETATM   34  N7  UNL     1      20.490  16.518  31.824  1.00  0.00    -0.058 N 
ATOM     35  H72 UNL     1      21.181  15.930  32.290  1.00  0.00     0.278 HD
ATOM     36  H71 UNL     1      21.122  17.267  31.544  1.00  0.00     0.278 HD
BRANCH  28  37
HETATM   37  C8  UNL     1      16.013  13.996  34.303  1.00  0.00     0.197 C 
HETATM   38  O1  UNL     1      15.512  15.129  34.285  1.00  0.00    -0.646 OA
HETATM   39  O2  UNL     1      15.223  12.905  34.668  1.00  0.00    -0.646 OA
ENDBRANCH  28  37
ENDBRANCH  22  23
ENDBRANCH  21  22
ENDBRANCH  20  21
ENDBRANCH  18  20
ENDBRANCH  16  18
ENDBRANCH  14  16
ENDBRANCH  13  14
ENDBRANCH  12  13
ENDBRANCH  11  12
ENDBRANCH  10  11
ENDBRANCH   9  10
ENDBRANCH   7   9
ENDBRANCH   5   7
ENDBRANCH   1   5
TORSDOF 15
ENDMDL
MODEL 2
REMARK VINA RESULT: -6.291207831      3.770      6.502
REMARK  15 active torsions:
REMARK  status: ('A' for Active; 'I' for Inactive)
REMARK    1  A    between atoms: C7_7  and  C8_8 
REMARK    2  A    between atoms: C10_14  and  C11_15 
REMARK    3  A    between atoms: C11_15  and  C12_16 
REMARK    4  A    between atoms: C12_16  and  C13_17 
REMARK    5  A    between atoms: C13_17  and  N2_18 
REMARK    6  A    between atoms: N2_18  and  C14_20 
REMARK    7  A    between atoms: C14_20  and  N3_22 
REMARK    8  A    between atoms: N3_22  and  C15_24 
REMARK    9  A    between atoms: C15_24  and  C16_25 
REMARK   10  A    between atoms: C16_25  and  C17_26 
REMARK   11  A    between atoms: C17_26  and  C18_27 
REMARK   12  A    between atoms: C18_27  and  C19_28 
REMARK   13  A    between atoms: C19_28  and  N4_29 
REMARK   14  A    between atoms: N4_29  and  C20_31 
REMARK   15  A    between atoms: C20_31  and  N5_33 
ROOT
HETATM    1  N5  UNL     1      13.603  15.224  22.495  1.00  0.00    -0.270 N 
ATOM      2  H5  UNL     1      13.418  14.458  21.848  1.00  0.00     0.180 HD
HETATM    3  C21 UNL     1      12.535  16.014  22.868  1.00  0.00     0.184 C 
HETATM    4  N6  UNL     1      11.599  16.668  23.159  1.00  0.00    -0.172 NA
ENDROOT
BRANCH   1   5
HETATM    5  C20 UNL     1      14.923  15.392  22.935  1.00  0.00     0.180 C 
HETATM    6  S2  UNL     1      16.115  14.941  21.837  1.00  0.00    -0.040 SA
BRANCH   5   7
HETATM    7  N4  UNL     1      15.336  15.891  24.181  1.00  0.00    -0.366 N 
ATOM      8  H4  UNL     1      14.607  16.125  24.855  1.00  0.00     0.161 HD
BRANCH   7   9
HETATM    9  C19 UNL     1      16.696  16.098  24.586  1.00  0.00     0.122 C 
BRANCH   9  10
HETATM   10  C18 UNL     1      16.861  15.570  26.009  1.00  0.00     0.020 C 
BRANCH  10  11
HETATM   11  C17 UNL     1      15.987  16.290  26.982  1.00  0.00     0.003 C 
BRANCH  11  12
HETATM   12  C16 UNL     1      15.633  15.364  28.154  1.00  0.00     0.020 C 
BRANCH  12  13
HETATM   13  C15 UNL     1      16.774  14.440  28.413  1.00  0.00     0.122 C 
BRANCH  13  14
HETATM   14  N3  UNL     1      16.906  13.964  29.753  1.00  0.00    -0.367 N 
ATOM     15  H3  UNL     1      16.102  13.466  30.134  1.00  0.00     0.161 HD
BRANCH  14  16
HETATM   16  C14 UNL     1      18.014  14.100  30.610  1.00  0.00     0.167 C 
HETATM   17  S1  UNL     1      19.261  13.044  30.432  1.00  0.00    -0.041 SA
BRANCH  16  18
HETATM   18  N2  UNL     1      18.124  15.074  31.626  1.00  0.00    -0.367 N 
ATOM     19  H2  UNL     1      19.040  15.208  32.052  1.00  0.00     0.161 HD
BRANCH  18  20
HETATM   20  C13 UNL     1      17.052  15.882  32.102  1.00  0.00     0.122 C 
BRANCH  20  21
HETATM   21  C12 UNL     1      17.204  17.353  31.941  1.00  0.00     0.022 C 
BRANCH  21  22
HETATM   22  C11 UNL     1      17.264  17.666  30.448  1.00  0.00     0.044 C 
BRANCH  22  23
HETATM   23  C10 UNL     1      18.702  18.002  30.045  1.00  0.00     0.277 C 
HETATM   24  C9  UNL     1      18.715  19.435  29.654  1.00  0.00     0.252 C 
HETATM   25  N1  UNL     1      19.730  20.369  29.312  1.00  0.00    -0.331 N 
HETATM   26  O3  UNL     1      17.582  19.978  29.601  1.00  0.00    -0.271 OA
HETATM   27  C5  UNL     1      21.121  20.381  29.007  1.00  0.00     0.090 C 
HETATM   28  C7  UNL     1      19.707  21.808  29.134  1.00  0.00     0.190 C 
HETATM   29  C4  UNL     1      21.613  19.319  28.093  1.00  0.00     0.027 C 
HETATM   30  C6  UNL     1      20.896  21.666  28.213  1.00  0.00     0.061 C 
HETATM   31  C3  UNL     1      20.593  18.361  27.583  1.00  0.00     0.034 C 
HETATM   32  C2  UNL     1      20.390  17.282  28.617  1.00  0.00     0.183 C 
HETATM   33  C1  UNL     1      20.943  15.942  28.174  1.00  0.00     0.040 C 
HETATM   34  N7  UNL     1      18.979  17.189  28.876  1.00  0.00    -0.058 N 
ATOM     35  H72 UNL     1      18.408  17.440  28.069  1.00  0.00     0.278 HD
ATOM     36  H71 UNL     1      18.654  16.227  28.973  1.00  0.00     0.278 HD
BRANCH  28  37
HETATM   37  C8  UNL     1      20.094  22.589  30.336  1.00  0.00     0.197 C 
HETATM   38  O1  UNL     1      21.193  23.137  30.498  1.00  0.00    -0.646 OA
HETATM   39  O2  UNL     1      19.125  22.695  31.336  1.00  0.00    -0.646 OA
ENDBRANCH  28  37
ENDBRANCH  22  23
ENDBRANCH  21  22
ENDBRANCH  20  21
ENDBRANCH  18  20
ENDBRANCH  16  18
ENDBRANCH  14  16
ENDBRANCH  13  14
ENDBRANCH  12  13
ENDBRANCH  11  12
ENDBRANCH  10  11
ENDBRANCH   9  10
ENDBRANCH   7   9
ENDBRANCH   5   7
ENDBRANCH   1   5
TORSDOF 15
ENDMDL
MODEL 3
REMARK VINA RESULT: -6.237157886      3.367      5.545
REMARK  15 active torsions:
REMARK  status: ('A' for Active; 'I' for Inactive)
REMARK    1  A    between atoms: C7_7  and  C8_8 
REMARK    2  A    between atoms: C10_14  and  C11_15 
REMARK    3  A    between atoms: C11_15  and  C12_16 
REMARK    4  A    between atoms: C12_16  and  C13_17 
REMARK    5  A    between atoms: C13_17  and  N2_18 
REMARK    6  A    between atoms: N2_18  and  C14_20 
REMARK    7  A    between atoms: C14_20  and  N3_22 
REMARK    8  A    between atoms: N3_22  and  C15_24 
REMARK    9  A    between atoms: C15_24  and  C16_25 
REMARK   10  A    between atoms: C16_25  and  C17_26 
REMARK   11  A    between atoms: C17_26  and  C18_27 
REMARK   12  A    between atoms: C18_27  and  C19_28 
REMARK   13  A    between atoms: C19_28  and  N4_29 
REMARK   14  A    between atoms: N4_29  and  C20_31 
REMARK   15  A    between atoms: C20_31  and  N5_33 
ROOT
HETATM    1  N5  UNL     1      14.178  16.393  24.490  1.00  0.00    -0.270 N 
ATOM      2  H5  UNL     1      14.998  16.609  23.924  1.00  0.00     0.180 HD
HETATM    3  C21 UNL     1      12.941  16.528  23.895  1.00  0.00     0.184 C 
HETATM    4  N6  UNL     1      11.902  16.659  23.353  1.00  0.00    -0.172 NA
ENDROOT
BRANCH   1   5
HETATM    5  C20 UNL     1      14.397  15.983  25.812  1.00  0.00     0.180 C 
HETATM    6  S2  UNL     1      13.422  16.719  26.969  1.00  0.00    -0.040 SA
BRANCH   5   7
HETATM    7  N4  UNL     1      15.335  15.035  26.253  1.00  0.00    -0.366 N 
ATOM      8  H4  UNL     1      14.975  14.142  26.589  1.00  0.00     0.161 HD
BRANCH   7   9
HETATM    9  C19 UNL     1      16.757  15.218  26.271  1.00  0.00     0.122 C 
BRANCH   9  10
HETATM   10  C18 UNL     1      17.175  15.612  27.685  1.00  0.00     0.020 C 
BRANCH  10  11
HETATM   11  C17 UNL     1      17.188  17.094  27.876  1.00  0.00     0.003 C 
BRANCH  11  12
HETATM   12  C16 UNL     1      16.989  17.432  29.360  1.00  0.00     0.020 C 
BRANCH  12  13
HETATM   13  C15 UNL     1      16.933  16.170  30.150  1.00  0.00     0.122 C 
BRANCH  13  14
HETATM   14  N3  UNL     1      16.506  16.294  31.507  1.00  0.00    -0.367 N 
ATOM     15  H3  UNL     1      15.507  16.442  31.651  1.00  0.00     0.161 HD
BRANCH  14  16
HETATM   16  C14 UNL     1      17.298  16.238  32.668  1.00  0.00     0.167 C 
HETATM   17  S1  UNL     1      16.592  15.718  34.059  1.00  0.00    -0.041 SA
BRANCH  16  18
HETATM   18  N2  UNL     1      18.658  16.612  32.726  1.00  0.00    -0.367 N 
ATOM     19  H2  UNL     1      19.124  16.832  31.847  1.00  0.00     0.161 HD
BRANCH  18  20
HETATM   20  C13 UNL     1      19.428  16.704  33.920  1.00  0.00     0.122 C 
BRANCH  20  21
HETATM   21  C12 UNL     1      20.785  17.299  33.794  1.00  0.00     0.022 C 
BRANCH  21  22
HETATM   22  C11 UNL     1      20.628  18.760  33.380  1.00  0.00     0.044 C 
BRANCH  22  23
HETATM   23  C10 UNL     1      21.367  19.008  32.062  1.00  0.00     0.277 C 
HETATM   24  C9  UNL     1      20.335  19.341  31.047  1.00  0.00     0.252 C 
HETATM   25  N1  UNL     1      20.367  19.787  29.697  1.00  0.00    -0.331 N 
HETATM   26  O3  UNL     1      19.148  19.207  31.437  1.00  0.00    -0.271 OA
HETATM   27  C5  UNL     1      21.310  19.953  28.642  1.00  0.00     0.090 C 
HETATM   28  C7  UNL     1      19.332  20.290  28.815  1.00  0.00     0.190 C 
HETATM   29  C4  UNL     1      22.281  18.849  28.434  1.00  0.00     0.027 C 
HETATM   30  C6  UNL     1      20.161  19.810  27.647  1.00  0.00     0.061 C 
HETATM   31  C3  UNL     1      22.154  17.678  29.346  1.00  0.00     0.034 C 
HETATM   32  C2  UNL     1      22.887  17.988  30.627  1.00  0.00     0.183 C 
HETATM   33  C1  UNL     1      24.153  17.169  30.786  1.00  0.00     0.040 C 
HETATM   34  N7  UNL     1      21.981  17.740  31.716  1.00  0.00    -0.058 N 
ATOM     35  H72 UNL     1      21.300  17.009  31.510  1.00  0.00     0.278 HD
ATOM     36  H71 UNL     1      22.428  17.283  32.511  1.00  0.00     0.278 HD
BRANCH  28  37
HETATM   37  C8  UNL     1      19.216  21.770  28.774  1.00  0.00     0.197 C 
HETATM   38  O1  UNL     1      19.476  22.524  29.721  1.00  0.00    -0.646 OA
HETATM   39  O2  UNL     1      18.782  22.316  27.565  1.00  0.00    -0.646 OA
ENDBRANCH  28  37
ENDBRANCH  22  23
ENDBRANCH  21  22
ENDBRANCH  20  21
ENDBRANCH  18  20
ENDBRANCH  16  18
ENDBRANCH  14  16
ENDBRANCH  13  14
ENDBRANCH  12  13
ENDBRANCH  11  12
ENDBRANCH  10  11
ENDBRANCH   9  10
ENDBRANCH   7   9
ENDBRANCH   5   7
ENDBRANCH   1   5
TORSDOF 15
ENDMDL
MODEL 4
REMARK VINA RESULT: -6.206689543      3.878      6.901
REMARK  15 active torsions:
REMARK  status: ('A' for Active; 'I' for Inactive)
REMARK    1  A    between atoms: C7_7  and  C8_8 
REMARK    2  A    between atoms: C10_14  and  C11_15 
REMARK    3  A    between atoms: C11_15  and  C12_16 
REMARK    4  A    between atoms: C12_16  and  C13_17 
REMARK    5  A    between atoms: C13_17  and  N2_18 
REMARK    6  A    between atoms: N2_18  and  C14_20 
REMARK    7  A    between atoms: C14_20  and  N3_22 
REMARK    8  A    between atoms: N3_22  and  C15_24 
REMARK    9  A    between atoms: C15_24  and  C16_25 
REMARK   10  A    between atoms: C16_25  and  C17_26 
REMARK   11  A    between atoms: C17_26  and  C18_27 
REMARK   12  A    between atoms: C18_27  and  C19_28 
REMARK   13  A    between atoms: C19_28  and  N4_29 
REMARK   14  A    between atoms: N4_29  and  C20_31 
REMARK   15  A    between atoms: C20_31  and  N5_33 
ROOT
HETATM    1  N5  UNL     1      13.898  14.996  22.928  1.00  0.00    -0.270 N 
ATOM      2  H5  UNL     1      14.007  14.374  23.729  1.00  0.00     0.180 HD
HETATM    3  C21 UNL     1      12.870  15.916  22.973  1.00  0.00     0.184 C 
HETATM    4  N6  UNL     1      11.979  16.684  23.047  1.00  0.00    -0.172 NA
ENDROOT
BRANCH   1   5
HETATM    5  C20 UNL     1      14.804  14.850  21.869  1.00  0.00     0.180 C 
HETATM    6  S2  UNL     1      14.186  15.174  20.338  1.00  0.00    -0.040 SA
BRANCH   5   7
HETATM    7  N4  UNL     1      16.151  14.465  21.963  1.00  0.00    -0.366 N 
ATOM      8  H4  UNL     1      16.352  13.465  21.958  1.00  0.00     0.161 HD
BRANCH   7   9
HETATM    9  C19 UNL     1      17.267  15.359  22.067  1.00  0.00     0.122 C 
BRANCH   9  10
HETATM   10  C18 UNL     1      17.771  15.336  23.508  1.00  0.00     0.020 C 
BRANCH  10  11
HETATM   11  C17 UNL     1      17.677  16.676  24.159  1.00  0.00     0.003 C 
BRANCH  11  12
HETATM   12  C16 UNL     1      17.221  16.521  25.616  1.00  0.00     0.020 C 
BRANCH  12  13
HETATM   13  C15 UNL     1      15.992  15.678  25.660  1.00  0.00     0.122 C 
BRANCH  13  14
HETATM   14  N3  UNL     1      14.826  16.293  26.209  1.00  0.00    -0.367 N 
ATOM     15  H3  UNL     1      14.202  16.748  25.542  1.00  0.00     0.161 HD
BRANCH  14  16
HETATM   16  C14 UNL     1      14.435  16.346  27.558  1.00  0.00     0.167 C 
HETATM   17  S1  UNL     1      12.885  15.939  27.929  1.00  0.00    -0.041 SA
BRANCH  16  18
HETATM   18  N2  UNL     1      15.277  16.740  28.620  1.00  0.00    -0.367 N 
ATOM     19  H2  UNL     1      15.319  17.734  28.844  1.00  0.00     0.161 HD
BRANCH  18  20
HETATM   20  C13 UNL     1      16.073  15.856  29.403  1.00  0.00     0.122 C 
BRANCH  20  21
HETATM   21  C12 UNL     1      17.544  16.067  29.358  1.00  0.00     0.022 C 
BRANCH  21  22
HETATM   22  C11 UNL     1      17.900  17.159  30.365  1.00  0.00     0.044 C 
BRANCH  22  23
HETATM   23  C10 UNL     1      19.083  17.980  29.845  1.00  0.00     0.277 C 
HETATM   24  C9  UNL     1      18.853  19.384  30.271  1.00  0.00     0.252 C 
HETATM   25  N1  UNL     1      19.616  20.582  30.221  1.00  0.00    -0.331 N 
HETATM   26  O3  UNL     1      17.734  19.598  30.803  1.00  0.00    -0.271 OA
HETATM   27  C5  UNL     1      20.812  21.069  29.622  1.00  0.00     0.090 C 
HETATM   28  C7  UNL     1      19.425  21.882  30.834  1.00  0.00     0.190 C 
HETATM   29  C4  UNL     1      21.039  20.715  28.198  1.00  0.00     0.027 C 
HETATM   30  C6  UNL     1      20.232  22.479  29.706  1.00  0.00     0.061 C 
HETATM   31  C3  UNL     1      19.979  19.896  27.545  1.00  0.00     0.034 C 
HETATM   32  C2  UNL     1      20.226  18.445  27.874  1.00  0.00     0.183 C 
HETATM   33  C1  UNL     1      20.692  17.648  26.671  1.00  0.00     0.040 C 
HETATM   34  N7  UNL     1      19.001  17.905  28.398  1.00  0.00    -0.058 N 
ATOM     35  H72 UNL     1      18.170  18.360  28.020  1.00  0.00     0.278 HD
ATOM     36  H71 UNL     1      18.802  16.964  28.057  1.00  0.00     0.278 HD
BRANCH  28  37
HETATM   37  C8  UNL     1      20.142  22.074  32.120  1.00  0.00     0.197 C 
HETATM   38  O1  UNL     1      20.395  21.170  32.929  1.00  0.00    -0.646 OA
HETATM   39  O2  UNL     1      20.547  23.379  32.407  1.00  0.00    -0.646 OA
ENDBRANCH  28  37
ENDBRANCH  22  23
ENDBRANCH  21  22
ENDBRANCH  20  21
ENDBRANCH  18  20
ENDBRANCH  16  18
ENDBRANCH  14  16
ENDBRANCH  13  14
ENDBRANCH  12  13
ENDBRANCH  11  12
ENDBRANCH  10  11
ENDBRANCH   9  10
ENDBRANCH   7   9
ENDBRANCH   5   7
ENDBRANCH   1   5
TORSDOF 15
ENDMDL
MODEL 5
REMARK VINA RESULT: -6.093452534      4.053      7.918
REMARK  15 active torsions:
REMARK  status: ('A' for Active; 'I' for Inactive)
REMARK    1  A    between atoms: C7_7  and  C8_8 
REMARK    2  A    between atoms: C10_14  and  C11_15 
REMARK    3  A    between atoms: C11_15  and  C12_16 
REMARK    4  A    between atoms: C12_16  and  C13_17 
REMARK    5  A    between atoms: C13_17  and  N2_18 
REMARK    6  A    between atoms: N2_18  and  C14_20 
REMARK    7  A    between atoms: C14_20  and  N3_22 
REMARK    8  A    between atoms: N3_22  and  C15_24 
REMARK    9  A    between atoms: C15_24  and  C16_25 
REMARK   10  A    between atoms: C16_25  and  C17_26 
REMARK   11  A    between atoms: C17_26  and  C18_27 
REMARK   12  A    between atoms: C18_27  and  C19_28 
REMARK   13  A    between atoms: C19_28  and  N4_29 
REMARK   14  A    between atoms: N4_29  and  C20_31 
REMARK   15  A    between atoms: C20_31  and  N5_33 
ROOT
HETATM    1  N5  UNL     1      19.086  12.447  24.179  1.00  0.00    -0.270 N 
ATOM      2  H5  UNL     1      19.017  11.806  23.390  1.00  0.00     0.180 HD
HETATM    3  C21 UNL     1      19.426  11.912  25.405  1.00  0.00     0.184 C 
HETATM    4  N6  UNL     1      19.715  11.417  26.435  1.00  0.00    -0.172 NA
ENDROOT
BRANCH   1   5
HETATM    5  C20 UNL     1      18.828  13.802  23.935  1.00  0.00     0.180 C 
HETATM    6  S2  UNL     1      19.661  14.886  24.916  1.00  0.00    -0.040 SA
BRANCH   5   7
HETATM    7  N4  UNL     1      17.956  14.330  22.969  1.00  0.00    -0.366 N 
ATOM      8  H4  UNL     1      16.985  14.474  23.245  1.00  0.00     0.161 HD
BRANCH   7   9
HETATM    9  C19 UNL     1      18.316  14.684  21.627  1.00  0.00     0.122 C 
BRANCH   9  10
HETATM   10  C18 UNL     1      17.052  14.671  20.770  1.00  0.00     0.020 C 
BRANCH  10  11
HETATM   11  C17 UNL     1      15.930  13.941  21.432  1.00  0.00     0.003 C 
BRANCH  11  12
HETATM   12  C16 UNL     1      14.591  14.593  21.062  1.00  0.00     0.020 C 
BRANCH  12  13
HETATM   13  C15 UNL     1      14.036  15.290  22.257  1.00  0.00     0.122 C 
BRANCH  13  14
HETATM   14  N3  UNL     1      14.390  14.742  23.527  1.00  0.00    -0.367 N 
ATOM     15  H3  UNL     1      14.256  13.736  23.635  1.00  0.00     0.161 HD
BRANCH  14  16
HETATM   16  C14 UNL     1      14.902  15.423  24.646  1.00  0.00     0.167 C 
HETATM   17  S1  UNL     1      15.860  16.732  24.381  1.00  0.00    -0.041 SA
BRANCH  16  18
HETATM   18  N2  UNL     1      14.663  15.051  25.987  1.00  0.00    -0.367 N 
ATOM     19  H2  UNL     1      14.780  14.067  26.231  1.00  0.00     0.161 HD
BRANCH  18  20
HETATM   20  C13 UNL     1      14.270  15.943  27.024  1.00  0.00     0.122 C 
BRANCH  20  21
HETATM   21  C12 UNL     1      15.146  15.999  28.224  1.00  0.00     0.022 C 
BRANCH  21  22
HETATM   22  C11 UNL     1      16.312  16.937  27.919  1.00  0.00     0.044 C 
BRANCH  22  23
HETATM   23  C10 UNL     1      16.758  17.645  29.202  1.00  0.00     0.277 C 
HETATM   24  C9  UNL     1      17.995  18.397  28.870  1.00  0.00     0.252 C 
HETATM   25  N1  UNL     1      18.812  19.333  29.560  1.00  0.00    -0.331 N 
HETATM   26  O3  UNL     1      18.454  18.178  27.720  1.00  0.00    -0.271 OA
HETATM   27  C5  UNL     1      18.973  19.853  30.876  1.00  0.00     0.090 C 
HETATM   28  C7  UNL     1      19.894  20.190  29.118  1.00  0.00     0.190 C 
HETATM   29  C4  UNL     1      18.932  18.873  31.991  1.00  0.00     0.027 C 
HETATM   30  C6  UNL     1      20.427  20.166  30.531  1.00  0.00     0.061 C 
HETATM   31  C3  UNL     1      18.740  17.446  31.610  1.00  0.00     0.034 C 
HETATM   32  C2  UNL     1      17.264  17.195  31.427  1.00  0.00     0.183 C 
HETATM   33  C1  UNL     1      16.684  16.319  32.520  1.00  0.00     0.040 C 
HETATM   34  N7  UNL     1      17.085  16.584  30.137  1.00  0.00    -0.058 N 
ATOM     35  H72 UNL     1      17.887  16.026  29.845  1.00  0.00     0.278 HD
ATOM     36  H71 UNL     1      16.397  15.832  30.144  1.00  0.00     0.278 HD
BRANCH  28  37
HETATM   37  C8  UNL     1      19.486  21.572  28.759  1.00  0.00     0.197 C 
HETATM   38  O1  UNL     1      18.402  21.875  28.242  1.00  0.00    -0.646 OA
HETATM   39  O2  UNL     1      20.412  22.577  29.041  1.00  0.00    -0.646 OA
ENDBRANCH  28  37
ENDBRANCH  22  23
ENDBRANCH  21  22
ENDBRANCH  20  21
ENDBRANCH  18  20
ENDBRANCH  16  18
ENDBRANCH  14  16
ENDBRANCH  13  14
ENDBRANCH  12  13
ENDBRANCH  11  12
ENDBRANCH  10  11
ENDBRANCH   9  10
ENDBRANCH   7   9
ENDBRANCH   5   7
ENDBRANCH   1   5
TORSDOF 15
ENDMDL
