MODEL 1
REMARK VINA RESULT: -7.483749343      0.000      0.000
REMARK  5 active torsions:
REMARK  status: ('A' for Active; 'I' for Inactive)
REMARK       I    between atoms: C1_4  and  N3_6 
REMARK    1  A    between atoms: C3_11  and  N6_12 
REMARK    2  A    between atoms: N7_14  and  C4_16 
REMARK    3  A    between atoms: C5_17  and  S1_18 
REMARK    4  A    between atoms: C6_25  and  O5_26 
REMARK    5  A    between atoms: C7_28  and  N9_29 
ROOT
HETATM    1  N1  UNL     1      32.653  44.607  23.683  1.00  0.00    -0.372 N 
ATOM      2  H11 UNL     1      32.029  45.203  24.225  1.00  0.00     0.158 HD
ATOM      3  H12 UNL     1      33.501  44.238  24.114  1.00  0.00     0.158 HD
HETATM    4  C1  UNL     1      32.331  44.346  22.455  1.00  0.00     0.210 C 
HETATM    5  N2  UNL     1      33.196  43.519  21.704  1.00  0.00    -0.062 NA
HETATM    6  N3  UNL     1      31.151  44.859  21.855  1.00  0.00    -0.188 N 
HETATM    7  N4  UNL     1      31.151  45.862  21.002  1.00  0.00    -0.274 N 
ATOM      8  H4  UNL     1      32.043  46.292  20.759  1.00  0.00     0.189 HD
HETATM    9  C2  UNL     1      30.026  46.350  20.432  1.00  0.00     0.162 A 
HETATM   10  N5  UNL     1      30.114  47.431  19.517  1.00  0.00    -0.079 NA
HETATM   11  C3  UNL     1      28.777  45.832  20.699  1.00  0.00     0.122 A 
HETATM   12  C7  UNL     1      28.772  44.762  21.608  1.00  0.00     0.128 A 
HETATM   13  C8  UNL     1      29.955  44.318  22.150  1.00  0.00     0.297 A 
HETATM   14  O6  UNL     1      29.952  43.346  22.976  1.00  0.00    -0.264 OA
ENDROOT
BRANCH  11  15
HETATM   15  N6  UNL     1      27.577  46.303  20.126  1.00  0.00    -0.295 N 
HETATM   16  N7  UNL     1      26.989  46.012  19.105  1.00  0.00    -0.293 N 
ATOM     17  H7  UNL     1      26.133  46.551  18.981  1.00  0.00     0.187 HD
ATOM     18  H6  UNL     1      27.114  47.027  20.675  1.00  0.00     0.187 HD
BRANCH  16  19
HETATM   19  C4  UNL     1      27.206  45.121  18.067  1.00  0.00     0.151 A 
HETATM   20  C5  UNL     1      26.613  43.860  17.885  1.00  0.00     0.204 A 
HETATM   21  N8  UNL     1      27.112  43.371  16.763  1.00  0.00    -0.243 N 
HETATM   22  O4  UNL     1      27.951  44.209  16.238  1.00  0.00    -0.209 OA
ATOM     23  H8  UNL     1      26.870  42.464  16.365  1.00  0.00     0.196 HD
HETATM   24  C6  UNL     1      28.042  45.286  16.990  1.00  0.00     0.236 A 
BRANCH  20  25
HETATM   25  S1  UNL     1      25.451  43.136  18.963  1.00  0.00     0.159 S 
HETATM   26  O1  UNL     1      25.395  43.847  20.261  1.00  0.00    -0.590 OA
HETATM   27  O2  UNL     1      25.776  41.690  19.229  1.00  0.00    -0.590 OA
HETATM   28  O3  UNL     1      23.923  43.198  18.223  1.00  0.00    -0.590 OA
ENDBRANCH  20  25
BRANCH  24  29
HETATM   29  O5  UNL     1      28.838  46.411  16.761  1.00  0.00    -0.338 OA
ATOM     30  H5  UNL     1      28.630  47.110  16.152  1.00  0.00     0.220 HD
ENDBRANCH  24  29
ENDBRANCH  16  19
ENDBRANCH  11  15
BRANCH  12  31
HETATM   31  N9  UNL     1      27.638  44.238  21.897  1.00  0.00    -0.393 N 
ATOM     32  H92 UNL     1      26.959  44.694  22.507  1.00  0.00     0.156 HD
ATOM     33  H91 UNL     1      27.424  43.328  21.489  1.00  0.00     0.156 HD
ENDBRANCH  12  31
TORSDOF 5
ENDMDL
MODEL 2
REMARK VINA RESULT: -7.454486802      5.123      7.914
REMARK  5 active torsions:
REMARK  status: ('A' for Active; 'I' for Inactive)
REMARK       I    between atoms: C1_4  and  N3_6 
REMARK    1  A    between atoms: C3_11  and  N6_12 
REMARK    2  A    between atoms: N7_14  and  C4_16 
REMARK    3  A    between atoms: C5_17  and  S1_18 
REMARK    4  A    between atoms: C6_25  and  O5_26 
REMARK    5  A    between atoms: C7_28  and  N9_29 
ROOT
HETATM    1  N1  UNL     1      29.146  44.190  21.627  1.00  0.00    -0.372 N 
ATOM      2  H11 UNL     1      29.360  44.927  20.956  1.00  0.00     0.158 HD
ATOM      3  H12 UNL     1      28.186  43.861  21.726  1.00  0.00     0.158 HD
HETATM    4  C1  UNL     1      30.121  43.707  22.330  1.00  0.00     0.210 C 
HETATM    5  N2  UNL     1      29.824  42.685  23.261  1.00  0.00    -0.062 NA
HETATM    6  N3  UNL     1      31.457  44.166  22.192  1.00  0.00    -0.188 N 
HETATM    7  N4  UNL     1      32.038  44.970  23.057  1.00  0.00    -0.274 N 
ATOM      8  H4  UNL     1      31.503  45.279  23.868  1.00  0.00     0.189 HD
HETATM    9  C2  UNL     1      33.311  45.407  22.923  1.00  0.00     0.162 A 
HETATM   10  N5  UNL     1      33.864  46.269  23.905  1.00  0.00    -0.079 NA
HETATM   11  C3  UNL     1      34.111  45.043  21.862  1.00  0.00     0.122 A 
HETATM   12  C7  UNL     1      33.495  44.184  20.937  1.00  0.00     0.128 A 
HETATM   13  C8  UNL     1      32.196  43.780  21.136  1.00  0.00     0.297 A 
HETATM   14  O6  UNL     1      31.636  43.001  20.296  1.00  0.00    -0.264 OA
ENDROOT
BRANCH  11  15
HETATM   15  N6  UNL     1      35.444  45.468  21.682  1.00  0.00    -0.295 N 
HETATM   16  N7  UNL     1      35.928  46.419  21.105  1.00  0.00    -0.293 N 
ATOM     17  H7  UNL     1      36.946  46.434  21.164  1.00  0.00     0.187 HD
ATOM     18  H6  UNL     1      36.133  44.858  22.121  1.00  0.00     0.187 HD
BRANCH  16  19
HETATM   19  C4  UNL     1      35.426  47.489  20.384  1.00  0.00     0.151 A 
HETATM   20  C5  UNL     1      35.195  48.797  20.845  1.00  0.00     0.204 A 
HETATM   21  N8  UNL     1      34.719  49.477  19.816  1.00  0.00    -0.243 N 
HETATM   22  O4  UNL     1      34.636  48.715  18.769  1.00  0.00    -0.209 OA
ATOM     23  H8  UNL     1      34.454  50.461  19.841  1.00  0.00     0.196 HD
HETATM   24  C6  UNL     1      35.054  47.501  19.062  1.00  0.00     0.236 A 
BRANCH  20  25
HETATM   25  S1  UNL     1      35.499  49.355  22.467  1.00  0.00     0.159 S 
HETATM   26  O1  UNL     1      34.248  49.444  23.256  1.00  0.00    -0.590 OA
HETATM   27  O2  UNL     1      36.157  50.708  22.468  1.00  0.00    -0.590 OA
HETATM   28  O3  UNL     1      36.560  48.261  23.219  1.00  0.00    -0.590 OA
ENDBRANCH  20  25
BRANCH  24  29
HETATM   29  O5  UNL     1      35.119  46.401  18.203  1.00  0.00    -0.338 OA
ATOM     30  H5  UNL     1      34.791  46.387  17.311  1.00  0.00     0.220 HD
ENDBRANCH  24  29
ENDBRANCH  16  19
ENDBRANCH  11  15
BRANCH  12  31
HETATM   31  N9  UNL     1      34.190  43.810  19.926  1.00  0.00    -0.393 N 
ATOM     32  H92 UNL     1      34.388  42.830  19.725  1.00  0.00     0.156 HD
ATOM     33  H91 UNL     1      34.550  44.538  19.309  1.00  0.00     0.156 HD
ENDBRANCH  12  31
TORSDOF 5
ENDMDL
MODEL 3
REMARK VINA RESULT: -7.450136710      3.461      5.867
REMARK  5 active torsions:
REMARK  status: ('A' for Active; 'I' for Inactive)
REMARK       I    between atoms: C1_4  and  N3_6 
REMARK    1  A    between atoms: C3_11  and  N6_12 
REMARK    2  A    between atoms: N7_14  and  C4_16 
REMARK    3  A    between atoms: C5_17  and  S1_18 
REMARK    4  A    between atoms: C6_25  and  O5_26 
REMARK    5  A    between atoms: C7_28  and  N9_29 
ROOT
HETATM    1  N1  UNL     1      36.415  49.165  22.826  1.00  0.00    -0.372 N 
ATOM      2  H11 UNL     1      37.020  48.406  22.513  1.00  0.00     0.158 HD
ATOM      3  H12 UNL     1      36.827  50.044  23.138  1.00  0.00     0.158 HD
HETATM    4  C1  UNL     1      35.135  48.967  22.809  1.00  0.00     0.210 C 
HETATM    5  N2  UNL     1      34.296  50.020  23.243  1.00  0.00    -0.062 NA
HETATM    6  N3  UNL     1      34.561  47.744  22.374  1.00  0.00    -0.188 N 
HETATM    7  N4  UNL     1      34.077  46.839  23.199  1.00  0.00    -0.274 N 
ATOM      8  H4  UNL     1      34.114  47.026  24.201  1.00  0.00     0.189 HD
HETATM    9  C2  UNL     1      33.532  45.674  22.783  1.00  0.00     0.162 A 
HETATM   10  N5  UNL     1      33.027  44.754  23.738  1.00  0.00    -0.079 NA
HETATM   11  C3  UNL     1      33.436  45.335  21.450  1.00  0.00     0.122 A 
HETATM   12  C7  UNL     1      33.951  46.298  20.567  1.00  0.00     0.128 A 
HETATM   13  C8  UNL     1      34.492  47.462  21.061  1.00  0.00     0.297 A 
HETATM   14  O6  UNL     1      34.961  48.336  20.259  1.00  0.00    -0.264 OA
ENDROOT
BRANCH  11  15
HETATM   15  N6  UNL     1      32.872  44.136  20.968  1.00  0.00    -0.295 N 
HETATM   16  N7  UNL     1      31.735  43.711  20.964  1.00  0.00    -0.293 N 
ATOM     17  H7  UNL     1      31.665  42.791  20.531  1.00  0.00     0.187 HD
ATOM     18  H6  UNL     1      33.549  43.505  20.540  1.00  0.00     0.187 HD
BRANCH  16  19
HETATM   19  C4  UNL     1      30.510  44.179  21.409  1.00  0.00     0.151 A 
HETATM   20  C5  UNL     1      29.722  45.192  20.835  1.00  0.00     0.204 A 
HETATM   21  N8  UNL     1      28.642  45.297  21.590  1.00  0.00    -0.243 N 
HETATM   22  O4  UNL     1      28.690  44.449  22.570  1.00  0.00    -0.209 OA
ATOM     23  H8  UNL     1      27.878  45.953  21.425  1.00  0.00     0.196 HD
HETATM   24  C6  UNL     1      29.803  43.747  22.504  1.00  0.00     0.236 A 
BRANCH  20  25
HETATM   25  S1  UNL     1      30.139  46.094  19.404  1.00  0.00     0.159 S 
HETATM   26  O1  UNL     1      28.938  46.435  18.607  1.00  0.00    -0.590 OA
HETATM   27  O2  UNL     1      31.087  45.323  18.526  1.00  0.00    -0.590 OA
HETATM   28  O3  UNL     1      30.921  47.525  19.882  1.00  0.00    -0.590 OA
ENDBRANCH  20  25
BRANCH  24  29
HETATM   29  O5  UNL     1      30.217  42.738  23.376  1.00  0.00    -0.338 OA
ATOM     30  H5  UNL     1      30.955  42.158  23.227  1.00  0.00     0.220 HD
ENDBRANCH  24  29
ENDBRANCH  16  19
ENDBRANCH  11  15
BRANCH  12  31
HETATM   31  N9  UNL     1      33.891  46.040  19.312  1.00  0.00    -0.393 N 
ATOM     32  H92 UNL     1      33.016  46.050  18.788  1.00  0.00     0.156 HD
ATOM     33  H91 UNL     1      34.766  45.817  18.837  1.00  0.00     0.156 HD
ENDBRANCH  12  31
TORSDOF 5
ENDMDL
MODEL 4
REMARK VINA RESULT: -7.431599222      5.246      7.922
REMARK  5 active torsions:
REMARK  status: ('A' for Active; 'I' for Inactive)
REMARK       I    between atoms: C1_4  and  N3_6 
REMARK    1  A    between atoms: C3_11  and  N6_12 
REMARK    2  A    between atoms: N7_14  and  C4_16 
REMARK    3  A    between atoms: C5_17  and  S1_18 
REMARK    4  A    between atoms: C6_25  and  O5_26 
REMARK    5  A    between atoms: C7_28  and  N9_29 
ROOT
HETATM    1  N1  UNL     1      29.622  43.161  22.519  1.00  0.00    -0.372 N 
ATOM      2  H11 UNL     1      30.334  42.461  22.725  1.00  0.00     0.158 HD
ATOM      3  H12 UNL     1      28.640  42.951  22.699  1.00  0.00     0.158 HD
HETATM    4  C1  UNL     1      30.010  44.296  22.032  1.00  0.00     0.210 C 
HETATM    5  N2  UNL     1      29.022  45.267  21.747  1.00  0.00    -0.062 NA
HETATM    6  N3  UNL     1      31.377  44.589  21.783  1.00  0.00    -0.188 N 
HETATM    7  N4  UNL     1      31.909  44.582  20.579  1.00  0.00    -0.274 N 
ATOM      8  H4  UNL     1      31.311  44.357  19.785  1.00  0.00     0.189 HD
HETATM    9  C2  UNL     1      33.211  44.859  20.344  1.00  0.00     0.162 A 
HETATM   10  N5  UNL     1      33.705  44.836  19.013  1.00  0.00    -0.079 NA
HETATM   11  C3  UNL     1      34.095  45.176  21.353  1.00  0.00     0.122 A 
HETATM   12  C7  UNL     1      33.531  45.185  22.639  1.00  0.00     0.128 A 
HETATM   13  C8  UNL     1      32.197  44.892  22.804  1.00  0.00     0.297 A 
HETATM   14  O6  UNL     1      31.685  44.899  23.972  1.00  0.00    -0.264 OA
ENDROOT
BRANCH  11  15
HETATM   15  N6  UNL     1      35.459  45.478  21.157  1.00  0.00    -0.295 N 
HETATM   16  N7  UNL     1      36.024  46.459  20.720  1.00  0.00    -0.293 N 
ATOM     17  H7  UNL     1      37.038  46.351  20.710  1.00  0.00     0.187 HD
ATOM     18  H6  UNL     1      36.091  44.727  21.435  1.00  0.00     0.187 HD
BRANCH  16  19
HETATM   19  C4  UNL     1      35.620  47.690  20.233  1.00  0.00     0.151 A 
HETATM   20  C5  UNL     1      35.404  48.870  20.964  1.00  0.00     0.204 A 
HETATM   21  N8  UNL     1      35.033  49.789  20.089  1.00  0.00    -0.243 N 
HETATM   22  O4  UNL     1      35.002  49.289  18.893  1.00  0.00    -0.209 OA
ATOM     23  H8  UNL     1      34.805  50.756  20.321  1.00  0.00     0.196 HD
HETATM   24  C6  UNL     1      35.350  48.019  18.927  1.00  0.00     0.236 A 
BRANCH  20  25
HETATM   25  S1  UNL     1      35.604  49.030  22.687  1.00  0.00     0.159 S 
HETATM   26  O1  UNL     1      36.780  48.270  23.171  1.00  0.00    -0.590 OA
HETATM   27  O2  UNL     1      34.388  48.544  23.429  1.00  0.00    -0.590 OA
HETATM   28  O3  UNL     1      35.812  50.677  23.051  1.00  0.00    -0.590 OA
ENDBRANCH  20  25
BRANCH  24  29
HETATM   29  O5  UNL     1      35.439  47.139  17.845  1.00  0.00    -0.338 OA
ATOM     30  H5  UNL     1      36.002  47.261  17.089  1.00  0.00     0.220 HD
ENDBRANCH  24  29
ENDBRANCH  16  19
ENDBRANCH  11  15
BRANCH  12  31
HETATM   31  N9  UNL     1      34.304  45.472  23.620  1.00  0.00    -0.393 N 
ATOM     32  H92 UNL     1      34.491  46.430  23.914  1.00  0.00     0.156 HD
ATOM     33  H91 UNL     1      34.742  44.695  24.116  1.00  0.00     0.156 HD
ENDBRANCH  12  31
TORSDOF 5
ENDMDL
MODEL 5
REMARK VINA RESULT: -7.352193176      3.939      7.309
REMARK  5 active torsions:
REMARK  status: ('A' for Active; 'I' for Inactive)
REMARK       I    between atoms: C1_4  and  N3_6 
REMARK    1  A    between atoms: C3_11  and  N6_12 
REMARK    2  A    between atoms: N7_14  and  C4_16 
REMARK    3  A    between atoms: C5_17  and  S1_18 
REMARK    4  A    between atoms: C6_25  and  O5_26 
REMARK    5  A    between atoms: C7_28  and  N9_29 
ROOT
HETATM    1  N1  UNL     1      26.918  44.489  21.711  1.00  0.00    -0.372 N 
ATOM      2  H11 UNL     1      27.551  44.635  22.497  1.00  0.00     0.158 HD
ATOM      3  H12 UNL     1      25.926  44.327  21.884  1.00  0.00     0.158 HD
HETATM    4  C1  UNL     1      27.418  44.518  20.516  1.00  0.00     0.210 C 
HETATM    5  N2  UNL     1      26.540  44.315  19.426  1.00  0.00    -0.062 NA
HETATM    6  N3  UNL     1      28.799  44.743  20.275  1.00  0.00    -0.188 N 
HETATM    7  N4  UNL     1      29.641  43.786  19.948  1.00  0.00    -0.274 N 
ATOM      8  H4  UNL     1      29.285  42.835  19.861  1.00  0.00     0.189 HD
HETATM    9  C2  UNL     1      30.956  44.003  19.720  1.00  0.00     0.162 A 
HETATM   10  N5  UNL     1      31.796  42.915  19.365  1.00  0.00    -0.079 NA
HETATM   11  C3  UNL     1      31.527  45.254  19.811  1.00  0.00     0.122 A 
HETATM   12  C7  UNL     1      30.631  46.278  20.160  1.00  0.00     0.128 A 
HETATM   13  C8  UNL     1      29.306  45.985  20.378  1.00  0.00     0.297 A 
HETATM   14  O6  UNL     1      28.492  46.914  20.696  1.00  0.00    -0.264 OA
ENDROOT
BRANCH  11  15
HETATM   15  N6  UNL     1      32.890  45.530  19.578  1.00  0.00    -0.295 N 
HETATM   16  N7  UNL     1      33.880  45.401  20.267  1.00  0.00    -0.293 N 
ATOM     17  H7  UNL     1      34.729  45.702  19.790  1.00  0.00     0.187 HD
ATOM     18  H6  UNL     1      33.080  45.913  18.652  1.00  0.00     0.187 HD
BRANCH  16  19
HETATM   19  C4  UNL     1      34.131  44.940  21.549  1.00  0.00     0.151 A 
HETATM   20  C5  UNL     1      34.417  45.706  22.692  1.00  0.00     0.204 A 
HETATM   21  N8  UNL     1      34.580  44.849  23.685  1.00  0.00    -0.243 N 
HETATM   22  O4  UNL     1      34.422  43.632  23.263  1.00  0.00    -0.209 OA
ATOM     23  H8  UNL     1      34.799  45.107  24.647  1.00  0.00     0.196 HD
HETATM   24  C6  UNL     1      34.147  43.635  21.975  1.00  0.00     0.236 A 
BRANCH  20  25
HETATM   25  S1  UNL     1      34.519  47.445  22.731  1.00  0.00     0.159 S 
HETATM   26  O1  UNL     1      35.918  47.911  22.589  1.00  0.00    -0.590 OA
HETATM   27  O2  UNL     1      33.963  47.999  24.016  1.00  0.00    -0.590 OA
HETATM   28  O3  UNL     1      33.588  48.065  21.452  1.00  0.00    -0.590 OA
ENDBRANCH  20  25
BRANCH  24  29
HETATM   29  O5  UNL     1      33.910  42.524  21.161  1.00  0.00    -0.338 OA
ATOM     30  H5  UNL     1      33.609  41.677  21.470  1.00  0.00     0.220 HD
ENDBRANCH  24  29
ENDBRANCH  16  19
ENDBRANCH  11  15
BRANCH  12  31
HETATM   31  N9  UNL     1      31.104  47.466  20.262  1.00  0.00    -0.393 N 
ATOM     32  H92 UNL     1      31.373  47.878  21.155  1.00  0.00     0.156 HD
ATOM     33  H91 UNL     1      31.208  48.005  19.402  1.00  0.00     0.156 HD
ENDBRANCH  12  31
TORSDOF 5
ENDMDL
