MODEL 1
REMARK VINA RESULT: -7.015769297      0.000      0.000
REMARK  8 active torsions:
REMARK  status: ('A' for Active; 'I' for Inactive)
REMARK    1  A    between atoms: C2_3  and  N2_4 
REMARK    2  A    between atoms: C3_5  and  N3_6 
REMARK    3  A    between atoms: N3_6  and  N4_8 
REMARK    4  A    between atoms: N4_8  and  C4_10 
REMARK    5  A    between atoms: C4_10  and  N5_11 
REMARK    6  A    between atoms: C5_14  and  C6_15 
REMARK       I    between atoms: C6_15  and  N6_17 
REMARK    7  A    between atoms: N6_17  and  N7_19 
REMARK    8  A    between atoms: C11_29  and  O3_30 
ROOT
HETATM    1  N2  UNL     1      27.051  42.658  17.549  1.00  0.00    -0.216 N 
HETATM    2  C3  UNL     1      26.092  41.687  17.714  1.00  0.00     0.166 A 
HETATM    3  C5  UNL     1      25.936  41.013  16.527  1.00  0.00     0.150 A 
HETATM    4  C7  UNL     1      26.855  41.642  15.668  1.00  0.00     0.281 A 
HETATM    5  O2  UNL     1      27.057  41.342  14.457  1.00  0.00    -0.265 OA
HETATM    6  N8  UNL     1      27.497  42.620  16.330  1.00  0.00    -0.251 N 
HETATM    7  C8  UNL     1      28.516  43.452  15.699  1.00  0.00     0.182 C 
ENDROOT
BRANCH   1   8
HETATM    8  C2  UNL     1      27.460  43.553  18.557  1.00  0.00     0.136 A 
HETATM    9  N1  UNL     1      26.823  44.732  18.648  1.00  0.00    -0.301 N 
HETATM   10  C1  UNL     1      25.731  45.135  17.752  1.00  0.00     0.161 C 
HETATM   11  C12 UNL     1      27.185  45.608  19.603  1.00  0.00     0.284 A 
HETATM   12  C11 UNL     1      28.198  45.339  20.504  1.00  0.00     0.159 A 
HETATM   13  O4  UNL     1      26.584  46.729  19.693  1.00  0.00    -0.265 OA
HETATM   14  C10 UNL     1      28.876  44.125  20.434  1.00  0.00     0.088 A 
HETATM   15  C9  UNL     1      28.487  43.250  19.452  1.00  0.00     0.080 A 
HETATM   16  N9  UNL     1      29.926  43.779  21.329  1.00  0.00    -0.099 NA
BRANCH  12  17
HETATM   17  O3  UNL     1      28.583  46.223  21.486  1.00  0.00    -0.354 OA
ATOM     18  H3  UNL     1      29.508  46.421  21.558  1.00  0.00     0.218 HD
ENDBRANCH  12  17
ENDBRANCH   1   8
BRANCH   2  19
HETATM   19  N3  UNL     1      25.409  41.479  18.958  1.00  0.00    -0.275 N 
ATOM     20  H3  UNL     1      25.966  41.088  19.718  1.00  0.00     0.189 HD
BRANCH  19  21
HETATM   21  N4  UNL     1      24.112  41.742  19.240  1.00  0.00    -0.249 N 
ATOM     22  H4  UNL     1      23.818  42.710  19.374  1.00  0.00     0.198 HD
BRANCH  21  23
HETATM   23  C4  UNL     1      23.242  40.801  19.342  1.00  0.00     0.060 C 
BRANCH  23  24
HETATM   24  N5  UNL     1      22.258  40.042  19.062  1.00  0.00    -0.351 N 
ATOM     25  H52 UNL     1      22.066  40.434  18.141  1.00  0.00     0.167 HD
ATOM     26  H51 UNL     1      21.552  39.312  19.155  1.00  0.00     0.167 HD
ENDBRANCH  23  24
ENDBRANCH  21  23
ENDBRANCH  19  21
ENDBRANCH   2  19
BRANCH   3  27
HETATM   27  C6  UNL     1      25.045  39.957  16.125  1.00  0.00     0.279 C 
HETATM   28  O1  UNL     1      23.887  39.872  16.572  1.00  0.00    -0.266 OA
HETATM   29  N6  UNL     1      25.417  38.961  15.211  1.00  0.00    -0.272 N 
ATOM     30  H6  UNL     1      26.353  38.965  14.805  1.00  0.00     0.189 HD
BRANCH  29  31
HETATM   31  N7  UNL     1      24.479  37.935  14.846  1.00  0.00    -0.342 N 
ATOM     32  H72 UNL     1      24.757  36.957  14.930  1.00  0.00     0.176 HD
ATOM     33  H71 UNL     1      23.551  38.189  14.509  1.00  0.00     0.176 HD
ENDBRANCH  29  31
ENDBRANCH   3  27
TORSDOF 8
ENDMDL
MODEL 2
REMARK VINA RESULT: -6.871241691      2.407      3.364
REMARK  8 active torsions:
REMARK  status: ('A' for Active; 'I' for Inactive)
REMARK    1  A    between atoms: C2_3  and  N2_4 
REMARK    2  A    between atoms: C3_5  and  N3_6 
REMARK    3  A    between atoms: N3_6  and  N4_8 
REMARK    4  A    between atoms: N4_8  and  C4_10 
REMARK    5  A    between atoms: C4_10  and  N5_11 
REMARK    6  A    between atoms: C5_14  and  C6_15 
REMARK       I    between atoms: C6_15  and  N6_17 
REMARK    7  A    between atoms: N6_17  and  N7_19 
REMARK    8  A    between atoms: C11_29  and  O3_30 
ROOT
HETATM    1  N2  UNL     1      27.985  44.195  18.545  1.00  0.00    -0.216 N 
HETATM    2  C3  UNL     1      26.941  43.668  19.269  1.00  0.00     0.166 A 
HETATM    3  C5  UNL     1      26.163  42.905  18.431  1.00  0.00     0.150 A 
HETATM    4  C7  UNL     1      26.811  43.016  17.188  1.00  0.00     0.281 A 
HETATM    5  O2  UNL     1      26.440  42.467  16.111  1.00  0.00    -0.265 OA
HETATM    6  N8  UNL     1      27.896  43.799  17.312  1.00  0.00    -0.251 N 
HETATM    7  C8  UNL     1      28.775  44.099  16.186  1.00  0.00     0.182 C 
ENDROOT
BRANCH   1   8
HETATM    8  C2  UNL     1      28.976  45.041  19.079  1.00  0.00     0.136 A 
HETATM    9  N1  UNL     1      28.781  46.367  18.999  1.00  0.00    -0.301 N 
HETATM   10  C1  UNL     1      27.595  46.976  18.383  1.00  0.00     0.161 C 
HETATM   11  C12 UNL     1      29.706  47.204  19.503  1.00  0.00     0.284 A 
HETATM   12  C11 UNL     1      30.863  46.748  20.107  1.00  0.00     0.159 A 
HETATM   13  O4  UNL     1      29.526  48.464  19.429  1.00  0.00    -0.265 OA
HETATM   14  C10 UNL     1      31.092  45.378  20.205  1.00  0.00     0.088 A 
HETATM   15  C9  UNL     1      30.133  44.547  19.683  1.00  0.00     0.080 A 
HETATM   16  N9  UNL     1      32.257  44.836  20.816  1.00  0.00    -0.099 NA
BRANCH  12  17
HETATM   17  O3  UNL     1      31.819  47.588  20.628  1.00  0.00    -0.354 OA
ATOM     18  H3  UNL     1      31.811  48.492  20.338  1.00  0.00     0.218 HD
ENDBRANCH  12  17
ENDBRANCH   1   8
BRANCH   2  19
HETATM   19  N3  UNL     1      26.764  43.924  20.668  1.00  0.00    -0.275 N 
ATOM     20  H3  UNL     1      27.499  43.581  21.286  1.00  0.00     0.189 HD
BRANCH  19  21
HETATM   21  N4  UNL     1      25.734  44.570  21.263  1.00  0.00    -0.249 N 
ATOM     22  H4  UNL     1      25.343  44.193  22.127  1.00  0.00     0.198 HD
BRANCH  21  23
HETATM   23  C4  UNL     1      25.237  45.646  20.764  1.00  0.00     0.060 C 
BRANCH  23  24
HETATM   24  N5  UNL     1      24.818  46.845  20.679  1.00  0.00    -0.351 N 
ATOM     25  H52 UNL     1      24.361  46.746  19.773  1.00  0.00     0.167 HD
ATOM     26  H51 UNL     1      24.644  47.821  20.920  1.00  0.00     0.167 HD
ENDBRANCH  23  24
ENDBRANCH  21  23
ENDBRANCH  19  21
ENDBRANCH   2  19
BRANCH   3  27
HETATM   27  C6  UNL     1      24.938  42.182  18.643  1.00  0.00     0.279 C 
HETATM   28  O1  UNL     1      24.543  41.884  19.785  1.00  0.00    -0.266 OA
HETATM   29  N6  UNL     1      24.112  41.767  17.589  1.00  0.00    -0.272 N 
ATOM     30  H6  UNL     1      24.374  41.973  16.624  1.00  0.00     0.189 HD
BRANCH  29  31
HETATM   31  N7  UNL     1      22.896  41.052  17.867  1.00  0.00    -0.342 N 
ATOM     32  H72 UNL     1      22.018  41.399  17.480  1.00  0.00     0.176 HD
ATOM     33  H71 UNL     1      22.920  40.211  18.443  1.00  0.00     0.176 HD
ENDBRANCH  29  31
ENDBRANCH   3  27
TORSDOF 8
ENDMDL
MODEL 3
REMARK VINA RESULT: -6.850431971      4.361      7.298
REMARK  8 active torsions:
REMARK  status: ('A' for Active; 'I' for Inactive)
REMARK    1  A    between atoms: C2_3  and  N2_4 
REMARK    2  A    between atoms: C3_5  and  N3_6 
REMARK    3  A    between atoms: N3_6  and  N4_8 
REMARK    4  A    between atoms: N4_8  and  C4_10 
REMARK    5  A    between atoms: C4_10  and  N5_11 
REMARK    6  A    between atoms: C5_14  and  C6_15 
REMARK       I    between atoms: C6_15  and  N6_17 
REMARK    7  A    between atoms: N6_17  and  N7_19 
REMARK    8  A    between atoms: C11_29  and  O3_30 
ROOT
HETATM    1  N2  UNL     1      31.641  43.971  20.705  1.00  0.00    -0.216 N 
HETATM    2  C3  UNL     1      30.479  43.930  19.970  1.00  0.00     0.166 A 
HETATM    3  C5  UNL     1      29.410  44.034  20.828  1.00  0.00     0.150 A 
HETATM    4  C7  UNL     1      30.013  44.139  22.094  1.00  0.00     0.281 A 
HETATM    5  O2  UNL     1      29.401  44.257  23.194  1.00  0.00    -0.265 OA
HETATM    6  N8  UNL     1      31.349  44.097  21.964  1.00  0.00    -0.251 N 
HETATM    7  C8  UNL     1      32.249  44.186  23.110  1.00  0.00     0.182 C 
ENDROOT
BRANCH   1   8
HETATM    8  C2  UNL     1      32.933  43.877  20.155  1.00  0.00     0.136 A 
HETATM    9  N1  UNL     1      33.559  45.016  19.817  1.00  0.00    -0.301 N 
HETATM   10  C1  UNL     1      32.964  46.348  19.987  1.00  0.00     0.161 C 
HETATM   11  C12 UNL     1      34.797  44.962  19.293  1.00  0.00     0.284 A 
HETATM   12  C11 UNL     1      35.459  43.766  19.088  1.00  0.00     0.159 A 
HETATM   13  O4  UNL     1      35.395  46.041  18.971  1.00  0.00    -0.265 OA
HETATM   14  C10 UNL     1      34.836  42.568  19.429  1.00  0.00     0.088 A 
HETATM   15  C9  UNL     1      33.574  42.652  19.960  1.00  0.00     0.080 A 
HETATM   16  N9  UNL     1      35.457  41.301  19.248  1.00  0.00    -0.099 NA
BRANCH  12  17
HETATM   17  O3  UNL     1      36.724  43.691  18.554  1.00  0.00    -0.354 OA
ATOM     18  H3  UNL     1      36.948  44.311  17.871  1.00  0.00     0.218 HD
ENDBRANCH  12  17
ENDBRANCH   1   8
BRANCH   2  19
HETATM   19  N3  UNL     1      30.472  43.796  18.543  1.00  0.00    -0.275 N 
ATOM     20  H3  UNL     1      30.569  42.849  18.178  1.00  0.00     0.189 HD
BRANCH  19  21
HETATM   21  N4  UNL     1      30.351  44.782  17.624  1.00  0.00    -0.249 N 
ATOM     22  H4  UNL     1      31.191  45.243  17.275  1.00  0.00     0.198 HD
BRANCH  21  23
HETATM   23  C4  UNL     1      29.201  45.150  17.180  1.00  0.00     0.060 C 
BRANCH  23  24
HETATM   24  N5  UNL     1      27.939  45.296  17.098  1.00  0.00    -0.351 N 
ATOM     25  H52 UNL     1      27.756  44.440  16.574  1.00  0.00     0.167 HD
ATOM     26  H51 UNL     1      27.009  45.701  17.211  1.00  0.00     0.167 HD
ENDBRANCH  23  24
ENDBRANCH  21  23
ENDBRANCH  19  21
ENDBRANCH   2  19
BRANCH   3  27
HETATM   27  C6  UNL     1      27.989  43.993  20.609  1.00  0.00     0.279 C 
HETATM   28  O1  UNL     1      27.497  43.456  19.599  1.00  0.00    -0.266 OA
HETATM   29  N6  UNL     1      27.068  44.548  21.509  1.00  0.00    -0.272 N 
ATOM     30  H6  UNL     1      27.399  45.007  22.358  1.00  0.00     0.189 HD
BRANCH  29  31
HETATM   31  N7  UNL     1      25.659  44.469  21.236  1.00  0.00    -0.342 N 
ATOM     32  H72 UNL     1      25.019  44.245  21.998  1.00  0.00     0.176 HD
ATOM     33  H71 UNL     1      25.313  44.636  20.292  1.00  0.00     0.176 HD
ENDBRANCH  29  31
ENDBRANCH   3  27
TORSDOF 8
ENDMDL
MODEL 4
REMARK VINA RESULT: -6.824721824      7.625      9.629
REMARK  8 active torsions:
REMARK  status: ('A' for Active; 'I' for Inactive)
REMARK    1  A    between atoms: C2_3  and  N2_4 
REMARK    2  A    between atoms: C3_5  and  N3_6 
REMARK    3  A    between atoms: N3_6  and  N4_8 
REMARK    4  A    between atoms: N4_8  and  C4_10 
REMARK    5  A    between atoms: C4_10  and  N5_11 
REMARK    6  A    between atoms: C5_14  and  C6_15 
REMARK       I    between atoms: C6_15  and  N6_17 
REMARK    7  A    between atoms: N6_17  and  N7_19 
REMARK    8  A    between atoms: C11_29  and  O3_30 
ROOT
HETATM    1  N2  UNL     1      34.371  46.055  20.005  1.00  0.00    -0.216 N 
HETATM    2  C3  UNL     1      35.040  44.854  19.975  1.00  0.00     0.166 A 
HETATM    3  C5  UNL     1      34.333  43.974  19.190  1.00  0.00     0.150 A 
HETATM    4  C7  UNL     1      33.224  44.728  18.767  1.00  0.00     0.281 A 
HETATM    5  O2  UNL     1      32.296  44.315  18.015  1.00  0.00    -0.265 OA
HETATM    6  N8  UNL     1      33.296  45.967  19.283  1.00  0.00    -0.251 N 
HETATM    7  C8  UNL     1      32.282  46.982  19.017  1.00  0.00     0.182 C 
ENDROOT
BRANCH   1   8
HETATM    8  C2  UNL     1      34.799  47.186  20.726  1.00  0.00     0.136 A 
HETATM    9  N1  UNL     1      34.367  47.328  21.989  1.00  0.00    -0.301 N 
HETATM   10  C1  UNL     1      33.473  46.371  22.653  1.00  0.00     0.161 C 
HETATM   11  C12 UNL     1      34.761  48.396  22.708  1.00  0.00     0.284 A 
HETATM   12  C11 UNL     1      35.603  49.363  22.191  1.00  0.00     0.159 A 
HETATM   13  O4  UNL     1      34.353  48.535  23.908  1.00  0.00    -0.265 OA
HETATM   14  C10 UNL     1      36.067  49.242  20.884  1.00  0.00     0.088 A 
HETATM   15  C9  UNL     1      35.650  48.145  20.174  1.00  0.00     0.080 A 
HETATM   16  N9  UNL     1      36.937  50.196  20.287  1.00  0.00    -0.099 NA
BRANCH  12  17
HETATM   17  O3  UNL     1      36.015  50.460  22.910  1.00  0.00    -0.354 OA
ATOM     18  H3  UNL     1      35.342  51.023  23.273  1.00  0.00     0.218 HD
ENDBRANCH  12  17
ENDBRANCH   1   8
BRANCH   2  19
HETATM   19  N3  UNL     1      36.269  44.637  20.680  1.00  0.00    -0.275 N 
ATOM     20  H3  UNL     1      37.041  45.262  20.445  1.00  0.00     0.189 HD
BRANCH  19  21
HETATM   21  N4  UNL     1      36.525  43.698  21.620  1.00  0.00    -0.249 N 
ATOM     22  H4  UNL     1      37.435  43.236  21.629  1.00  0.00     0.198 HD
BRANCH  21  23
HETATM   23  C4  UNL     1      35.647  43.375  22.503  1.00  0.00     0.060 C 
BRANCH  23  24
HETATM   24  N5  UNL     1      34.671  42.775  23.060  1.00  0.00    -0.351 N 
ATOM     25  H52 UNL     1      34.725  41.922  22.504  1.00  0.00     0.167 HD
ATOM     26  H51 UNL     1      33.887  42.594  23.686  1.00  0.00     0.167 HD
ENDBRANCH  23  24
ENDBRANCH  21  23
ENDBRANCH  19  21
ENDBRANCH   2  19
BRANCH   3  27
HETATM   27  C6  UNL     1      34.543  42.589  18.864  1.00  0.00     0.279 C 
HETATM   28  O1  UNL     1      35.592  41.994  19.173  1.00  0.00    -0.266 OA
HETATM   29  N6  UNL     1      33.588  41.819  18.183  1.00  0.00    -0.272 N 
ATOM     30  H6  UNL     1      32.705  42.240  17.896  1.00  0.00     0.189 HD
BRANCH  29  31
HETATM   31  N7  UNL     1      33.855  40.437  17.891  1.00  0.00    -0.342 N 
ATOM     32  H72 UNL     1      33.665  40.084  16.953  1.00  0.00     0.176 HD
ATOM     33  H71 UNL     1      34.228  39.826  18.617  1.00  0.00     0.176 HD
ENDBRANCH  29  31
ENDBRANCH   3  27
TORSDOF 8
ENDMDL
MODEL 5
REMARK VINA RESULT: -6.793677809      1.229      3.567
REMARK  8 active torsions:
REMARK  status: ('A' for Active; 'I' for Inactive)
REMARK    1  A    between atoms: C2_3  and  N2_4 
REMARK    2  A    between atoms: C3_5  and  N3_6 
REMARK    3  A    between atoms: N3_6  and  N4_8 
REMARK    4  A    between atoms: N4_8  and  C4_10 
REMARK    5  A    between atoms: C4_10  and  N5_11 
REMARK    6  A    between atoms: C5_14  and  C6_15 
REMARK       I    between atoms: C6_15  and  N6_17 
REMARK    7  A    between atoms: N6_17  and  N7_19 
REMARK    8  A    between atoms: C11_29  and  O3_30 
ROOT
HETATM    1  N2  UNL     1      26.273  42.350  18.092  1.00  0.00    -0.216 N 
HETATM    2  C3  UNL     1      26.682  42.211  16.786  1.00  0.00     0.166 A 
HETATM    3  C5  UNL     1      25.860  41.306  16.159  1.00  0.00     0.150 A 
HETATM    4  C7  UNL     1      24.954  40.930  17.167  1.00  0.00     0.281 A 
HETATM    5  O2  UNL     1      24.005  40.105  17.035  1.00  0.00    -0.265 OA
HETATM    6  N8  UNL     1      25.245  41.585  18.304  1.00  0.00    -0.251 N 
HETATM    7  C8  UNL     1      24.474  41.402  19.529  1.00  0.00     0.182 C 
ENDROOT
BRANCH   1   8
HETATM    8  C2  UNL     1      26.896  43.187  19.036  1.00  0.00     0.136 A 
HETATM    9  N1  UNL     1      26.489  44.464  19.111  1.00  0.00    -0.301 N 
HETATM   10  C1  UNL     1      25.435  45.030  18.259  1.00  0.00     0.161 C 
HETATM   11  C12 UNL     1      27.060  45.291  20.006  1.00  0.00     0.284 A 
HETATM   12  C11 UNL     1      28.061  44.871  20.863  1.00  0.00     0.159 A 
HETATM   13  O4  UNL     1      26.677  46.504  20.081  1.00  0.00    -0.265 OA
HETATM   14  C10 UNL     1      28.504  43.552  20.809  1.00  0.00     0.088 A 
HETATM   15  C9  UNL     1      27.905  42.732  19.887  1.00  0.00     0.080 A 
HETATM   16  N9  UNL     1      29.527  43.050  21.660  1.00  0.00    -0.099 NA
BRANCH  12  17
HETATM   17  O3  UNL     1      28.657  45.701  21.784  1.00  0.00    -0.354 OA
ATOM     18  H3  UNL     1      28.628  46.635  21.614  1.00  0.00     0.218 HD
ENDBRANCH  12  17
ENDBRANCH   1   8
BRANCH   2  19
HETATM   19  N3  UNL     1      27.799  42.930  16.247  1.00  0.00    -0.275 N 
ATOM     20  H3  UNL     1      27.943  43.874  16.604  1.00  0.00     0.189 HD
BRANCH  19  21
HETATM   21  N4  UNL     1      28.685  42.500  15.318  1.00  0.00    -0.249 N 
ATOM     22  H4  UNL     1      28.882  41.501  15.242  1.00  0.00     0.198 HD
BRANCH  21  23
HETATM   23  C4  UNL     1      29.283  43.321  14.529  1.00  0.00     0.060 C 
BRANCH  23  24
HETATM   24  N5  UNL     1      29.605  44.409  13.951  1.00  0.00    -0.351 N 
ATOM     25  H52 UNL     1      30.508  44.523  14.410  1.00  0.00     0.167 HD
ATOM     26  H51 UNL     1      29.551  45.224  13.341  1.00  0.00     0.167 HD
ENDBRANCH  23  24
ENDBRANCH  21  23
ENDBRANCH  19  21
ENDBRANCH   2  19
BRANCH   3  27
HETATM   27  C6  UNL     1      25.866  40.755  14.830  1.00  0.00     0.279 C 
HETATM   28  O1  UNL     1      26.389  41.357  13.874  1.00  0.00    -0.266 OA
HETATM   29  N6  UNL     1      25.290  39.514  14.522  1.00  0.00    -0.272 N 
ATOM     30  H6  UNL     1      24.840  38.965  15.255  1.00  0.00     0.189 HD
BRANCH  29  31
HETATM   31  N7  UNL     1      25.334  39.016  13.174  1.00  0.00    -0.342 N 
ATOM     32  H72 UNL     1      26.240  38.883  12.725  1.00  0.00     0.176 HD
ATOM     33  H71 UNL     1      24.468  38.801  12.682  1.00  0.00     0.176 HD
ENDBRANCH  29  31
ENDBRANCH   3  27
TORSDOF 8
ENDMDL
