MODEL 1
REMARK VINA RESULT: -9.299155443      0.000      0.000
REMARK  8 active torsions:
REMARK  status: ('A' for Active; 'I' for Inactive)
REMARK    1  A    between atoms: N1_1  and  C1_4 
REMARK    2  A    between atoms: N5_11  and  C2_12 
REMARK    3  A    between atoms: C2_12  and  C3_13 
REMARK    4  A    between atoms: C3_13  and  C4_14 
REMARK    5  A    between atoms: C5_17  and  C6_18 
REMARK    6  A    between atoms: N7_19  and  N8_21 
REMARK    7  A    between atoms: N8_21  and  C7_23 
REMARK    8  A    between atoms: C10_32  and  O1_33 
ROOT
HETATM    1  C4  UNL     1      25.187  42.701  17.183  1.00  0.00     0.110 A 
HETATM    2  N6  UNL     1      25.709  41.679  16.484  1.00  0.00    -0.346 N 
ATOM      3  H6  UNL     1      26.602  41.768  15.999  1.00  0.00     0.166 HD
HETATM    4  C5  UNL     1      24.998  40.525  16.450  1.00  0.00     0.109 A 
HETATM    5  C10 UNL     1      23.790  40.411  17.109  1.00  0.00     0.215 A 
HETATM    6  O2  UNL     1      23.296  41.424  17.789  1.00  0.00    -0.248 OA
HETATM    7  C11 UNL     1      23.979  42.558  17.831  1.00  0.00     0.317 A 
HETATM    8  O3  UNL     1      23.533  43.556  18.477  1.00  0.00    -0.257 OA
ENDROOT
BRANCH   4   9
HETATM    9  C6  UNL     1      25.502  39.368  15.709  1.00  0.00     0.142 C 
HETATM   10  N7  UNL     1      24.848  38.892  14.705  1.00  0.00    -0.295 N 
ATOM     11  H7  UNL     1      23.971  39.340  14.440  1.00  0.00     0.186 HD
BRANCH  10  12
HETATM   12  N8  UNL     1      25.279  37.807  13.975  1.00  0.00    -0.131 N 
ATOM     13  H8  UNL     1      25.880  37.127  14.442  1.00  0.00     0.205 HD
BRANCH  12  14
HETATM   14  C7  UNL     1      24.940  37.568  12.608  1.00  0.00     0.707 C 
HETATM   15  N9  UNL     1      23.757  37.738  12.129  1.00  0.00    -0.135 N 
HETATM   16  N10 UNL     1      23.491  37.485  10.784  1.00  0.00    -0.321 N 
ATOM     17  H9  UNL     1      23.006  38.060  12.741  1.00  0.00     0.205 HD
HETATM   18  C8  UNL     1      24.516  37.628   9.773  1.00  0.00     0.160 C 
ATOM     19  H10 UNL     1      22.553  37.194  10.508  1.00  0.00     0.180 HD
HETATM   20  C9  UNL     1      25.904  37.493  10.322  1.00  0.00     0.159 C 
HETATM   21  N11 UNL     1      25.949  37.118  11.718  1.00  0.00    -0.222 N 
ATOM     22  H11 UNL     1      26.706  36.530  12.063  1.00  0.00     0.177 HD
ENDBRANCH  12  14
ENDBRANCH  10  12
ENDBRANCH   4   9
BRANCH   5  23
HETATM   23  O1  UNL     1      23.110  39.188  17.029  1.00  0.00    -0.339 OA
ATOM     24  H1  UNL     1      22.227  39.145  17.377  1.00  0.00     0.220 HD
ENDBRANCH   5  23
BRANCH   1  25
HETATM   25  C3  UNL     1      25.895  43.995  17.274  1.00  0.00     0.056 C 
BRANCH  25  26
HETATM   26  C2  UNL     1      26.788  44.216  18.222  1.00  0.00     0.139 C 
BRANCH  26  27
HETATM   27  N5  UNL     1      26.374  44.487  19.551  1.00  0.00    -0.081 N 
HETATM   28  C1  UNL     1      26.974  43.989  20.653  1.00  0.00     0.713 A 
HETATM   29  N2  UNL     1      26.290  44.474  21.712  1.00  0.00    -0.115 N 
HETATM   30  N3  UNL     1      25.314  45.235  21.287  1.00  0.00    -0.213 N 
ATOM     31  H2  UNL     1      26.501  44.277  22.689  1.00  0.00     0.207 HD
HETATM   32  N4  UNL     1      25.378  45.233  19.957  1.00  0.00    -0.207 N 
ATOM     33  H3  UNL     1      24.636  45.734  21.862  1.00  0.00     0.210 HD
ATOM     34  H4  UNL     1      24.742  45.740  19.342  1.00  0.00     0.211 HD
BRANCH  28  35
HETATM   35  N1  UNL     1      27.998  43.205  20.692  1.00  0.00    -0.231 N 
ATOM     36  H12 UNL     1      28.289  42.539  19.975  1.00  0.00     0.174 HD
ATOM     37  H11 UNL     1      28.679  43.130  21.447  1.00  0.00     0.174 HD
ENDBRANCH  28  35
ENDBRANCH  26  27
ENDBRANCH  25  26
ENDBRANCH   1  25
TORSDOF 8
ENDMDL
MODEL 2
REMARK VINA RESULT: -9.187016493      1.734      8.917
REMARK  8 active torsions:
REMARK  status: ('A' for Active; 'I' for Inactive)
REMARK    1  A    between atoms: N1_1  and  C1_4 
REMARK    2  A    between atoms: N5_11  and  C2_12 
REMARK    3  A    between atoms: C2_12  and  C3_13 
REMARK    4  A    between atoms: C3_13  and  C4_14 
REMARK    5  A    between atoms: C5_17  and  C6_18 
REMARK    6  A    between atoms: N7_19  and  N8_21 
REMARK    7  A    between atoms: N8_21  and  C7_23 
REMARK    8  A    between atoms: C10_32  and  O1_33 
ROOT
HETATM    1  C4  UNL     1      23.958  38.380  16.079  1.00  0.00     0.110 A 
HETATM    2  N6  UNL     1      24.232  39.679  16.285  1.00  0.00    -0.346 N 
ATOM      3  H6  UNL     1      24.888  40.185  15.689  1.00  0.00     0.166 HD
HETATM    4  C5  UNL     1      23.601  40.288  17.319  1.00  0.00     0.109 A 
HETATM    5  C10 UNL     1      22.715  39.598  18.122  1.00  0.00     0.215 A 
HETATM    6  O2  UNL     1      22.460  38.325  17.903  1.00  0.00    -0.248 OA
HETATM    7  C11 UNL     1      23.068  37.716  16.897  1.00  0.00     0.317 A 
HETATM    8  O3  UNL     1      22.848  36.489  16.656  1.00  0.00    -0.257 OA
ENDROOT
BRANCH   4   9
HETATM    9  C6  UNL     1      23.848  41.702  17.606  1.00  0.00     0.142 C 
HETATM   10  N7  UNL     1      24.379  42.065  18.723  1.00  0.00    -0.295 N 
ATOM     11  H7  UNL     1      24.622  41.344  19.402  1.00  0.00     0.186 HD
BRANCH  10  12
HETATM   12  N8  UNL     1      24.632  43.381  19.041  1.00  0.00    -0.131 N 
ATOM     13  H8  UNL     1      23.955  44.082  18.741  1.00  0.00     0.205 HD
BRANCH  12  14
HETATM   14  C7  UNL     1      25.780  43.830  19.764  1.00  0.00     0.707 C 
HETATM   15  N9  UNL     1      25.769  44.083  21.026  1.00  0.00    -0.135 N 
HETATM   16  N10 UNL     1      26.925  44.520  21.673  1.00  0.00    -0.321 N 
ATOM     17  H9  UNL     1      24.907  43.963  21.558  1.00  0.00     0.205 HD
HETATM   18  C8  UNL     1      28.241  44.147  21.201  1.00  0.00     0.160 C 
ATOM     19  H10 UNL     1      26.840  45.115  22.498  1.00  0.00     0.180 HD
HETATM   20  C9  UNL     1      28.261  43.791  19.745  1.00  0.00     0.159 C 
HETATM   21  N11 UNL     1      27.003  44.012  19.069  1.00  0.00    -0.222 N 
ATOM     22  H11 UNL     1      26.994  44.300  18.091  1.00  0.00     0.177 HD
ENDBRANCH  12  14
ENDBRANCH  10  12
ENDBRANCH   4   9
BRANCH   5  23
HETATM   23  O1  UNL     1      22.100  40.292  19.172  1.00  0.00    -0.339 OA
ATOM     24  H1  UNL     1      21.840  39.799  19.942  1.00  0.00     0.220 HD
ENDBRANCH   5  23
BRANCH   1  25
HETATM   25  C3  UNL     1      24.601  37.637  14.975  1.00  0.00     0.056 C 
BRANCH  25  26
HETATM   26  C2  UNL     1      24.906  38.238  13.839  1.00  0.00     0.139 C 
BRANCH  26  27
HETATM   27  N5  UNL     1      24.575  37.639  12.597  1.00  0.00    -0.081 N 
HETATM   28  C1  UNL     1      25.385  36.802  11.914  1.00  0.00     0.713 A 
HETATM   29  N2  UNL     1      24.716  36.452  10.795  1.00  0.00    -0.115 N 
HETATM   30  N3  UNL     1      23.548  37.043  10.784  1.00  0.00    -0.213 N 
ATOM     31  H2  UNL     1      25.066  35.826  10.071  1.00  0.00     0.207 HD
HETATM   32  N4  UNL     1      23.477  37.769  11.898  1.00  0.00    -0.207 N 
ATOM     33  H3  UNL     1      22.831  36.964  10.062  1.00  0.00     0.210 HD
ATOM     34  H4  UNL     1      22.679  38.345  12.167  1.00  0.00     0.211 HD
BRANCH  28  35
HETATM   35  N1  UNL     1      26.565  36.410  12.260  1.00  0.00    -0.231 N 
ATOM     36  H12 UNL     1      27.388  36.338  11.661  1.00  0.00     0.174 HD
ATOM     37  H11 UNL     1      26.859  36.112  13.190  1.00  0.00     0.174 HD
ENDBRANCH  28  35
ENDBRANCH  26  27
ENDBRANCH  25  26
ENDBRANCH   1  25
TORSDOF 8
ENDMDL
MODEL 3
REMARK VINA RESULT: -9.070017534      1.628      2.283
REMARK  8 active torsions:
REMARK  status: ('A' for Active; 'I' for Inactive)
REMARK    1  A    between atoms: N1_1  and  C1_4 
REMARK    2  A    between atoms: N5_11  and  C2_12 
REMARK    3  A    between atoms: C2_12  and  C3_13 
REMARK    4  A    between atoms: C3_13  and  C4_14 
REMARK    5  A    between atoms: C5_17  and  C6_18 
REMARK    6  A    between atoms: N7_19  and  N8_21 
REMARK    7  A    between atoms: N8_21  and  C7_23 
REMARK    8  A    between atoms: C10_32  and  O1_33 
ROOT
HETATM    1  C4  UNL     1      23.584  40.637  17.520  1.00  0.00     0.110 A 
HETATM    2  N6  UNL     1      24.300  40.100  16.518  1.00  0.00    -0.346 N 
ATOM      3  H6  UNL     1      24.994  40.647  16.008  1.00  0.00     0.166 HD
HETATM    4  C5  UNL     1      24.059  38.801  16.213  1.00  0.00     0.109 A 
HETATM    5  C10 UNL     1      23.118  38.067  16.907  1.00  0.00     0.215 A 
HETATM    6  O2  UNL     1      22.428  38.613  17.887  1.00  0.00    -0.248 OA
HETATM    7  C11 UNL     1      22.652  39.881  18.196  1.00  0.00     0.317 A 
HETATM    8  O3  UNL     1      22.005  40.440  19.134  1.00  0.00    -0.257 OA
ENDROOT
BRANCH   4   9
HETATM    9  C6  UNL     1      24.798  38.146  15.133  1.00  0.00     0.142 C 
HETATM   10  N7  UNL     1      24.176  37.550  14.175  1.00  0.00    -0.295 N 
ATOM     11  H7  UNL     1      23.156  37.545  14.187  1.00  0.00     0.186 HD
BRANCH  10  12
HETATM   12  N8  UNL     1      24.825  36.919  13.136  1.00  0.00    -0.131 N 
ATOM     13  H8  UNL     1      25.484  36.176  13.368  1.00  0.00     0.205 HD
BRANCH  12  14
HETATM   14  C7  UNL     1      24.635  37.235  11.756  1.00  0.00     0.707 C 
HETATM   15  N9  UNL     1      23.522  37.663  11.272  1.00  0.00    -0.135 N 
HETATM   16  N10 UNL     1      23.402  37.953   9.913  1.00  0.00    -0.321 N 
ATOM     17  H9  UNL     1      22.719  37.791  11.888  1.00  0.00     0.205 HD
HETATM   18  C8  UNL     1      24.540  38.384   9.130  1.00  0.00     0.160 C 
ATOM     19  H10 UNL     1      22.492  37.860   9.462  1.00  0.00     0.180 HD
HETATM   20  C9  UNL     1      25.850  37.945   9.711  1.00  0.00     0.159 C 
HETATM   21  N11 UNL     1      25.722  37.074  10.858  1.00  0.00    -0.222 N 
ATOM     22  H11 UNL     1      26.412  36.343  11.022  1.00  0.00     0.177 HD
ENDBRANCH  12  14
ENDBRANCH  10  12
ENDBRANCH   4   9
BRANCH   5  23
HETATM   23  O1  UNL     1      22.922  36.730  16.537  1.00  0.00    -0.339 OA
ATOM     24  H1  UNL     1      22.947  36.069  17.219  1.00  0.00     0.220 HD
ENDBRANCH   5  23
BRANCH   1  25
HETATM   25  C3  UNL     1      23.782  42.047  17.920  1.00  0.00     0.056 C 
BRANCH  25  26
HETATM   26  C2  UNL     1      24.982  42.501  18.235  1.00  0.00     0.139 C 
BRANCH  26  27
HETATM   27  N5  UNL     1      25.123  43.611  19.107  1.00  0.00    -0.081 N 
HETATM   28  C1  UNL     1      24.959  44.899  18.735  1.00  0.00     0.713 A 
HETATM   29  N2  UNL     1      25.178  45.645  19.839  1.00  0.00    -0.115 N 
HETATM   30  N3  UNL     1      25.463  44.859  20.845  1.00  0.00    -0.213 N 
ATOM     31  H2  UNL     1      25.129  46.663  19.881  1.00  0.00     0.207 HD
HETATM   32  N4  UNL     1      25.426  43.613  20.380  1.00  0.00    -0.207 N 
ATOM     33  H3  UNL     1      25.673  45.146  21.802  1.00  0.00     0.210 HD
ATOM     34  H4  UNL     1      25.608  42.777  20.937  1.00  0.00     0.211 HD
BRANCH  28  35
HETATM   35  N1  UNL     1      24.653  45.334  17.559  1.00  0.00    -0.231 N 
ATOM     36  H12 UNL     1      25.279  45.780  16.888  1.00  0.00     0.174 HD
ATOM     37  H11 UNL     1      23.735  45.298  17.117  1.00  0.00     0.174 HD
ENDBRANCH  28  35
ENDBRANCH  26  27
ENDBRANCH  25  26
ENDBRANCH   1  25
TORSDOF 8
ENDMDL
MODEL 4
REMARK VINA RESULT: -8.813841784      1.831      8.725
REMARK  8 active torsions:
REMARK  status: ('A' for Active; 'I' for Inactive)
REMARK    1  A    between atoms: N1_1  and  C1_4 
REMARK    2  A    between atoms: N5_11  and  C2_12 
REMARK    3  A    between atoms: C2_12  and  C3_13 
REMARK    4  A    between atoms: C3_13  and  C4_14 
REMARK    5  A    between atoms: C5_17  and  C6_18 
REMARK    6  A    between atoms: N7_19  and  N8_21 
REMARK    7  A    between atoms: N8_21  and  C7_23 
REMARK    8  A    between atoms: C10_32  and  O1_33 
ROOT
HETATM    1  C4  UNL     1      23.940  38.699  16.154  1.00  0.00     0.110 A 
HETATM    2  N6  UNL     1      24.211  39.978  16.462  1.00  0.00    -0.346 N 
ATOM      3  H6  UNL     1      24.848  40.538  15.895  1.00  0.00     0.166 HD
HETATM    4  C5  UNL     1      23.603  40.493  17.559  1.00  0.00     0.109 A 
HETATM    5  C10 UNL     1      22.742  39.730  18.324  1.00  0.00     0.215 A 
HETATM    6  O2  UNL     1      22.490  38.477  18.004  1.00  0.00    -0.248 OA
HETATM    7  C11 UNL     1      23.076  37.961  16.935  1.00  0.00     0.317 A 
HETATM    8  O3  UNL     1      22.856  36.757  16.597  1.00  0.00    -0.257 OA
ENDROOT
BRANCH   4   9
HETATM    9  C6  UNL     1      23.849  41.879  17.959  1.00  0.00     0.142 C 
HETATM   10  N7  UNL     1      24.640  42.153  18.939  1.00  0.00    -0.295 N 
ATOM     11  H7  UNL     1      25.090  41.381  19.430  1.00  0.00     0.186 HD
BRANCH  10  12
HETATM   12  N8  UNL     1      24.905  43.439  19.354  1.00  0.00    -0.131 N 
ATOM     13  H8  UNL     1      24.192  44.150  19.185  1.00  0.00     0.205 HD
BRANCH  12  14
HETATM   14  C7  UNL     1      26.110  43.845  20.005  1.00  0.00     0.707 C 
HETATM   15  N9  UNL     1      26.182  44.115  21.261  1.00  0.00    -0.135 N 
HETATM   16  N10 UNL     1      27.390  44.508  21.836  1.00  0.00    -0.321 N 
ATOM     17  H9  UNL     1      25.347  44.042  21.843  1.00  0.00     0.205 HD
HETATM   18  C8  UNL     1      28.660  44.070  21.297  1.00  0.00     0.160 C 
ATOM     19  H10 UNL     1      27.378  45.117  22.655  1.00  0.00     0.180 HD
HETATM   20  C9  UNL     1      28.582  43.694  19.848  1.00  0.00     0.159 C 
HETATM   21  N11 UNL     1      27.299  43.963  19.240  1.00  0.00    -0.222 N 
ATOM     22  H11 UNL     1      27.247  44.238  18.259  1.00  0.00     0.177 HD
ENDBRANCH  12  14
ENDBRANCH  10  12
ENDBRANCH   4   9
BRANCH   5  23
HETATM   23  O1  UNL     1      22.150  40.327  19.444  1.00  0.00    -0.339 OA
ATOM     24  H1  UNL     1      22.613  41.042  19.866  1.00  0.00     0.220 HD
ENDBRANCH   5  23
BRANCH   1  25
HETATM   25  C3  UNL     1      24.558  38.057  14.975  1.00  0.00     0.056 C 
BRANCH  25  26
HETATM   26  C2  UNL     1      25.053  38.783  13.988  1.00  0.00     0.139 C 
BRANCH  26  27
HETATM   27  N5  UNL     1      24.661  38.536  12.648  1.00  0.00    -0.081 N 
HETATM   28  C1  UNL     1      25.276  39.060  11.565  1.00  0.00     0.713 A 
HETATM   29  N2  UNL     1      24.611  38.592  10.487  1.00  0.00    -0.115 N 
HETATM   30  N3  UNL     1      23.634  37.817  10.881  1.00  0.00    -0.213 N 
ATOM     31  H2  UNL     1      24.836  38.809   9.517  1.00  0.00     0.207 HD
HETATM   32  N4  UNL     1      23.677  37.793  12.212  1.00  0.00    -0.207 N 
ATOM     33  H3  UNL     1      22.967  37.325  10.285  1.00  0.00     0.210 HD
ATOM     34  H4  UNL     1      23.034  37.270  12.806  1.00  0.00     0.211 HD
BRANCH  28  35
HETATM   35  N1  UNL     1      26.296  39.849  11.558  1.00  0.00    -0.231 N 
ATOM     36  H12 UNL     1      27.116  39.787  10.954  1.00  0.00     0.174 HD
ATOM     37  H11 UNL     1      26.441  40.661  12.157  1.00  0.00     0.174 HD
ENDBRANCH  28  35
ENDBRANCH  26  27
ENDBRANCH  25  26
ENDBRANCH   1  25
TORSDOF 8
ENDMDL
MODEL 5
REMARK VINA RESULT: -8.758285512      1.722      8.995
REMARK  8 active torsions:
REMARK  status: ('A' for Active; 'I' for Inactive)
REMARK    1  A    between atoms: N1_1  and  C1_4 
REMARK    2  A    between atoms: N5_11  and  C2_12 
REMARK    3  A    between atoms: C2_12  and  C3_13 
REMARK    4  A    between atoms: C3_13  and  C4_14 
REMARK    5  A    between atoms: C5_17  and  C6_18 
REMARK    6  A    between atoms: N7_19  and  N8_21 
REMARK    7  A    between atoms: N8_21  and  C7_23 
REMARK    8  A    between atoms: C10_32  and  O1_33 
ROOT
HETATM    1  C4  UNL     1      24.187  38.855  16.116  1.00  0.00     0.110 A 
HETATM    2  N6  UNL     1      24.436  40.118  16.500  1.00  0.00    -0.346 N 
ATOM      3  H6  UNL     1      25.158  40.679  16.046  1.00  0.00     0.166 HD
HETATM    4  C5  UNL     1      23.689  40.615  17.515  1.00  0.00     0.109 A 
HETATM    5  C10 UNL     1      22.714  39.852  18.126  1.00  0.00     0.215 A 
HETATM    6  O2  UNL     1      22.485  38.615  17.734  1.00  0.00    -0.248 OA
HETATM    7  C11 UNL     1      23.206  38.115  16.743  1.00  0.00     0.317 A 
HETATM    8  O3  UNL     1      23.014  36.927  16.339  1.00  0.00    -0.257 OA
ENDROOT
BRANCH   4   9
HETATM    9  C6  UNL     1      23.903  41.983  17.989  1.00  0.00     0.142 C 
HETATM   10  N7  UNL     1      24.724  42.228  18.951  1.00  0.00    -0.295 N 
ATOM     11  H7  UNL     1      25.222  41.445  19.375  1.00  0.00     0.186 HD
BRANCH  10  12
HETATM   12  N8  UNL     1      24.961  43.496  19.433  1.00  0.00    -0.131 N 
ATOM     13  H8  UNL     1      24.213  44.185  19.348  1.00  0.00     0.205 HD
BRANCH  12  14
HETATM   14  C7  UNL     1      26.184  43.912  20.044  1.00  0.00     0.707 C 
HETATM   15  N9  UNL     1      26.297  44.174  21.300  1.00  0.00    -0.135 N 
HETATM   16  N10 UNL     1      27.520  44.577  21.835  1.00  0.00    -0.321 N 
ATOM     17  H9  UNL     1      25.484  44.085  21.910  1.00  0.00     0.205 HD
HETATM   18  C8  UNL     1      28.775  44.159  21.247  1.00  0.00     0.160 C 
ATOM     19  H10 UNL     1      27.530  45.179  22.658  1.00  0.00     0.180 HD
HETATM   20  C9  UNL     1      28.651  43.793  19.799  1.00  0.00     0.159 C 
HETATM   21  N11 UNL     1      27.343  44.050  19.239  1.00  0.00    -0.222 N 
ATOM     22  H11 UNL     1      27.254  44.332  18.263  1.00  0.00     0.177 HD
ENDBRANCH  12  14
ENDBRANCH  10  12
ENDBRANCH   4   9
BRANCH   5  23
HETATM   23  O1  UNL     1      21.980  40.431  19.170  1.00  0.00    -0.339 OA
ATOM     24  H1  UNL     1      21.563  39.852  19.797  1.00  0.00     0.220 HD
ENDBRANCH   5  23
BRANCH   1  25
HETATM   25  C3  UNL     1      24.953  38.233  15.016  1.00  0.00     0.056 C 
BRANCH  25  26
HETATM   26  C2  UNL     1      24.680  38.512  13.754  1.00  0.00     0.139 C 
BRANCH  26  27
HETATM   27  N5  UNL     1      24.749  37.500  12.763  1.00  0.00    -0.081 N 
HETATM   28  C1  UNL     1      24.635  37.724  11.436  1.00  0.00     0.713 A 
HETATM   29  N2  UNL     1      24.752  36.521  10.835  1.00  0.00    -0.115 N 
HETATM   30  N3  UNL     1      24.929  35.596  11.745  1.00  0.00    -0.213 N 
ATOM     31  H2  UNL     1      24.709  36.357   9.830  1.00  0.00     0.207 HD
HETATM   32  N4  UNL     1      24.924  36.214  12.924  1.00  0.00    -0.207 N 
ATOM     33  H3  UNL     1      25.048  34.596  11.582  1.00  0.00     0.210 HD
ATOM     34  H4  UNL     1      25.041  35.749  13.825  1.00  0.00     0.211 HD
BRANCH  28  35
HETATM   35  N1  UNL     1      24.453  38.861  10.854  1.00  0.00    -0.231 N 
ATOM     36  H12 UNL     1      24.158  39.734  11.291  1.00  0.00     0.174 HD
ATOM     37  H11 UNL     1      24.577  39.064   9.862  1.00  0.00     0.174 HD
ENDBRANCH  28  35
ENDBRANCH  26  27
ENDBRANCH  25  26
ENDBRANCH   1  25
TORSDOF 8
ENDMDL
