MODEL 1
REMARK VINA RESULT: -8.027891685      0.000      0.000
REMARK  7 active torsions:
REMARK  status: ('A' for Active; 'I' for Inactive)
REMARK    1  A    between atoms: C1_4  and  S1_6 
REMARK    2  A    between atoms: S1_6  and  C2_7 
REMARK    3  A    between atoms: C2_7  and  C3_8 
REMARK       I    between atoms: C3_8  and  N3_10 
REMARK    4  A    between atoms: N3_10  and  N4_12 
REMARK    5  A    between atoms: C7_18  and  C8_19 
REMARK    6  A    between atoms: C9_25  and  N8_26 
REMARK    7  A    between atoms: N9_29  and  N10_30 
ROOT
HETATM    1  N4  UNL     1      24.470  39.181  15.874  1.00  0.00    -0.116 N 
HETATM    2  C4  UNL     1      25.215  40.282  15.987  1.00  0.00     0.315 A 
HETATM    3  O2  UNL     1      26.230  40.525  15.298  1.00  0.00    -0.262 OA
HETATM    4  C5  UNL     1      24.896  41.273  16.920  1.00  0.00     0.172 A 
HETATM    5  C6  UNL     1      25.522  42.488  17.212  1.00  0.00     0.116 A 
HETATM    6  N5  UNL     1      26.677  43.024  16.602  1.00  0.00    -0.097 NA
HETATM    7  C7  UNL     1      24.766  43.060  18.231  1.00  0.00     0.152 A 
HETATM    8  N6  UNL     1      23.775  42.195  18.480  1.00  0.00    -0.271 N 
ATOM      9  H6  UNL     1      23.053  42.342  19.185  1.00  0.00     0.188 HD
HETATM   10  N7  UNL     1      23.845  41.127  17.704  1.00  0.00    -0.075 N 
HETATM   11  C9  UNL     1      23.090  40.027  17.599  1.00  0.00     0.735 A 
HETATM   12  N9  UNL     1      23.407  39.080  16.696  1.00  0.00    -0.000 N 
ENDROOT
BRANCH   1  13
HETATM   13  N3  UNL     1      24.717  38.173  14.990  1.00  0.00    -0.242 N 
HETATM   14  C3  UNL     1      24.777  38.066  13.608  1.00  0.00     0.247 C 
HETATM   15  O1  UNL     1      24.604  38.947  12.772  1.00  0.00    -0.271 OA
ATOM     16  H3  UNL     1      24.901  37.285  15.456  1.00  0.00     0.192 HD
BRANCH  14  17
HETATM   17  C2  UNL     1      25.099  36.691  13.031  1.00  0.00     0.186 C 
BRANCH  17  18
HETATM   18  S1  UNL     1      25.521  36.773  11.303  1.00  0.00    -0.088 SA
BRANCH  18  19
HETATM   19  C1  UNL     1      24.178  37.056  10.201  1.00  0.00     0.148 C 
HETATM   20  N1  UNL     1      23.442  38.076  10.096  1.00  0.00    -0.382 N 
ATOM     21  H12 UNL     1      22.664  38.240   9.458  1.00  0.00     0.157 HD
ATOM     22  H11 UNL     1      23.665  38.844  10.729  1.00  0.00     0.157 HD
HETATM   23  N2  UNL     1      23.860  35.956   9.295  1.00  0.00    -0.075 NA
ENDBRANCH  18  19
ENDBRANCH  17  18
ENDBRANCH  14  17
ENDBRANCH   1  13
BRANCH  12  24
HETATM   24  N10 UNL     1      22.617  37.941  16.596  1.00  0.00    -0.307 N 
ATOM     25 2H10 UNL     1      22.933  37.161  16.019  1.00  0.00     0.179 HD
ATOM     26 1H10 UNL     1      21.736  37.928  17.110  1.00  0.00     0.179 HD
ENDBRANCH  12  24
BRANCH  11  27
HETATM   27  N8  UNL     1      22.046  39.866  18.366  1.00  0.00    -0.230 N 
ATOM     28  H82 UNL     1      21.578  38.960  18.397  1.00  0.00     0.174 HD
ATOM     29  H81 UNL     1      21.697  40.637  18.935  1.00  0.00     0.174 HD
ENDBRANCH  11  27
BRANCH   7  30
HETATM   30  C8  UNL     1      25.026  44.339  18.874  1.00  0.00     0.230 C 
HETATM   31  O3  UNL     1      24.899  45.408  18.227  1.00  0.00    -0.643 OA
HETATM   32  O4  UNL     1      25.416  44.451  20.199  1.00  0.00    -0.643 OA
ENDBRANCH   7  30
TORSDOF 7
ENDMDL
MODEL 2
REMARK VINA RESULT: -7.903393517      1.187      1.187
REMARK  7 active torsions:
REMARK  status: ('A' for Active; 'I' for Inactive)
REMARK    1  A    between atoms: C1_4  and  S1_6 
REMARK    2  A    between atoms: S1_6  and  C2_7 
REMARK    3  A    between atoms: C2_7  and  C3_8 
REMARK       I    between atoms: C3_8  and  N3_10 
REMARK    4  A    between atoms: N3_10  and  N4_12 
REMARK    5  A    between atoms: C7_18  and  C8_19 
REMARK    6  A    between atoms: C9_25  and  N8_26 
REMARK    7  A    between atoms: N9_29  and  N10_30 
ROOT
HETATM    1  N4  UNL     1      24.606  39.107  15.760  1.00  0.00    -0.116 N 
HETATM    2  C4  UNL     1      25.301  40.240  15.879  1.00  0.00     0.315 A 
HETATM    3  O2  UNL     1      26.306  40.530  15.196  1.00  0.00    -0.262 OA
HETATM    4  C5  UNL     1      24.934  41.212  16.814  1.00  0.00     0.172 A 
HETATM    5  C6  UNL     1      25.503  42.453  17.113  1.00  0.00     0.116 A 
HETATM    6  N5  UNL     1      26.636  43.042  16.510  1.00  0.00    -0.097 NA
HETATM    7  C7  UNL     1      24.719  42.987  18.130  1.00  0.00     0.152 A 
HETATM    8  N6  UNL     1      23.767  42.078  18.373  1.00  0.00    -0.271 N 
ATOM      9  H6  UNL     1      23.035  42.190  19.076  1.00  0.00     0.188 HD
HETATM   10  N7  UNL     1      23.887  41.017  17.594  1.00  0.00    -0.075 N 
HETATM   11  C9  UNL     1      23.182  39.885  17.482  1.00  0.00     0.735 A 
HETATM   12  N9  UNL     1      23.545  38.956  16.577  1.00  0.00    -0.000 N 
ENDROOT
BRANCH   1  13
HETATM   13  N3  UNL     1      24.901  38.114  14.873  1.00  0.00    -0.242 N 
HETATM   14  C3  UNL     1      24.724  37.924  13.511  1.00  0.00     0.247 C 
HETATM   15  O1  UNL     1      24.206  38.686  12.701  1.00  0.00    -0.271 OA
ATOM     16  H3  UNL     1      25.362  37.321  15.319  1.00  0.00     0.192 HD
BRANCH  14  17
HETATM   17  C2  UNL     1      25.230  36.611  12.921  1.00  0.00     0.186 C 
BRANCH  17  18
HETATM   18  S1  UNL     1      25.379  36.688  11.148  1.00  0.00    -0.088 SA
BRANCH  18  19
HETATM   19  C1  UNL     1      26.518  37.877  10.527  1.00  0.00     0.148 C 
HETATM   20  N1  UNL     1      26.706  39.067  10.906  1.00  0.00    -0.382 N 
ATOM     21  H12 UNL     1      27.366  39.755  10.546  1.00  0.00     0.157 HD
ATOM     22  H11 UNL     1      26.125  39.374  11.686  1.00  0.00     0.157 HD
HETATM   23  N2  UNL     1      27.348  37.436   9.410  1.00  0.00    -0.075 NA
ENDBRANCH  18  19
ENDBRANCH  17  18
ENDBRANCH  14  17
ENDBRANCH   1  13
BRANCH  12  24
HETATM   24  N10 UNL     1      22.807  37.783  16.470  1.00  0.00    -0.307 N 
ATOM     25 2H10 UNL     1      22.996  37.012  17.110  1.00  0.00     0.179 HD
ATOM     26 1H10 UNL     1      22.093  37.736  15.743  1.00  0.00     0.179 HD
ENDBRANCH  12  24
BRANCH  11  27
HETATM   27  N8  UNL     1      22.144  39.674  18.244  1.00  0.00    -0.230 N 
ATOM     28  H82 UNL     1      22.268  39.239  19.158  1.00  0.00     0.174 HD
ATOM     29  H81 UNL     1      21.210  39.942  17.933  1.00  0.00     0.174 HD
ENDBRANCH  11  27
BRANCH   7  30
HETATM   30  C8  UNL     1      24.919  44.275  18.779  1.00  0.00     0.230 C 
HETATM   31  O3  UNL     1      24.725  45.338  18.142  1.00  0.00    -0.643 OA
HETATM   32  O4  UNL     1      25.321  44.398  20.099  1.00  0.00    -0.643 OA
ENDBRANCH   7  30
TORSDOF 7
ENDMDL
MODEL 3
REMARK VINA RESULT: -7.570480250      8.785     12.023
REMARK  7 active torsions:
REMARK  status: ('A' for Active; 'I' for Inactive)
REMARK    1  A    between atoms: C1_4  and  S1_6 
REMARK    2  A    between atoms: S1_6  and  C2_7 
REMARK    3  A    between atoms: C2_7  and  C3_8 
REMARK       I    between atoms: C3_8  and  N3_10 
REMARK    4  A    between atoms: N3_10  and  N4_12 
REMARK    5  A    between atoms: C7_18  and  C8_19 
REMARK    6  A    between atoms: C9_25  and  N8_26 
REMARK    7  A    between atoms: N9_29  and  N10_30 
ROOT
HETATM    1  N4  UNL     1      31.555  45.810  21.324  1.00  0.00    -0.116 N 
HETATM    2  C4  UNL     1      30.511  46.250  20.619  1.00  0.00     0.315 A 
HETATM    3  O2  UNL     1      30.560  47.181  19.787  1.00  0.00    -0.262 OA
HETATM    4  C5  UNL     1      29.246  45.674  20.773  1.00  0.00     0.172 A 
HETATM    5  C6  UNL     1      28.028  45.967  20.153  1.00  0.00     0.116 A 
HETATM    6  N5  UNL     1      27.780  46.959  19.180  1.00  0.00    -0.097 NA
HETATM    7  C7  UNL     1      27.110  45.074  20.698  1.00  0.00     0.152 A 
HETATM    8  N6  UNL     1      27.799  44.331  21.573  1.00  0.00    -0.271 N 
ATOM      9  H6  UNL     1      27.389  43.583  22.133  1.00  0.00     0.188 HD
HETATM   10  N7  UNL     1      29.072  44.682  21.625  1.00  0.00    -0.075 N 
HETATM   11  C9  UNL     1      30.112  44.231  22.336  1.00  0.00     0.735 A 
HETATM   12  N9  UNL     1      31.326  44.794  22.179  1.00  0.00    -0.000 N 
ENDROOT
BRANCH   1  13
HETATM   13  N3  UNL     1      32.816  46.319  21.229  1.00  0.00    -0.242 N 
HETATM   14  C3  UNL     1      33.859  46.206  20.322  1.00  0.00     0.247 C 
HETATM   15  O1  UNL     1      33.893  45.552  19.284  1.00  0.00    -0.271 OA
ATOM     16  H3  UNL     1      33.048  46.928  22.013  1.00  0.00     0.192 HD
BRANCH  14  17
HETATM   17  C2  UNL     1      35.135  46.983  20.630  1.00  0.00     0.186 C 
BRANCH  17  18
HETATM   18  S1  UNL     1      34.802  48.685  21.035  1.00  0.00    -0.088 SA
BRANCH  18  19
HETATM   19  C1  UNL     1      34.960  49.111  22.735  1.00  0.00     0.148 C 
HETATM   20  N1  UNL     1      35.637  50.039  23.259  1.00  0.00    -0.382 N 
ATOM     21  H12 UNL     1      35.729  50.285  24.244  1.00  0.00     0.157 HD
ATOM     22  H11 UNL     1      36.152  50.628  22.604  1.00  0.00     0.157 HD
HETATM   23  N2  UNL     1      34.223  48.267  23.671  1.00  0.00    -0.075 NA
ENDBRANCH  18  19
ENDBRANCH  17  18
ENDBRANCH  14  17
ENDBRANCH   1  13
BRANCH  12  24
HETATM   24  N10 UNL     1      32.399  44.320  22.924  1.00  0.00    -0.307 N 
ATOM     25 2H10 UNL     1      33.183  44.941  23.124  1.00  0.00     0.179 HD
ATOM     26 1H10 UNL     1      32.363  43.352  23.246  1.00  0.00     0.179 HD
ENDBRANCH  12  24
BRANCH  11  27
HETATM   27  N8  UNL     1      29.959  43.251  23.183  1.00  0.00    -0.230 N 
ATOM     28  H82 UNL     1      30.411  42.354  23.005  1.00  0.00     0.174 HD
ATOM     29  H81 UNL     1      29.392  43.374  24.022  1.00  0.00     0.174 HD
ENDBRANCH  11  27
BRANCH   7  30
HETATM   30  C8  UNL     1      25.696  44.991  20.364  1.00  0.00     0.230 C 
HETATM   31  O3  UNL     1      25.256  44.003  19.727  1.00  0.00    -0.643 OA
HETATM   32  O4  UNL     1      24.779  45.966  20.720  1.00  0.00    -0.643 OA
ENDBRANCH   7  30
TORSDOF 7
ENDMDL
MODEL 4
REMARK VINA RESULT: -7.508403959      3.909      6.083
REMARK  7 active torsions:
REMARK  status: ('A' for Active; 'I' for Inactive)
REMARK    1  A    between atoms: C1_4  and  S1_6 
REMARK    2  A    between atoms: S1_6  and  C2_7 
REMARK    3  A    between atoms: C2_7  and  C3_8 
REMARK       I    between atoms: C3_8  and  N3_10 
REMARK    4  A    between atoms: N3_10  and  N4_12 
REMARK    5  A    between atoms: C7_18  and  C8_19 
REMARK    6  A    between atoms: C9_25  and  N8_26 
REMARK    7  A    between atoms: N9_29  and  N10_30 
ROOT
HETATM    1  N4  UNL     1      25.326  42.806  19.163  1.00  0.00    -0.116 N 
HETATM    2  C4  UNL     1      26.464  42.529  19.801  1.00  0.00     0.315 A 
HETATM    3  O2  UNL     1      26.848  41.377  20.097  1.00  0.00    -0.262 OA
HETATM    4  C5  UNL     1      27.335  43.550  20.193  1.00  0.00     0.172 A 
HETATM    5  C6  UNL     1      28.561  43.498  20.862  1.00  0.00     0.116 A 
HETATM    6  N5  UNL     1      29.239  42.346  21.318  1.00  0.00    -0.097 NA
HETATM    7  C7  UNL     1      28.975  44.821  20.984  1.00  0.00     0.152 A 
HETATM    8  N6  UNL     1      28.016  45.557  20.407  1.00  0.00    -0.271 N 
ATOM      9  H6  UNL     1      28.041  46.575  20.342  1.00  0.00     0.188 HD
HETATM   10  N7  UNL     1      27.036  44.808  19.934  1.00  0.00    -0.075 N 
HETATM   11  C9  UNL     1      25.897  45.099  19.294  1.00  0.00     0.735 A 
HETATM   12  N9  UNL     1      25.066  44.106  18.921  1.00  0.00    -0.000 N 
ENDROOT
BRANCH   1  13
HETATM   13  N3  UNL     1      24.428  41.867  18.749  1.00  0.00    -0.242 N 
HETATM   14  C3  UNL     1      23.660  40.895  19.372  1.00  0.00     0.247 C 
HETATM   15  O1  UNL     1      23.605  40.625  20.568  1.00  0.00    -0.271 OA
ATOM     16  H3  UNL     1      24.288  41.884  17.739  1.00  0.00     0.192 HD
BRANCH  14  17
HETATM   17  C2  UNL     1      22.763  40.041  18.482  1.00  0.00     0.186 C 
BRANCH  17  18
HETATM   18  S1  UNL     1      23.567  39.588  16.959  1.00  0.00    -0.088 SA
BRANCH  18  19
HETATM   19  C1  UNL     1      23.274  37.946  16.399  1.00  0.00     0.148 C 
HETATM   20  N1  UNL     1      23.818  37.327  15.442  1.00  0.00    -0.382 N 
ATOM     21  H12 UNL     1      23.648  36.375  15.118  1.00  0.00     0.157 HD
ATOM     22  H11 UNL     1      24.533  37.847  14.934  1.00  0.00     0.157 HD
HETATM   23  N2  UNL     1      22.250  37.201  17.127  1.00  0.00    -0.075 NA
ENDBRANCH  18  19
ENDBRANCH  17  18
ENDBRANCH  14  17
ENDBRANCH   1  13
BRANCH  12  24
HETATM   24  N10 UNL     1      23.885  44.418  18.258  1.00  0.00    -0.307 N 
ATOM     25 2H10 UNL     1      23.815  44.248  17.254  1.00  0.00     0.179 HD
ATOM     26 1H10 UNL     1      23.122  44.813  18.807  1.00  0.00     0.179 HD
ENDBRANCH  12  24
BRANCH  11  27
HETATM   27  N8  UNL     1      25.584  46.337  19.029  1.00  0.00    -0.230 N 
ATOM     28  H82 UNL     1      26.243  47.084  19.251  1.00  0.00     0.174 HD
ATOM     29  H81 UNL     1      24.686  46.564  18.601  1.00  0.00     0.174 HD
ENDBRANCH  11  27
BRANCH   7  30
HETATM   30  C8  UNL     1      30.203  45.279  21.616  1.00  0.00     0.230 C 
HETATM   31  O3  UNL     1      30.363  45.145  22.854  1.00  0.00    -0.643 OA
HETATM   32  O4  UNL     1      31.238  45.870  20.910  1.00  0.00    -0.643 OA
ENDBRANCH   7  30
TORSDOF 7
ENDMDL
MODEL 5
REMARK VINA RESULT: -7.457860870      9.044     12.274
REMARK  7 active torsions:
REMARK  status: ('A' for Active; 'I' for Inactive)
REMARK    1  A    between atoms: C1_4  and  S1_6 
REMARK    2  A    between atoms: S1_6  and  C2_7 
REMARK    3  A    between atoms: C2_7  and  C3_8 
REMARK       I    between atoms: C3_8  and  N3_10 
REMARK    4  A    between atoms: N3_10  and  N4_12 
REMARK    5  A    between atoms: C7_18  and  C8_19 
REMARK    6  A    between atoms: C9_25  and  N8_26 
REMARK    7  A    between atoms: N9_29  and  N10_30 
ROOT
HETATM    1  N4  UNL     1      32.487  45.140  21.076  1.00  0.00    -0.116 N 
HETATM    2  C4  UNL     1      32.551  46.471  21.008  1.00  0.00     0.315 A 
HETATM    3  O2  UNL     1      31.564  47.220  20.842  1.00  0.00    -0.262 OA
HETATM    4  C5  UNL     1      33.774  47.138  21.123  1.00  0.00     0.172 A 
HETATM    5  C6  UNL     1      34.078  48.502  21.082  1.00  0.00     0.116 A 
HETATM    6  N5  UNL     1      33.177  49.575  20.907  1.00  0.00    -0.097 NA
HETATM    7  C7  UNL     1      35.457  48.581  21.249  1.00  0.00     0.152 A 
HETATM    8  N6  UNL     1      35.882  47.318  21.375  1.00  0.00    -0.271 N 
ATOM      9  H6  UNL     1      36.859  47.055  21.512  1.00  0.00     0.188 HD
HETATM   10  N7  UNL     1      34.886  46.452  21.301  1.00  0.00    -0.075 N 
HETATM   11  C9  UNL     1      34.835  45.116  21.371  1.00  0.00     0.735 A 
HETATM   12  N9  UNL     1      33.650  44.484  21.259  1.00  0.00    -0.000 N 
ENDROOT
BRANCH   1  13
HETATM   13  N3  UNL     1      31.334  44.419  20.973  1.00  0.00    -0.242 N 
HETATM   14  C3  UNL     1      30.149  44.348  21.690  1.00  0.00     0.247 C 
HETATM   15  O1  UNL     1      29.829  44.985  22.688  1.00  0.00    -0.271 OA
ATOM     16  H3  UNL     1      31.347  43.779  20.180  1.00  0.00     0.192 HD
BRANCH  14  17
HETATM   17  C2  UNL     1      29.095  43.364  21.194  1.00  0.00     0.186 C 
BRANCH  17  18
HETATM   18  S1  UNL     1      27.953  44.122  20.056  1.00  0.00    -0.088 SA
BRANCH  18  19
HETATM   19  C1  UNL     1      26.261  44.091  20.538  1.00  0.00     0.148 C 
HETATM   20  N1  UNL     1      25.660  44.830  21.367  1.00  0.00    -0.382 N 
ATOM     21  H12 UNL     1      24.679  44.812  21.646  1.00  0.00     0.157 HD
ATOM     22  H11 UNL     1      26.233  45.551  21.806  1.00  0.00     0.157 HD
HETATM   23  N2  UNL     1      25.441  43.059  19.909  1.00  0.00    -0.075 NA
ENDBRANCH  18  19
ENDBRANCH  17  18
ENDBRANCH  14  17
ENDBRANCH   1  13
BRANCH  12  24
HETATM   24  N10 UNL     1      33.607  43.098  21.333  1.00  0.00    -0.307 N 
ATOM     25 2H10 UNL     1      33.986  42.543  20.565  1.00  0.00     0.179 HD
ATOM     26 1H10 UNL     1      33.192  42.679  22.165  1.00  0.00     0.179 HD
ENDBRANCH  12  24
BRANCH  11  27
HETATM   27  N8  UNL     1      35.924  44.420  21.547  1.00  0.00    -0.230 N 
ATOM     28  H82 UNL     1      36.648  44.766  22.177  1.00  0.00     0.174 HD
ATOM     29  H81 UNL     1      36.057  43.533  21.060  1.00  0.00     0.174 HD
ENDBRANCH  11  27
BRANCH   7  30
HETATM   30  C8  UNL     1      36.247  49.803  21.275  1.00  0.00     0.230 C 
HETATM   31  O3  UNL     1      36.937  50.085  22.286  1.00  0.00    -0.643 OA
HETATM   32  O4  UNL     1      36.286  50.698  20.219  1.00  0.00    -0.643 OA
ENDBRANCH   7  30
TORSDOF 7
ENDMDL
