MODEL 1
REMARK VINA RESULT: -9.639384925      0.000      0.000
REMARK  8 active torsions:
REMARK  status: ('A' for Active; 'I' for Inactive)
REMARK    1  A    between atoms: C7_7  and  N1_8 
REMARK       I    between atoms: N1_8  and  C8_10 
REMARK    2  A    between atoms: C8_10  and  C9_12 
REMARK    3  A    between atoms: C9_12  and  O2_13 
REMARK    4  A    between atoms: O2_13  and  C10_14 
REMARK    5  A    between atoms: C10_14  and  C11_16 
REMARK    6  A    between atoms: C11_16  and  S1_17 
REMARK    7  A    between atoms: S1_17  and  C12_18 
REMARK    8  A    between atoms: C13_21  and  C14_22 
ROOT
HETATM    1  N1  UNL     1      12.551  63.351  27.302  1.00  0.00    -0.325 N 
ATOM      2  H1  UNL     1      12.175  64.037  26.647  1.00  0.00     0.169 HD
HETATM    3  C8  UNL     1      13.924  63.190  27.294  1.00  0.00     0.246 C 
HETATM    4  O1  UNL     1      14.532  62.387  28.015  1.00  0.00    -0.271 OA
ENDROOT
BRANCH   1   5
HETATM    5  C7  UNL     1      11.609  62.677  28.110  1.00  0.00     0.046 A 
HETATM    6  C6  UNL     1      11.390  61.335  27.895  1.00  0.00     0.031 A 
HETATM    7  C5  UNL     1      10.566  60.632  28.775  1.00  0.00     0.011 A 
HETATM    8  C4  UNL     1       9.981  61.288  29.847  1.00  0.00    -0.042 A 
HETATM    9  C3  UNL     1       9.284  60.389  30.799  1.00  0.00     0.078 C 
HETATM   10  C25 UNL     1      10.165  62.631  30.095  1.00  0.00    -0.000 A 
HETATM   11  C2  UNL     1       8.313  61.054  31.680  1.00  0.00    -0.050 C 
HETATM   12  C1  UNL     1       7.252  60.415  32.107  1.00  0.00     0.020 C 
HETATM   13  C26 UNL     1       8.542  62.467  32.019  1.00  0.00     0.013 C 
HETATM   14  C24 UNL     1       9.474  63.203  31.160  1.00  0.00     0.057 C 
HETATM   15  C27 UNL     1       8.055  63.004  33.100  1.00  0.00     0.201 C 
HETATM   16  C23 UNL     1       9.461  64.569  31.491  1.00  0.00     0.262 C 
HETATM   17  N3  UNL     1      10.492  65.459  31.371  1.00  0.00    -0.285 N 
HETATM   18  O5  UNL     1       8.400  65.045  31.942  1.00  0.00    -0.267 OA
HETATM   19  C21 UNL     1      11.338  65.459  30.316  1.00  0.00     0.250 C 
HETATM   20  C22 UNL     1      10.644  66.440  32.420  1.00  0.00     0.163 C 
HETATM   21  C20 UNL     1      11.327  64.646  29.176  1.00  0.00     0.089 C 
HETATM   22  O4  UNL     1      12.247  66.305  30.382  1.00  0.00    -0.268 OA
HETATM   23  C19 UNL     1      11.005  63.301  29.184  1.00  0.00     0.008 A 
HETATM   24  F1  UNL     1       7.300  62.248  33.961  1.00  0.00    -0.218 F 
ENDBRANCH   1   5
BRANCH   3  25
HETATM   25  C9  UNL     1      14.774  64.022  26.372  1.00  0.00     0.281 C 
BRANCH  25  26
HETATM   26  O2  UNL     1      14.009  64.415  25.244  1.00  0.00    -0.311 OA
BRANCH  26  27
HETATM   27  C10 UNL     1      14.467  64.060  23.985  1.00  0.00     0.269 C 
HETATM   28  O3  UNL     1      14.585  62.819  23.704  1.00  0.00    -0.264 OA
BRANCH  27  29
HETATM   29  C11 UNL     1      14.821  65.053  22.953  1.00  0.00     0.192 C 
BRANCH  29  30
HETATM   30  S1  UNL     1      16.414  64.728  22.160  1.00  0.00    -0.095 SA
BRANCH  30  31
HETATM   31  C12 UNL     1      17.502  63.871  23.324  1.00  0.00     0.112 A 
HETATM   32  N2  UNL     1      17.793  62.599  23.443  1.00  0.00    -0.344 N 
HETATM   33  C13 UNL     1      18.611  62.199  24.372  1.00  0.00     0.057 A 
ATOM     34  H2  UNL     1      17.378  61.920  22.806  1.00  0.00     0.167 HD
HETATM   35  C18 UNL     1      19.143  63.153  25.201  1.00  0.00     0.083 A 
HETATM   36  S3  UNL     1      18.433  64.580  24.597  1.00  0.00    -0.075 SA
BRANCH  33  37
HETATM   37  C14 UNL     1      18.966  60.761  24.527  1.00  0.00     0.032 A 
HETATM   38  C15 UNL     1      19.626  60.170  25.565  1.00  0.00     0.021 A 
HETATM   39  C16 UNL     1      19.839  58.846  25.490  1.00  0.00     0.008 A 
HETATM   40  C17 UNL     1      19.376  58.198  24.378  1.00  0.00     0.050 A 
HETATM   41  S2  UNL     1      18.659  59.454  23.473  1.00  0.00    -0.100 SA
ENDBRANCH  33  37
ENDBRANCH  30  31
ENDBRANCH  29  30
ENDBRANCH  27  29
ENDBRANCH  26  27
ENDBRANCH  25  26
ENDBRANCH   3  25
TORSDOF 8
ENDMDL
MODEL 2
REMARK VINA RESULT: -9.638318113      2.305      2.975
REMARK  8 active torsions:
REMARK  status: ('A' for Active; 'I' for Inactive)
REMARK    1  A    between atoms: C7_7  and  N1_8 
REMARK       I    between atoms: N1_8  and  C8_10 
REMARK    2  A    between atoms: C8_10  and  C9_12 
REMARK    3  A    between atoms: C9_12  and  O2_13 
REMARK    4  A    between atoms: O2_13  and  C10_14 
REMARK    5  A    between atoms: C10_14  and  C11_16 
REMARK    6  A    between atoms: C11_16  and  S1_17 
REMARK    7  A    between atoms: S1_17  and  C12_18 
REMARK    8  A    between atoms: C13_21  and  C14_22 
ROOT
HETATM    1  N1  UNL     1      13.487  62.520  28.124  1.00  0.00    -0.325 N 
ATOM      2  H1  UNL     1      14.328  62.022  28.413  1.00  0.00     0.169 HD
HETATM    3  C8  UNL     1      13.663  63.526  27.192  1.00  0.00     0.246 C 
HETATM    4  O1  UNL     1      12.746  64.233  26.753  1.00  0.00    -0.271 OA
ENDROOT
BRANCH   1   5
HETATM    5  C7  UNL     1      12.278  62.102  28.722  1.00  0.00     0.046 A 
HETATM    6  C6  UNL     1      11.435  61.278  28.010  1.00  0.00     0.031 A 
HETATM    7  C5  UNL     1      10.308  60.750  28.641  1.00  0.00     0.011 A 
HETATM    8  C4  UNL     1      10.051  61.058  29.968  1.00  0.00    -0.042 A 
HETATM    9  C3  UNL     1       8.931  60.289  30.562  1.00  0.00     0.078 C 
HETATM   10  C25 UNL     1      10.862  61.885  30.716  1.00  0.00    -0.000 A 
HETATM   11  C2  UNL     1       8.360  60.872  31.785  1.00  0.00    -0.050 C 
HETATM   12  C1  UNL     1       7.094  60.704  32.076  1.00  0.00     0.020 C 
HETATM   13  C26 UNL     1       9.237  61.690  32.636  1.00  0.00     0.013 C 
HETATM   14  C24 UNL     1      10.473  62.183  32.019  1.00  0.00     0.057 C 
HETATM   15  C27 UNL     1       9.005  61.857  33.906  1.00  0.00     0.201 C 
HETATM   16  C23 UNL     1      11.118  63.085  32.883  1.00  0.00     0.262 C 
HETATM   17  N3  UNL     1      12.460  63.323  32.975  1.00  0.00    -0.285 N 
HETATM   18  O5  UNL     1      10.406  63.756  33.657  1.00  0.00    -0.267 OA
HETATM   19  C21 UNL     1      13.269  63.383  31.894  1.00  0.00     0.250 C 
HETATM   20  C22 UNL     1      13.004  63.538  34.297  1.00  0.00     0.163 C 
HETATM   21  C20 UNL     1      12.938  63.269  30.537  1.00  0.00     0.089 C 
HETATM   22  O4  UNL     1      14.472  63.564  32.154  1.00  0.00    -0.268 OA
HETATM   23  C19 UNL     1      11.988  62.394  30.041  1.00  0.00     0.008 A 
HETATM   24  F1  UNL     1       7.913  61.264  34.487  1.00  0.00    -0.218 F 
ENDBRANCH   1   5
BRANCH   3  25
HETATM   25  C9  UNL     1      15.036  63.814  26.646  1.00  0.00     0.281 C 
BRANCH  25  26
HETATM   26  O2  UNL     1      16.010  63.544  27.642  1.00  0.00    -0.311 OA
BRANCH  26  27
HETATM   27  C10 UNL     1      16.433  64.590  28.447  1.00  0.00     0.269 C 
HETATM   28  O3  UNL     1      16.293  65.786  28.018  1.00  0.00    -0.264 OA
BRANCH  27  29
HETATM   29  C11 UNL     1      17.033  64.384  29.778  1.00  0.00     0.192 C 
BRANCH  29  30
HETATM   30  S1  UNL     1      18.828  64.168  29.731  1.00  0.00    -0.095 SA
BRANCH  30  31
HETATM   31  C12 UNL     1      19.326  63.628  28.077  1.00  0.00     0.112 A 
HETATM   32  N2  UNL     1      19.173  62.476  27.472  1.00  0.00    -0.344 N 
HETATM   33  C13 UNL     1      19.622  62.307  26.263  1.00  0.00     0.057 A 
ATOM     34  H2  UNL     1      18.701  61.709  27.950  1.00  0.00     0.167 HD
HETATM   35  C18 UNL     1      20.248  63.371  25.666  1.00  0.00     0.083 A 
HETATM   36  S3  UNL     1      20.157  64.562  26.882  1.00  0.00    -0.075 SA
BRANCH  33  37
HETATM   37  C14 UNL     1      19.457  61.011  25.548  1.00  0.00     0.032 A 
HETATM   38  C15 UNL     1      19.934  59.787  25.918  1.00  0.00     0.021 A 
HETATM   39  C16 UNL     1      19.662  58.747  25.112  1.00  0.00     0.008 A 
HETATM   40  C17 UNL     1      18.928  59.002  23.985  1.00  0.00     0.050 A 
HETATM   41  S2  UNL     1      18.641  60.681  24.086  1.00  0.00    -0.100 SA
ENDBRANCH  33  37
ENDBRANCH  30  31
ENDBRANCH  29  30
ENDBRANCH  27  29
ENDBRANCH  26  27
ENDBRANCH  25  26
ENDBRANCH   3  25
TORSDOF 8
ENDMDL
MODEL 3
REMARK VINA RESULT: -9.601612691      1.738      1.784
REMARK  8 active torsions:
REMARK  status: ('A' for Active; 'I' for Inactive)
REMARK    1  A    between atoms: C7_7  and  N1_8 
REMARK       I    between atoms: N1_8  and  C8_10 
REMARK    2  A    between atoms: C8_10  and  C9_12 
REMARK    3  A    between atoms: C9_12  and  O2_13 
REMARK    4  A    between atoms: O2_13  and  C10_14 
REMARK    5  A    between atoms: C10_14  and  C11_16 
REMARK    6  A    between atoms: C11_16  and  S1_17 
REMARK    7  A    between atoms: S1_17  and  C12_18 
REMARK    8  A    between atoms: C13_21  and  C14_22 
ROOT
HETATM    1  N1  UNL     1      13.251  62.318  28.278  1.00  0.00    -0.325 N 
ATOM      2  H1  UNL     1      14.083  61.788  28.535  1.00  0.00     0.169 HD
HETATM    3  C8  UNL     1      13.438  63.343  27.369  1.00  0.00     0.246 C 
HETATM    4  O1  UNL     1      12.533  64.089  26.970  1.00  0.00    -0.271 OA
ENDROOT
BRANCH   1   5
HETATM    5  C7  UNL     1      12.043  61.921  28.892  1.00  0.00     0.046 A 
HETATM    6  C6  UNL     1      11.190  61.090  28.203  1.00  0.00     0.031 A 
HETATM    7  C5  UNL     1      10.063  60.583  28.852  1.00  0.00     0.011 A 
HETATM    8  C4  UNL     1       9.817  60.919  30.174  1.00  0.00    -0.042 A 
HETATM    9  C3  UNL     1       8.696  60.170  30.791  1.00  0.00     0.078 C 
HETATM   10  C25 UNL     1      10.639  61.754  30.900  1.00  0.00    -0.000 A 
HETATM   11  C2  UNL     1       8.137  60.782  32.005  1.00  0.00    -0.050 C 
HETATM   12  C1  UNL     1       6.872  60.629  32.308  1.00  0.00     0.020 C 
HETATM   13  C26 UNL     1       9.026  61.610  32.834  1.00  0.00     0.013 C 
HETATM   14  C24 UNL     1      10.261  62.081  32.199  1.00  0.00     0.057 C 
HETATM   15  C27 UNL     1       8.804  61.804  34.102  1.00  0.00     0.201 C 
HETATM   16  C23 UNL     1      10.919  62.995  33.041  1.00  0.00     0.262 C 
HETATM   17  N3  UNL     1      12.263  63.226  33.119  1.00  0.00    -0.285 N 
HETATM   18  O5  UNL     1      10.217  63.687  33.806  1.00  0.00    -0.267 OA
HETATM   19  C21 UNL     1      13.065  63.258  32.031  1.00  0.00     0.250 C 
HETATM   20  C22 UNL     1      12.818  63.463  34.432  1.00  0.00     0.163 C 
HETATM   21  C20 UNL     1      12.724  63.119  30.680  1.00  0.00     0.089 C 
HETATM   22  O4  UNL     1      14.271  63.435  32.281  1.00  0.00    -0.268 OA
HETATM   23  C19 UNL     1      11.764  62.242  30.207  1.00  0.00     0.008 A 
HETATM   24  F1  UNL     1       7.711  61.231  34.702  1.00  0.00    -0.218 F 
ENDBRANCH   1   5
BRANCH   3  25
HETATM   25  C9  UNL     1      14.807  63.604  26.800  1.00  0.00     0.281 C 
BRANCH  25  26
HETATM   26  O2  UNL     1      14.978  62.853  25.608  1.00  0.00    -0.311 OA
BRANCH  26  27
HETATM   27  C10 UNL     1      14.952  63.529  24.398  1.00  0.00     0.269 C 
HETATM   28  O3  UNL     1      14.909  62.848  23.318  1.00  0.00    -0.264 OA
BRANCH  27  29
HETATM   29  C11 UNL     1      14.968  65.001  24.304  1.00  0.00     0.192 C 
BRANCH  29  30
HETATM   30  S1  UNL     1      16.613  65.683  23.988  1.00  0.00    -0.095 SA
BRANCH  30  31
HETATM   31  C12 UNL     1      17.868  64.533  24.602  1.00  0.00     0.112 A 
HETATM   32  N2  UNL     1      17.983  63.236  24.458  1.00  0.00    -0.344 N 
HETATM   33  C13 UNL     1      18.982  62.603  24.999  1.00  0.00     0.057 A 
ATOM     34  H2  UNL     1      17.286  62.721  23.920  1.00  0.00     0.167 HD
HETATM   35  C18 UNL     1      19.890  63.344  25.711  1.00  0.00     0.083 A 
HETATM   36  S3  UNL     1      19.254  64.919  25.563  1.00  0.00    -0.075 SA
BRANCH  33  37
HETATM   37  C14 UNL     1      19.141  61.130  24.847  1.00  0.00     0.032 A 
HETATM   38  C15 UNL     1      19.752  60.263  25.706  1.00  0.00     0.021 A 
HETATM   39  C16 UNL     1      19.778  58.965  25.360  1.00  0.00     0.008 A 
HETATM   40  C17 UNL     1      19.188  58.619  24.175  1.00  0.00     0.050 A 
HETATM   41  S2  UNL     1      18.618  60.113  23.580  1.00  0.00    -0.100 SA
ENDBRANCH  33  37
ENDBRANCH  30  31
ENDBRANCH  29  30
ENDBRANCH  27  29
ENDBRANCH  26  27
ENDBRANCH  25  26
ENDBRANCH   3  25
TORSDOF 8
ENDMDL
MODEL 4
REMARK VINA RESULT: -9.312847338      1.723      2.214
REMARK  8 active torsions:
REMARK  status: ('A' for Active; 'I' for Inactive)
REMARK    1  A    between atoms: C7_7  and  N1_8 
REMARK       I    between atoms: N1_8  and  C8_10 
REMARK    2  A    between atoms: C8_10  and  C9_12 
REMARK    3  A    between atoms: C9_12  and  O2_13 
REMARK    4  A    between atoms: O2_13  and  C10_14 
REMARK    5  A    between atoms: C10_14  and  C11_16 
REMARK    6  A    between atoms: C11_16  and  S1_17 
REMARK    7  A    between atoms: S1_17  and  C12_18 
REMARK    8  A    between atoms: C13_21  and  C14_22 
ROOT
HETATM    1  N1  UNL     1      12.885  63.319  27.850  1.00  0.00    -0.325 N 
ATOM      2  H1  UNL     1      12.575  64.138  27.327  1.00  0.00     0.169 HD
HETATM    3  C8  UNL     1      14.247  63.081  27.859  1.00  0.00     0.246 C 
HETATM    4  O1  UNL     1      14.779  62.121  28.433  1.00  0.00    -0.271 OA
ENDROOT
BRANCH   1   5
HETATM    5  C7  UNL     1      11.874  62.562  28.481  1.00  0.00     0.046 A 
HETATM    6  C6  UNL     1      11.429  61.410  27.872  1.00  0.00     0.031 A 
HETATM    7  C5  UNL     1      10.532  60.585  28.552  1.00  0.00     0.011 A 
HETATM    8  C4  UNL     1      10.101  60.932  29.823  1.00  0.00    -0.042 A 
HETATM    9  C3  UNL     1       9.300  59.882  30.497  1.00  0.00     0.078 C 
HETATM   10  C25 UNL     1      10.513  62.079  30.467  1.00  0.00    -0.000 A 
HETATM   11  C2  UNL     1       8.484  60.356  31.625  1.00  0.00    -0.050 C 
HETATM   12  C1  UNL     1       7.347  59.773  31.918  1.00  0.00     0.020 C 
HETATM   13  C26 UNL     1       8.954  61.532  32.373  1.00  0.00     0.013 C 
HETATM   14  C24 UNL     1       9.964  62.365  31.714  1.00  0.00     0.057 C 
HETATM   15  C27 UNL     1       8.600  61.750  33.607  1.00  0.00     0.201 C 
HETATM   16  C23 UNL     1      10.188  63.535  32.461  1.00  0.00     0.262 C 
HETATM   17  N3  UNL     1      11.346  64.256  32.540  1.00  0.00    -0.285 N 
HETATM   18  O5  UNL     1       9.236  63.986  33.130  1.00  0.00    -0.267 OA
HETATM   19  C21 UNL     1      12.143  64.479  31.471  1.00  0.00     0.250 C 
HETATM   20  C22 UNL     1      11.694  64.808  33.829  1.00  0.00     0.163 C 
HETATM   21  C20 UNL     1      11.959  64.094  30.137  1.00  0.00     0.089 C 
HETATM   22  O4  UNL     1      13.181  65.116  31.722  1.00  0.00    -0.268 OA
HETATM   23  C19 UNL     1      11.419  62.881  29.746  1.00  0.00     0.008 A 
HETATM   24  F1  UNL     1       7.762  60.872  34.245  1.00  0.00    -0.218 F 
ENDBRANCH   1   5
BRANCH   3  25
HETATM   25  C9  UNL     1      15.180  64.020  27.143  1.00  0.00     0.281 C 
BRANCH  25  26
HETATM   26  O2  UNL     1      15.879  64.812  28.091  1.00  0.00    -0.311 OA
BRANCH  26  27
HETATM   27  C10 UNL     1      17.244  64.986  27.920  1.00  0.00     0.269 C 
HETATM   28  O3  UNL     1      18.029  64.037  28.260  1.00  0.00    -0.264 OA
BRANCH  27  29
HETATM   29  C11 UNL     1      17.829  66.218  27.360  1.00  0.00     0.192 C 
BRANCH  29  30
HETATM   30  S1  UNL     1      19.044  65.909  26.057  1.00  0.00    -0.095 SA
BRANCH  30  31
HETATM   31  C12 UNL     1      18.544  64.458  25.100  1.00  0.00     0.112 A 
HETATM   32  N2  UNL     1      18.909  63.203  25.195  1.00  0.00    -0.344 N 
HETATM   33  C13 UNL     1      18.415  62.315  24.384  1.00  0.00     0.057 A 
ATOM     34  H2  UNL     1      19.583  62.923  25.907  1.00  0.00     0.167 HD
HETATM   35  C18 UNL     1      17.513  62.746  23.446  1.00  0.00     0.083 A 
HETATM   36  S3  UNL     1      17.423  64.414  23.782  1.00  0.00    -0.075 SA
BRANCH  33  37
HETATM   37  C14 UNL     1      18.808  60.880  24.473  1.00  0.00     0.032 A 
HETATM   38  C15 UNL     1      18.540  59.885  23.579  1.00  0.00     0.021 A 
HETATM   39  C16 UNL     1      18.996  58.655  23.868  1.00  0.00     0.008 A 
HETATM   40  C17 UNL     1      19.691  58.502  25.037  1.00  0.00     0.050 A 
HETATM   41  S2  UNL     1      19.687  60.076  25.694  1.00  0.00    -0.100 SA
ENDBRANCH  33  37
ENDBRANCH  30  31
ENDBRANCH  29  30
ENDBRANCH  27  29
ENDBRANCH  26  27
ENDBRANCH  25  26
ENDBRANCH   3  25
TORSDOF 8
ENDMDL
MODEL 5
REMARK VINA RESULT: -9.311309713      4.994     10.093
REMARK  8 active torsions:
REMARK  status: ('A' for Active; 'I' for Inactive)
REMARK    1  A    between atoms: C7_7  and  N1_8 
REMARK       I    between atoms: N1_8  and  C8_10 
REMARK    2  A    between atoms: C8_10  and  C9_12 
REMARK    3  A    between atoms: C9_12  and  O2_13 
REMARK    4  A    between atoms: O2_13  and  C10_14 
REMARK    5  A    between atoms: C10_14  and  C11_16 
REMARK    6  A    between atoms: C11_16  and  S1_17 
REMARK    7  A    between atoms: S1_17  and  C12_18 
REMARK    8  A    between atoms: C13_21  and  C14_22 
ROOT
HETATM    1  N1  UNL     1      16.434  64.759  22.739  1.00  0.00    -0.325 N 
ATOM      2  H1  UNL     1      17.262  65.351  22.803  1.00  0.00     0.169 HD
HETATM    3  C8  UNL     1      16.622  63.416  23.010  1.00  0.00     0.246 C 
HETATM    4  O1  UNL     1      15.722  62.566  22.960  1.00  0.00    -0.271 OA
ENDROOT
BRANCH   1   5
HETATM    5  C7  UNL     1      15.230  65.406  22.385  1.00  0.00     0.046 A 
HETATM    6  C6  UNL     1      14.152  65.317  23.237  1.00  0.00     0.031 A 
HETATM    7  C5  UNL     1      13.006  66.064  22.964  1.00  0.00     0.011 A 
HETATM    8  C4  UNL     1      12.965  66.883  21.846  1.00  0.00    -0.042 A 
HETATM    9  C3  UNL     1      11.767  67.754  21.777  1.00  0.00     0.078 C 
HETATM   10  C25 UNL     1      14.017  66.997  20.961  1.00  0.00    -0.000 A 
HETATM   11  C2  UNL     1      11.474  68.298  20.443  1.00  0.00    -0.050 C 
HETATM   12  C1  UNL     1      10.240  68.547  20.080  1.00  0.00     0.020 C 
HETATM   13  C26 UNL     1      12.598  68.502  19.517  1.00  0.00     0.013 C 
HETATM   14  C24 UNL     1      13.843  67.795  19.834  1.00  0.00     0.057 C 
HETATM   15  C27 UNL     1      12.543  69.366  18.545  1.00  0.00     0.201 C 
HETATM   16  C23 UNL     1      14.764  67.941  18.781  1.00  0.00     0.262 C 
HETATM   17  N3  UNL     1      16.127  67.950  18.871  1.00  0.00    -0.285 N 
HETATM   18  O5  UNL     1      14.307  68.072  17.627  1.00  0.00    -0.267 OA
HETATM   19  C21 UNL     1      16.811  67.126  19.697  1.00  0.00     0.250 C 
HETATM   20  C22 UNL     1      16.839  68.875  18.020  1.00  0.00     0.163 C 
HETATM   21  C20 UNL     1      16.324  66.125  20.547  1.00  0.00     0.089 C 
HETATM   22  O4  UNL     1      18.044  67.293  19.691  1.00  0.00    -0.268 OA
HETATM   23  C19 UNL     1      15.153  66.227  21.276  1.00  0.00     0.008 A 
HETATM   24  F1  UNL     1      11.411  70.118  18.360  1.00  0.00    -0.218 F 
ENDBRANCH   1   5
BRANCH   3  25
HETATM   25  C9  UNL     1      17.985  62.910  23.398  1.00  0.00     0.281 C 
BRANCH  25  26
HETATM   26  O2  UNL     1      17.852  61.737  24.185  1.00  0.00    -0.311 OA
BRANCH  26  27
HETATM   27  C10 UNL     1      18.843  61.453  25.112  1.00  0.00     0.269 C 
HETATM   28  O3  UNL     1      18.954  60.254  25.540  1.00  0.00    -0.264 OA
BRANCH  27  29
HETATM   29  C11 UNL     1      19.775  62.474  25.623  1.00  0.00     0.192 C 
BRANCH  29  30
HETATM   30  S1  UNL     1      19.279  63.166  27.219  1.00  0.00    -0.095 SA
BRANCH  30  31
HETATM   31  C12 UNL     1      17.549  63.687  27.137  1.00  0.00     0.112 A 
HETATM   32  N2  UNL     1      16.458  63.103  27.568  1.00  0.00    -0.344 N 
HETATM   33  C13 UNL     1      15.301  63.668  27.393  1.00  0.00     0.057 A 
ATOM     34  H2  UNL     1      16.518  62.202  28.041  1.00  0.00     0.167 HD
HETATM   35  C18 UNL     1      15.277  64.879  26.751  1.00  0.00     0.083 A 
HETATM   36  S3  UNL     1      16.931  65.141  26.431  1.00  0.00    -0.075 SA
BRANCH  33  37
HETATM   37  C14 UNL     1      14.045  63.029  27.877  1.00  0.00     0.032 A 
HETATM   38  C15 UNL     1      12.934  62.713  27.150  1.00  0.00     0.021 A 
HETATM   39  C16 UNL     1      11.910  62.138  27.803  1.00  0.00     0.008 A 
HETATM   40  C17 UNL     1      12.066  61.917  29.144  1.00  0.00     0.050 A 
HETATM   41  S2  UNL     1      13.633  62.518  29.452  1.00  0.00    -0.100 SA
ENDBRANCH  33  37
ENDBRANCH  30  31
ENDBRANCH  29  30
ENDBRANCH  27  29
ENDBRANCH  26  27
ENDBRANCH  25  26
ENDBRANCH   3  25
TORSDOF 8
ENDMDL
