MODEL 1
REMARK VINA RESULT: -8.726323565      0.000      0.000
REMARK  10 active torsions:
REMARK  status: ('A' for Active; 'I' for Inactive)
REMARK    1  A    between atoms: C2_2  and  C3_3 
REMARK    2  A    between atoms: C3_3  and  S1_4 
REMARK    3  A    between atoms: S1_4  and  C4_5 
REMARK    4  A    between atoms: C4_5  and  C5_7 
REMARK    5  A    between atoms: C5_7  and  C6_8 
REMARK    6  A    between atoms: C5_7  and  S2_13 
REMARK    7  A    between atoms: C6_8  and  C7_9 
REMARK    8  A    between atoms: C7_9  and  O3_11 
REMARK    9  A    between atoms: S2_13  and  C9_14 
REMARK   10  A    between atoms: N2_26  and  C18_27 
ROOT
HETATM    1  C9  UNL     1      15.667  63.760  23.903  1.00  0.00     0.148 A 
HETATM    2  N1  UNL     1      14.421  64.202  24.145  1.00  0.00    -0.330 N 
ATOM      3  H1  UNL     1      13.895  63.790  24.916  1.00  0.00     0.168 HD
HETATM    4  C10 UNL     1      13.833  65.185  23.396  1.00  0.00     0.093 A 
HETATM    5  S3  UNL     1      12.301  65.931  23.445  1.00  0.00    -0.070 SA
HETATM    6  C11 UNL     1      12.508  67.001  22.128  1.00  0.00     0.036 A 
HETATM    7  C12 UNL     1      11.660  67.952  21.569  1.00  0.00     0.009 A 
HETATM    8  C13 UNL     1      10.417  68.035  22.093  1.00  0.00     0.015 A 
HETATM    9  C14 UNL     1       9.512  68.934  21.519  1.00  0.00     0.001 A 
HETATM   10  C15 UNL     1       9.899  69.704  20.450  1.00  0.00     0.002 A 
HETATM   11  C16 UNL     1      11.189  69.600  19.927  1.00  0.00     0.031 A 
HETATM   12  C17 UNL     1      12.094  68.727  20.477  1.00  0.00     0.050 A 
HETATM   13  N2  UNL     1      13.336  68.496  20.043  1.00  0.00    -0.303 N 
HETATM   14  C24 UNL     1      14.161  67.537  20.607  1.00  0.00     0.261 A 
HETATM   15  O4  UNL     1      15.264  67.454  20.052  1.00  0.00    -0.267 OA
HETATM   16  C25 UNL     1      13.771  66.750  21.680  1.00  0.00     0.069 A 
HETATM   17  C26 UNL     1      14.479  65.782  22.352  1.00  0.00     0.083 A 
HETATM   18  C27 UNL     1      15.784  65.313  22.106  1.00  0.00     0.261 A 
HETATM   19  O5  UNL     1      16.543  65.715  21.212  1.00  0.00    -0.267 OA
HETATM   20  N3  UNL     1      16.301  64.338  22.886  1.00  0.00    -0.303 N 
ATOM     21  H3  UNL     1      17.249  64.023  22.680  1.00  0.00     0.171 HD
ENDROOT
BRANCH   1  22
HETATM   22  S2  UNL     1      16.407  62.466  24.886  1.00  0.00    -0.080 SA
BRANCH  22  23
HETATM   23  C5  UNL     1      18.107  62.192  24.403  1.00  0.00     0.145 C 
BRANCH  23  24
HETATM   24  C4  UNL     1      18.943  63.342  24.826  1.00  0.00     0.201 C 
HETATM   25  O1  UNL     1      18.876  64.369  24.149  1.00  0.00    -0.284 OA
BRANCH  24  26
HETATM   26  S1  UNL     1      20.010  63.232  26.275  1.00  0.00    -0.088 SA
BRANCH  26  27
HETATM   27  C3  UNL     1      20.639  64.892  26.618  1.00  0.00     0.108 C 
BRANCH  27  28
HETATM   28  C2  UNL     1      22.015  65.085  26.112  1.00  0.00    -0.026 C 
HETATM   29  C1  UNL     1      22.669  66.240  26.228  1.00  0.00     0.007 C 
ENDBRANCH  27  28
ENDBRANCH  26  27
ENDBRANCH  24  26
ENDBRANCH  23  24
BRANCH  23  30
HETATM   30  C6  UNL     1      18.660  60.875  24.822  1.00  0.00     0.135 C 
BRANCH  30  31
HETATM   31  C7  UNL     1      18.816  59.883  23.754  1.00  0.00     0.259 C 
HETATM   32  O2  UNL     1      18.217  59.943  22.657  1.00  0.00    -0.265 OA
BRANCH  31  33
HETATM   33  O3  UNL     1      19.687  58.799  23.961  1.00  0.00    -0.326 OA
HETATM   34  C8  UNL     1      19.698  58.228  25.254  1.00  0.00     0.213 C 
ENDBRANCH  31  33
ENDBRANCH  30  31
ENDBRANCH  23  30
ENDBRANCH  22  23
ENDBRANCH   1  22
BRANCH  13  35
HETATM   35  C18 UNL     1      13.941  69.368  19.048  1.00  0.00     0.037 C 
HETATM   36  C19 UNL     1      13.422  70.795  19.211  1.00  0.00     0.039 C 
HETATM   37  C20 UNL     1      13.251  68.884  17.726  1.00  0.00     0.031 C 
HETATM   38  C21 UNL     1      14.373  68.677  16.687  1.00  0.00     0.002 C 
HETATM   39  C22 UNL     1      15.310  69.743  17.103  1.00  0.00     0.002 C 
HETATM   40  C23 UNL     1      15.318  69.287  18.624  1.00  0.00     0.031 C 
ENDBRANCH  13  35
TORSDOF 10
ENDMDL
MODEL 2
REMARK VINA RESULT: -8.559330404      1.040      1.279
REMARK  10 active torsions:
REMARK  status: ('A' for Active; 'I' for Inactive)
REMARK    1  A    between atoms: C2_2  and  C3_3 
REMARK    2  A    between atoms: C3_3  and  S1_4 
REMARK    3  A    between atoms: S1_4  and  C4_5 
REMARK    4  A    between atoms: C4_5  and  C5_7 
REMARK    5  A    between atoms: C5_7  and  C6_8 
REMARK    6  A    between atoms: C5_7  and  S2_13 
REMARK    7  A    between atoms: C6_8  and  C7_9 
REMARK    8  A    between atoms: C7_9  and  O3_11 
REMARK    9  A    between atoms: S2_13  and  C9_14 
REMARK   10  A    between atoms: N2_26  and  C18_27 
ROOT
HETATM    1  C9  UNL     1      15.762  63.841  23.918  1.00  0.00     0.148 A 
HETATM    2  N1  UNL     1      14.516  64.268  24.188  1.00  0.00    -0.330 N 
ATOM      3  H1  UNL     1      14.025  63.871  24.989  1.00  0.00     0.168 HD
HETATM    4  C10 UNL     1      13.884  65.214  23.428  1.00  0.00     0.093 A 
HETATM    5  S3  UNL     1      12.341  65.934  23.506  1.00  0.00    -0.070 SA
HETATM    6  C11 UNL     1      12.482  66.963  22.149  1.00  0.00     0.036 A 
HETATM    7  C12 UNL     1      11.598  67.879  21.589  1.00  0.00     0.009 A 
HETATM    8  C13 UNL     1      10.371  67.956  22.151  1.00  0.00     0.015 A 
HETATM    9  C14 UNL     1       9.430  68.819  21.581  1.00  0.00     0.001 A 
HETATM   10  C15 UNL     1       9.766  69.560  20.474  1.00  0.00     0.002 A 
HETATM   11  C16 UNL     1      11.039  69.463  19.911  1.00  0.00     0.031 A 
HETATM   12  C17 UNL     1      11.979  68.626  20.457  1.00  0.00     0.050 A 
HETATM   13  N2  UNL     1      13.210  68.403  19.989  1.00  0.00    -0.303 N 
HETATM   14  C24 UNL     1      14.073  67.479  20.555  1.00  0.00     0.261 A 
HETATM   15  O4  UNL     1      15.157  67.398  19.966  1.00  0.00    -0.267 OA
HETATM   16  C25 UNL     1      13.735  66.721  21.666  1.00  0.00     0.069 A 
HETATM   17  C26 UNL     1      14.483  65.789  22.344  1.00  0.00     0.083 A 
HETATM   18  C27 UNL     1      15.788  65.336  22.069  1.00  0.00     0.261 A 
HETATM   19  O5  UNL     1      16.508  65.722  21.137  1.00  0.00    -0.267 OA
HETATM   20  N3  UNL     1      16.350  64.397  22.862  1.00  0.00    -0.303 N 
ATOM     21  H3  UNL     1      17.296  64.092  22.634  1.00  0.00     0.171 HD
ENDROOT
BRANCH   1  22
HETATM   22  S2  UNL     1      16.559  62.594  24.916  1.00  0.00    -0.080 SA
BRANCH  22  23
HETATM   23  C5  UNL     1      18.280  62.418  24.460  1.00  0.00     0.145 C 
BRANCH  23  24
HETATM   24  C4  UNL     1      19.053  63.585  24.948  1.00  0.00     0.201 C 
HETATM   25  O1  UNL     1      18.813  64.678  24.432  1.00  0.00    -0.284 OA
BRANCH  24  26
HETATM   26  S1  UNL     1      20.292  63.404  26.246  1.00  0.00    -0.088 SA
BRANCH  26  27
HETATM   27  C3  UNL     1      19.419  63.311  27.826  1.00  0.00     0.108 C 
BRANCH  27  28
HETATM   28  C2  UNL     1      18.463  64.425  28.005  1.00  0.00    -0.026 C 
HETATM   29  C1  UNL     1      17.176  64.230  28.294  1.00  0.00     0.007 C 
ENDBRANCH  27  28
ENDBRANCH  26  27
ENDBRANCH  24  26
ENDBRANCH  23  24
BRANCH  23  30
HETATM   30  C6  UNL     1      18.885  61.111  24.839  1.00  0.00     0.135 C 
BRANCH  30  31
HETATM   31  C7  UNL     1      18.860  60.076  23.801  1.00  0.00     0.259 C 
HETATM   32  O2  UNL     1      18.179  60.158  22.754  1.00  0.00    -0.265 OA
BRANCH  31  33
HETATM   33  O3  UNL     1      19.643  58.921  23.979  1.00  0.00    -0.326 OA
HETATM   34  C8  UNL     1      19.723  58.402  25.291  1.00  0.00     0.213 C 
ENDBRANCH  31  33
ENDBRANCH  30  31
ENDBRANCH  23  30
ENDBRANCH  22  23
ENDBRANCH   1  22
BRANCH  13  35
HETATM   35  C18 UNL     1      13.764  69.253  18.946  1.00  0.00     0.037 C 
HETATM   36  C19 UNL     1      13.265  70.687  19.113  1.00  0.00     0.039 C 
HETATM   37  C20 UNL     1      12.999  68.752  17.674  1.00  0.00     0.031 C 
HETATM   38  C21 UNL     1      14.059  68.518  16.578  1.00  0.00     0.002 C 
HETATM   39  C22 UNL     1      15.024  69.584  16.922  1.00  0.00     0.002 C 
HETATM   40  C23 UNL     1      15.115  69.155  18.448  1.00  0.00     0.031 C 
ENDBRANCH  13  35
TORSDOF 10
ENDMDL
MODEL 3
REMARK VINA RESULT: -8.445280970      5.423      8.000
REMARK  10 active torsions:
REMARK  status: ('A' for Active; 'I' for Inactive)
REMARK    1  A    between atoms: C2_2  and  C3_3 
REMARK    2  A    between atoms: C3_3  and  S1_4 
REMARK    3  A    between atoms: S1_4  and  C4_5 
REMARK    4  A    between atoms: C4_5  and  C5_7 
REMARK    5  A    between atoms: C5_7  and  C6_8 
REMARK    6  A    between atoms: C5_7  and  S2_13 
REMARK    7  A    between atoms: C6_8  and  C7_9 
REMARK    8  A    between atoms: C7_9  and  O3_11 
REMARK    9  A    between atoms: S2_13  and  C9_14 
REMARK   10  A    between atoms: N2_26  and  C18_27 
ROOT
HETATM    1  C9  UNL     1      16.366  63.355  24.956  1.00  0.00     0.148 A 
HETATM    2  N1  UNL     1      15.386  64.253  24.757  1.00  0.00    -0.330 N 
ATOM      3  H1  UNL     1      15.445  64.875  23.951  1.00  0.00     0.168 HD
HETATM    4  C10 UNL     1      14.310  64.362  25.596  1.00  0.00     0.093 A 
HETATM    5  S3  UNL     1      12.945  65.383  25.617  1.00  0.00    -0.070 SA
HETATM    6  C11 UNL     1      12.203  64.770  27.030  1.00  0.00     0.036 A 
HETATM    7  C12 UNL     1      11.021  65.115  27.677  1.00  0.00     0.009 A 
HETATM    8  C13 UNL     1      10.336  66.161  27.164  1.00  0.00     0.015 A 
HETATM    9  C14 UNL     1       9.174  66.582  27.820  1.00  0.00     0.001 A 
HETATM   10  C15 UNL     1       8.760  65.934  28.957  1.00  0.00     0.002 A 
HETATM   11  C16 UNL     1       9.485  64.857  29.468  1.00  0.00     0.031 A 
HETATM   12  C17 UNL     1      10.625  64.425  28.838  1.00  0.00     0.050 A 
HETATM   13  N2  UNL     1      11.434  63.444  29.248  1.00  0.00    -0.303 N 
HETATM   14  C24 UNL     1      12.612  63.121  28.596  1.00  0.00     0.261 A 
HETATM   15  O4  UNL     1      13.236  62.202  29.141  1.00  0.00    -0.267 OA
HETATM   16  C25 UNL     1      13.041  63.779  27.452  1.00  0.00     0.069 A 
HETATM   17  C26 UNL     1      14.164  63.561  26.692  1.00  0.00     0.083 A 
HETATM   18  C27 UNL     1      15.197  62.624  26.892  1.00  0.00     0.261 A 
HETATM   19  O5  UNL     1      15.263  61.805  27.820  1.00  0.00    -0.267 OA
HETATM   20  N3  UNL     1      16.230  62.573  26.023  1.00  0.00    -0.303 N 
ATOM     21  H3  UNL     1      16.960  61.882  26.199  1.00  0.00     0.171 HD
ENDROOT
BRANCH   1  22
HETATM   22  S2  UNL     1      17.767  63.244  23.855  1.00  0.00    -0.080 SA
BRANCH  22  23
HETATM   23  C5  UNL     1      18.840  61.892  24.325  1.00  0.00     0.145 C 
BRANCH  23  24
HETATM   24  C4  UNL     1      19.354  62.110  25.699  1.00  0.00     0.201 C 
HETATM   25  O1  UNL     1      19.052  61.276  26.554  1.00  0.00    -0.284 OA
BRANCH  24  26
HETATM   26  S1  UNL     1      20.381  63.539  26.092  1.00  0.00    -0.088 SA
BRANCH  26  27
HETATM   27  C3  UNL     1      20.002  64.034  27.789  1.00  0.00     0.108 C 
BRANCH  27  28
HETATM   28  C2  UNL     1      18.633  64.578  27.921  1.00  0.00    -0.026 C 
HETATM   29  C1  UNL     1      17.825  64.256  28.930  1.00  0.00     0.007 C 
ENDBRANCH  27  28
ENDBRANCH  26  27
ENDBRANCH  24  26
ENDBRANCH  23  24
BRANCH  23  30
HETATM   30  C6  UNL     1      18.248  60.540  24.125  1.00  0.00     0.135 C 
BRANCH  30  31
HETATM   31  C7  UNL     1      18.939  59.682  23.158  1.00  0.00     0.259 C 
HETATM   32  O2  UNL     1      18.943  59.889  21.923  1.00  0.00    -0.265 OA
BRANCH  31  33
HETATM   33  O3  UNL     1      19.641  58.560  23.631  1.00  0.00    -0.326 OA
HETATM   34  C8  UNL     1      19.579  58.309  25.021  1.00  0.00     0.213 C 
ENDBRANCH  31  33
ENDBRANCH  30  31
ENDBRANCH  23  30
ENDBRANCH  22  23
ENDBRANCH   1  22
BRANCH  13  35
HETATM   35  C18 UNL     1      11.022  62.552  30.322  1.00  0.00     0.037 C 
HETATM   36  C19 UNL     1      12.084  62.522  31.419  1.00  0.00     0.039 C 
HETATM   37  C20 UNL     1      11.161  61.144  29.650  1.00  0.00     0.031 C 
HETATM   38  C21 UNL     1       9.853  60.379  29.940  1.00  0.00     0.002 C 
HETATM   39  C22 UNL     1       9.527  60.924  31.276  1.00  0.00     0.002 C 
HETATM   40  C23 UNL     1       9.669  62.436  30.810  1.00  0.00     0.031 C 
ENDBRANCH  13  35
TORSDOF 10
ENDMDL
MODEL 4
REMARK VINA RESULT: -8.409885855      4.952      8.931
REMARK  10 active torsions:
REMARK  status: ('A' for Active; 'I' for Inactive)
REMARK    1  A    between atoms: C2_2  and  C3_3 
REMARK    2  A    between atoms: C3_3  and  S1_4 
REMARK    3  A    between atoms: S1_4  and  C4_5 
REMARK    4  A    between atoms: C4_5  and  C5_7 
REMARK    5  A    between atoms: C5_7  and  C6_8 
REMARK    6  A    between atoms: C5_7  and  S2_13 
REMARK    7  A    between atoms: C6_8  and  C7_9 
REMARK    8  A    between atoms: C7_9  and  O3_11 
REMARK    9  A    between atoms: S2_13  and  C9_14 
REMARK   10  A    between atoms: N2_26  and  C18_27 
ROOT
HETATM    1  C9  UNL     1      14.441  66.390  23.598  1.00  0.00     0.148 A 
HETATM    2  N1  UNL     1      13.337  67.028  24.023  1.00  0.00    -0.330 N 
ATOM      3  H1  UNL     1      13.033  67.867  23.529  1.00  0.00     0.168 HD
HETATM    4  C10 UNL     1      12.605  66.592  25.094  1.00  0.00     0.093 A 
HETATM    5  S3  UNL     1      11.201  67.177  25.864  1.00  0.00    -0.070 SA
HETATM    6  C11 UNL     1      11.074  65.983  27.081  1.00  0.00     0.036 A 
HETATM    7  C12 UNL     1      10.145  65.798  28.100  1.00  0.00     0.009 A 
HETATM    8  C13 UNL     1       9.189  66.745  28.224  1.00  0.00     0.015 A 
HETATM    9  C14 UNL     1       8.272  66.631  29.275  1.00  0.00     0.001 A 
HETATM   10  C15 UNL     1       8.361  65.574  30.147  1.00  0.00     0.002 A 
HETATM   11  C16 UNL     1       9.358  64.609  29.998  1.00  0.00     0.031 A 
HETATM   12  C17 UNL     1      10.265  64.699  28.972  1.00  0.00     0.050 A 
HETATM   13  N2  UNL     1      11.292  63.875  28.748  1.00  0.00    -0.303 N 
HETATM   14  C24 UNL     1      12.212  64.082  27.734  1.00  0.00     0.261 A 
HETATM   15  O4  UNL     1      13.105  63.226  27.702  1.00  0.00    -0.267 OA
HETATM   16  C25 UNL     1      12.133  65.153  26.856  1.00  0.00     0.069 A 
HETATM   17  C26 UNL     1      12.951  65.476  25.800  1.00  0.00     0.083 A 
HETATM   18  C27 UNL     1      14.109  64.815  25.347  1.00  0.00     0.261 A 
HETATM   19  O5  UNL     1      14.598  63.788  25.841  1.00  0.00    -0.267 OA
HETATM   20  N3  UNL     1      14.783  65.302  24.283  1.00  0.00    -0.303 N 
ATOM     21  H3  UNL     1      15.617  64.798  23.982  1.00  0.00     0.171 HD
ENDROOT
BRANCH   1  22
HETATM   22  S2  UNL     1      15.387  66.987  22.206  1.00  0.00    -0.080 SA
BRANCH  22  23
HETATM   23  C5  UNL     1      15.324  65.825  20.848  1.00  0.00     0.145 C 
BRANCH  23  24
HETATM   24  C4  UNL     1      14.842  66.508  19.623  1.00  0.00     0.201 C 
HETATM   25  O1  UNL     1      14.722  65.824  18.605  1.00  0.00    -0.284 OA
BRANCH  24  26
HETATM   26  S1  UNL     1      14.448  68.267  19.631  1.00  0.00    -0.088 SA
BRANCH  26  27
HETATM   27  C3  UNL     1      14.746  68.903  17.965  1.00  0.00     0.108 C 
BRANCH  27  28
HETATM   28  C2  UNL     1      13.536  68.837  17.117  1.00  0.00    -0.026 C 
HETATM   29  C1  UNL     1      12.334  68.525  17.601  1.00  0.00     0.007 C 
ENDBRANCH  27  28
ENDBRANCH  26  27
ENDBRANCH  24  26
ENDBRANCH  23  24
BRANCH  23  30
HETATM   30  C6  UNL     1      16.582  65.057  20.638  1.00  0.00     0.135 C 
BRANCH  30  31
HETATM   31  C7  UNL     1      17.033  64.255  21.780  1.00  0.00     0.259 C 
HETATM   32  O2  UNL     1      18.172  64.351  22.291  1.00  0.00    -0.265 OA
BRANCH  31  33
HETATM   33  O3  UNL     1      16.144  63.322  22.343  1.00  0.00    -0.326 OA
HETATM   34  C8  UNL     1      16.637  62.533  23.407  1.00  0.00     0.213 C 
ENDBRANCH  31  33
ENDBRANCH  30  31
ENDBRANCH  23  30
ENDBRANCH  22  23
ENDBRANCH   1  22
BRANCH  13  35
HETATM   35  C18 UNL     1      11.396  62.617  29.471  1.00  0.00     0.037 C 
HETATM   36  C19 UNL     1      12.801  62.453  30.046  1.00  0.00     0.039 C 
HETATM   37  C20 UNL     1      11.360  61.567  28.308  1.00  0.00     0.031 C 
HETATM   38  C21 UNL     1      10.326  60.494  28.706  1.00  0.00     0.002 C 
HETATM   39  C22 UNL     1      10.510  60.492  30.174  1.00  0.00     0.002 C 
HETATM   40  C23 UNL     1      10.352  62.067  30.302  1.00  0.00     0.031 C 
ENDBRANCH  13  35
TORSDOF 10
ENDMDL
MODEL 5
REMARK VINA RESULT: -8.400126842      0.758      1.144
REMARK  10 active torsions:
REMARK  status: ('A' for Active; 'I' for Inactive)
REMARK    1  A    between atoms: C2_2  and  C3_3 
REMARK    2  A    between atoms: C3_3  and  S1_4 
REMARK    3  A    between atoms: S1_4  and  C4_5 
REMARK    4  A    between atoms: C4_5  and  C5_7 
REMARK    5  A    between atoms: C5_7  and  C6_8 
REMARK    6  A    between atoms: C5_7  and  S2_13 
REMARK    7  A    between atoms: C6_8  and  C7_9 
REMARK    8  A    between atoms: C7_9  and  O3_11 
REMARK    9  A    between atoms: S2_13  and  C9_14 
REMARK   10  A    between atoms: N2_26  and  C18_27 
ROOT
HETATM    1  C9  UNL     1      15.728  63.811  23.518  1.00  0.00     0.148 A 
HETATM    2  N1  UNL     1      14.592  64.476  23.789  1.00  0.00    -0.330 N 
ATOM      3  H1  UNL     1      14.077  64.243  24.638  1.00  0.00     0.168 HD
HETATM    4  C10 UNL     1      14.102  65.455  22.968  1.00  0.00     0.093 A 
HETATM    5  S3  UNL     1      12.715  66.446  23.031  1.00  0.00    -0.070 SA
HETATM    6  C11 UNL     1      12.971  67.318  21.583  1.00  0.00     0.036 A 
HETATM    7  C12 UNL     1      12.238  68.329  20.972  1.00  0.00     0.009 A 
HETATM    8  C13 UNL     1      11.073  68.672  21.566  1.00  0.00     0.015 A 
HETATM    9  C14 UNL     1      10.273  69.642  20.951  1.00  0.00     0.001 A 
HETATM   10  C15 UNL     1      10.682  70.216  19.772  1.00  0.00     0.002 A 
HETATM   11  C16 UNL     1      11.889  69.844  19.179  1.00  0.00     0.031 A 
HETATM   12  C17 UNL     1      12.690  68.899  19.767  1.00  0.00     0.050 A 
HETATM   13  N2  UNL     1      13.839  68.419  19.281  1.00  0.00    -0.303 N 
HETATM   14  C24 UNL     1      14.550  67.405  19.899  1.00  0.00     0.261 A 
HETATM   15  O4  UNL     1      15.573  67.081  19.284  1.00  0.00    -0.267 OA
HETATM   16  C25 UNL     1      14.137  66.814  21.084  1.00  0.00     0.069 A 
HETATM   17  C26 UNL     1      14.740  65.821  21.818  1.00  0.00     0.083 A 
HETATM   18  C27 UNL     1      15.929  65.119  21.543  1.00  0.00     0.261 A 
HETATM   19  O5  UNL     1      16.661  65.291  20.557  1.00  0.00    -0.267 OA
HETATM   20  N3  UNL     1      16.353  64.163  22.398  1.00  0.00    -0.303 N 
ATOM     21  H3  UNL     1      17.219  63.674  22.167  1.00  0.00     0.171 HD
ENDROOT
BRANCH   1  22
HETATM   22  S2  UNL     1      16.338  62.526  24.597  1.00  0.00    -0.080 SA
BRANCH  22  23
HETATM   23  C5  UNL     1      18.077  62.223  24.306  1.00  0.00     0.145 C 
BRANCH  23  24
HETATM   24  C4  UNL     1      18.880  63.362  24.814  1.00  0.00     0.201 C 
HETATM   25  O1  UNL     1      18.813  64.422  24.192  1.00  0.00    -0.284 OA
BRANCH  24  26
HETATM   26  S1  UNL     1      19.907  63.192  26.286  1.00  0.00    -0.088 SA
BRANCH  26  27
HETATM   27  C3  UNL     1      19.973  64.806  27.097  1.00  0.00     0.108 C 
BRANCH  27  28
HETATM   28  C2  UNL     1      21.008  65.685  26.510  1.00  0.00    -0.026 C 
HETATM   29  C1  UNL     1      22.195  65.231  26.109  1.00  0.00     0.007 C 
ENDBRANCH  27  28
ENDBRANCH  26  27
ENDBRANCH  24  26
ENDBRANCH  23  24
BRANCH  23  30
HETATM   30  C6  UNL     1      18.559  60.900  24.789  1.00  0.00     0.135 C 
BRANCH  30  31
HETATM   31  C7  UNL     1      18.764  59.883  23.754  1.00  0.00     0.259 C 
HETATM   32  O2  UNL     1      18.162  59.876  22.656  1.00  0.00    -0.265 OA
BRANCH  31  33
HETATM   33  O3  UNL     1      19.689  58.851  23.994  1.00  0.00    -0.326 OA
HETATM   34  C8  UNL     1      19.714  58.309  25.299  1.00  0.00     0.213 C 
ENDBRANCH  31  33
ENDBRANCH  30  31
ENDBRANCH  23  30
ENDBRANCH  22  23
ENDBRANCH   1  22
BRANCH  13  35
HETATM   35  C18 UNL     1      14.484  69.066  18.148  1.00  0.00     0.037 C 
HETATM   36  C19 UNL     1      13.970  68.473  16.838  1.00  0.00     0.039 C 
HETATM   37  C20 UNL     1      15.946  68.512  18.244  1.00  0.00     0.031 C 
HETATM   38  C21 UNL     1      16.893  69.724  18.123  1.00  0.00     0.002 C 
HETATM   39  C22 UNL     1      16.105  70.575  17.204  1.00  0.00     0.002 C 
HETATM   40  C23 UNL     1      14.783  70.476  18.078  1.00  0.00     0.031 C 
ENDBRANCH  13  35
TORSDOF 10
ENDMDL
