MODEL 1
REMARK VINA RESULT: -9.148864973      0.000      0.000
REMARK  11 active torsions:
REMARK  status: ('A' for Active; 'I' for Inactive)
REMARK    1  A    between atoms: C3_3  and  C4_4 
REMARK    2  A    between atoms: C4_4  and  O1_5 
REMARK    3  A    between atoms: C4_4  and  N1_7 
REMARK    4  A    between atoms: N1_7  and  C5_8 
REMARK    5  A    between atoms: N1_7  and  C17_24 
REMARK    6  A    between atoms: C5_8  and  S1_9 
REMARK    7  A    between atoms: S1_9  and  C6_10 
REMARK    8  A    between atoms: C6_10  and  C7_11 
REMARK    9  A    between atoms: C7_11  and  O3_13 
REMARK   10  A    between atoms: O3_13  and  C8_14 
REMARK   11  A    between atoms: C8_14  and  C9_15 
ROOT
HETATM    1  N1  UNL     1      13.506  63.213  27.652  1.00  0.00    -0.315 N 
ENDROOT
BRANCH   1   2
HETATM    2  C4  UNL     1      13.357  64.293  26.791  1.00  0.00     0.161 C 
BRANCH   2   3
HETATM    3  C3  UNL     1      13.859  64.691  25.494  1.00  0.00     0.065 A 
HETATM    4  C2  UNL     1      14.573  64.197  24.470  1.00  0.00    -0.022 A 
HETATM    5  C1  UNL     1      14.843  62.713  24.397  1.00  0.00     0.051 C 
HETATM    6  C27 UNL     1      14.946  65.026  23.456  1.00  0.00     0.073 A 
HETATM    7  C23 UNL     1      14.558  66.315  23.551  1.00  0.00     0.093 A 
HETATM    8  C26 UNL     1      15.698  64.748  22.315  1.00  0.00     0.263 A 
HETATM    9  S2  UNL     1      13.699  66.389  25.005  1.00  0.00    -0.067 SA
HETATM   10  N2  UNL     1      14.837  67.295  22.650  1.00  0.00    -0.326 N 
HETATM   11  C24 UNL     1      15.562  67.001  21.555  1.00  0.00     0.181 A 
ATOM     12  H2  UNL     1      14.499  68.245  22.804  1.00  0.00     0.169 HD
HETATM   13  S3  UNL     1      15.926  68.135  20.442  1.00  0.00    -0.040 SA
HETATM   14  N3  UNL     1      15.960  65.746  21.435  1.00  0.00    -0.294 N 
HETATM   15  C25 UNL     1      16.754  65.446  20.233  1.00  0.00     0.162 C 
HETATM   16  O5  UNL     1      16.172  63.638  22.007  1.00  0.00    -0.267 OA
ENDBRANCH   2   3
BRANCH   2  17
HETATM   17  O1  UNL     1      12.527  65.200  27.331  1.00  0.00    -0.345 OA
ATOM     18  H1  UNL     1      12.792  65.471  28.202  1.00  0.00     0.219 HD
ENDBRANCH   2  17
ENDBRANCH   1   2
BRANCH   1  19
HETATM   19  C5  UNL     1      14.935  62.823  27.892  1.00  0.00     0.205 C 
BRANCH  19  20
HETATM   20  S1  UNL     1      15.950  64.112  28.536  1.00  0.00    -0.139 SA
BRANCH  20  21
HETATM   21  C6  UNL     1      17.565  64.309  27.830  1.00  0.00     0.186 C 
BRANCH  21  22
HETATM   22  C7  UNL     1      17.466  65.044  26.539  1.00  0.00     0.268 C 
HETATM   23  O2  UNL     1      16.925  66.165  26.526  1.00  0.00    -0.264 OA
BRANCH  22  24
HETATM   24  O3  UNL     1      17.960  64.500  25.389  1.00  0.00    -0.316 OA
BRANCH  24  25
HETATM   25  C8  UNL     1      19.241  63.936  25.360  1.00  0.00     0.217 C 
BRANCH  25  26
HETATM   26  C9  UNL     1      19.161  62.513  25.000  1.00  0.00    -0.031 A 
HETATM   27  C10 UNL     1      18.547  62.124  23.843  1.00  0.00     0.010 A 
HETATM   28  C11 UNL     1      18.486  60.780  23.529  1.00  0.00     0.015 A 
HETATM   29  C12 UNL     1      19.037  59.841  24.369  1.00  0.00    -0.001 A 
HETATM   30  C13 UNL     1      19.124  58.473  24.318  1.00  0.00     0.039 A 
HETATM   31  C15 UNL     1      19.652  60.243  25.528  1.00  0.00     0.085 A 
HETATM   32  C14 UNL     1      19.790  58.101  25.450  1.00  0.00     0.143 A 
HETATM   33  O4  UNL     1      20.080  59.166  26.127  1.00  0.00    -0.322 OA
HETATM   34  C16 UNL     1      19.725  61.578  25.863  1.00  0.00     0.047 A 
ENDBRANCH  25  26
ENDBRANCH  24  25
ENDBRANCH  22  24
ENDBRANCH  21  22
ENDBRANCH  20  21
ENDBRANCH  19  20
ENDBRANCH   1  19
BRANCH   1  35
HETATM   35  C17 UNL     1      12.606  62.437  28.384  1.00  0.00     0.076 A 
HETATM   36  C18 UNL     1      11.655  61.653  27.770  1.00  0.00     0.033 A 
HETATM   37  C19 UNL     1      10.772  60.862  28.466  1.00  0.00     0.002 A 
HETATM   38  C20 UNL     1      10.807  60.822  29.839  1.00  0.00     0.003 A 
HETATM   39  C21 UNL     1      11.739  61.590  30.479  1.00  0.00     0.044 A 
HETATM   40  C22 UNL     1      12.634  62.393  29.762  1.00  0.00     0.143 A 
HETATM   41  F1  UNL     1      13.489  63.116  30.529  1.00  0.00    -0.204 F 
ENDBRANCH   1  35
TORSDOF 11
ENDMDL
MODEL 2
REMARK VINA RESULT: -9.046131313      1.692      1.989
REMARK  11 active torsions:
REMARK  status: ('A' for Active; 'I' for Inactive)
REMARK    1  A    between atoms: C3_3  and  C4_4 
REMARK    2  A    between atoms: C4_4  and  O1_5 
REMARK    3  A    between atoms: C4_4  and  N1_7 
REMARK    4  A    between atoms: N1_7  and  C5_8 
REMARK    5  A    between atoms: N1_7  and  C17_24 
REMARK    6  A    between atoms: C5_8  and  S1_9 
REMARK    7  A    between atoms: S1_9  and  C6_10 
REMARK    8  A    between atoms: C6_10  and  C7_11 
REMARK    9  A    between atoms: C7_11  and  O3_13 
REMARK   10  A    between atoms: O3_13  and  C8_14 
REMARK   11  A    between atoms: C8_14  and  C9_15 
ROOT
HETATM    1  N1  UNL     1      13.977  63.081  28.771  1.00  0.00    -0.315 N 
ENDROOT
BRANCH   1   2
HETATM    2  C4  UNL     1      14.789  63.149  27.645  1.00  0.00     0.161 C 
BRANCH   2   3
HETATM    3  C3  UNL     1      14.906  63.988  26.473  1.00  0.00     0.065 A 
HETATM    4  C2  UNL     1      15.096  63.885  25.147  1.00  0.00    -0.022 A 
HETATM    5  C1  UNL     1      14.966  62.537  24.478  1.00  0.00     0.051 C 
HETATM    6  C27 UNL     1      15.292  65.014  24.412  1.00  0.00     0.073 A 
HETATM    7  C23 UNL     1      15.276  66.185  25.081  1.00  0.00     0.093 A 
HETATM    8  C26 UNL     1      15.529  65.152  23.045  1.00  0.00     0.263 A 
HETATM    9  S2  UNL     1      14.998  65.746  26.690  1.00  0.00    -0.067 SA
HETATM   10  N2  UNL     1      15.461  67.415  24.532  1.00  0.00    -0.326 N 
HETATM   11  C24 UNL     1      15.685  67.523  23.209  1.00  0.00     0.181 A 
ATOM     12  H2  UNL     1      15.430  68.250  25.117  1.00  0.00     0.169 HD
HETATM   13  S3  UNL     1      15.912  68.970  22.496  1.00  0.00    -0.040 SA
HETATM   14  N3  UNL     1      15.710  66.391  22.525  1.00  0.00    -0.294 N 
HETATM   15  C25 UNL     1      15.960  66.529  21.082  1.00  0.00     0.162 C 
HETATM   16  O5  UNL     1      15.596  64.222  22.219  1.00  0.00    -0.267 OA
ENDBRANCH   2   3
BRANCH   2  17
HETATM   17  O1  UNL     1      15.695  62.159  27.672  1.00  0.00    -0.345 OA
ATOM     18  H1  UNL     1      15.300  61.298  27.741  1.00  0.00     0.219 HD
ENDBRANCH   2  17
ENDBRANCH   1   2
BRANCH   1  19
HETATM   19  C5  UNL     1      14.339  64.073  29.837  1.00  0.00     0.205 C 
BRANCH  19  20
HETATM   20  S1  UNL     1      15.986  63.932  30.445  1.00  0.00    -0.139 SA
BRANCH  20  21
HETATM   21  C6  UNL     1      17.194  65.057  29.797  1.00  0.00     0.186 C 
BRANCH  21  22
HETATM   22  C7  UNL     1      18.217  64.307  29.017  1.00  0.00     0.268 C 
HETATM   23  O2  UNL     1      19.272  63.963  29.582  1.00  0.00    -0.264 OA
BRANCH  22  24
HETATM   24  O3  UNL     1      18.004  64.000  27.704  1.00  0.00    -0.316 OA
BRANCH  24  25
HETATM   25  C8  UNL     1      19.047  64.085  26.774  1.00  0.00     0.217 C 
BRANCH  25  26
HETATM   26  C9  UNL     1      18.967  62.972  25.817  1.00  0.00    -0.031 A 
HETATM   27  C10 UNL     1      18.612  63.199  24.517  1.00  0.00     0.010 A 
HETATM   28  C11 UNL     1      18.544  62.135  23.639  1.00  0.00     0.015 A 
HETATM   29  C12 UNL     1      18.830  60.859  24.065  1.00  0.00    -0.001 A 
HETATM   30  C13 UNL     1      18.844  59.641  23.434  1.00  0.00     0.039 A 
HETATM   31  C15 UNL     1      19.185  60.643  25.372  1.00  0.00     0.085 A 
HETATM   32  C14 UNL     1      19.209  58.733  24.387  1.00  0.00     0.143 A 
HETATM   33  O4  UNL     1      19.399  59.363  25.504  1.00  0.00    -0.322 OA
HETATM   34  C16 UNL     1      19.260  61.688  26.267  1.00  0.00     0.047 A 
ENDBRANCH  25  26
ENDBRANCH  24  25
ENDBRANCH  22  24
ENDBRANCH  21  22
ENDBRANCH  20  21
ENDBRANCH  19  20
ENDBRANCH   1  19
BRANCH   1  35
HETATM   35  C17 UNL     1      12.860  62.314  29.105  1.00  0.00     0.076 A 
HETATM   36  C18 UNL     1      12.544  62.022  30.413  1.00  0.00     0.033 A 
HETATM   37  C19 UNL     1      11.436  61.290  30.770  1.00  0.00     0.002 A 
HETATM   38  C20 UNL     1      10.580  60.809  29.809  1.00  0.00     0.003 A 
HETATM   39  C21 UNL     1      10.867  61.081  28.501  1.00  0.00     0.044 A 
HETATM   40  C22 UNL     1      11.997  61.828  28.145  1.00  0.00     0.143 A 
HETATM   41  F1  UNL     1      12.166  62.002  26.810  1.00  0.00    -0.204 F 
ENDBRANCH   1  35
TORSDOF 11
ENDMDL
MODEL 3
REMARK VINA RESULT: -8.913176713      1.545      1.805
REMARK  11 active torsions:
REMARK  status: ('A' for Active; 'I' for Inactive)
REMARK    1  A    between atoms: C3_3  and  C4_4 
REMARK    2  A    between atoms: C4_4  and  O1_5 
REMARK    3  A    between atoms: C4_4  and  N1_7 
REMARK    4  A    between atoms: N1_7  and  C5_8 
REMARK    5  A    between atoms: N1_7  and  C17_24 
REMARK    6  A    between atoms: C5_8  and  S1_9 
REMARK    7  A    between atoms: S1_9  and  C6_10 
REMARK    8  A    between atoms: C6_10  and  C7_11 
REMARK    9  A    between atoms: C7_11  and  O3_13 
REMARK   10  A    between atoms: O3_13  and  C8_14 
REMARK   11  A    between atoms: C8_14  and  C9_15 
ROOT
HETATM    1  N1  UNL     1      13.171  65.255  26.708  1.00  0.00    -0.315 N 
ENDROOT
BRANCH   1   2
HETATM    2  C4  UNL     1      13.158  65.924  25.490  1.00  0.00     0.161 C 
BRANCH   2   3
HETATM    3  C3  UNL     1      13.879  65.859  24.238  1.00  0.00     0.065 A 
HETATM    4  C2  UNL     1      14.643  65.009  23.532  1.00  0.00    -0.022 A 
HETATM    5  C1  UNL     1      14.704  63.554  23.931  1.00  0.00     0.051 C 
HETATM    6  C27 UNL     1      15.262  65.451  22.402  1.00  0.00     0.073 A 
HETATM    7  C23 UNL     1      15.054  66.739  22.059  1.00  0.00     0.093 A 
HETATM    8  C26 UNL     1      16.110  64.767  21.531  1.00  0.00     0.263 A 
HETATM    9  S2  UNL     1      14.031  67.335  23.266  1.00  0.00    -0.067 SA
HETATM   10  N2  UNL     1      15.588  67.368  20.978  1.00  0.00    -0.326 N 
HETATM   11  C24 UNL     1      16.401  66.686  20.150  1.00  0.00     0.181 A 
ATOM     12  H2  UNL     1      15.373  68.348  20.796  1.00  0.00     0.169 HD
HETATM   13  S3  UNL     1      17.068  67.387  18.839  1.00  0.00    -0.040 SA
HETATM   14  N3  UNL     1      16.627  65.421  20.461  1.00  0.00    -0.294 N 
HETATM   15  C25 UNL     1      17.521  64.694  19.546  1.00  0.00     0.162 C 
HETATM   16  O5  UNL     1      16.456  63.576  21.636  1.00  0.00    -0.267 OA
ENDBRANCH   2   3
BRANCH   2  17
HETATM   17  O1  UNL     1      12.223  66.887  25.505  1.00  0.00    -0.345 OA
ATOM     18  H1  UNL     1      11.368  66.576  25.233  1.00  0.00     0.219 HD
ENDBRANCH   2  17
ENDBRANCH   1   2
BRANCH   1  19
HETATM   19  C5  UNL     1      14.167  65.804  27.688  1.00  0.00     0.205 C 
BRANCH  19  20
HETATM   20  S1  UNL     1      15.629  66.463  26.959  1.00  0.00    -0.139 SA
BRANCH  20  21
HETATM   21  C6  UNL     1      16.927  65.323  26.558  1.00  0.00     0.186 C 
BRANCH  21  22
HETATM   22  C7  UNL     1      17.610  65.754  25.307  1.00  0.00     0.268 C 
HETATM   23  O2  UNL     1      17.414  66.908  24.882  1.00  0.00    -0.264 OA
BRANCH  22  24
HETATM   24  O3  UNL     1      18.438  64.901  24.636  1.00  0.00    -0.316 OA
BRANCH  24  25
HETATM   25  C8  UNL     1      19.381  64.132  25.328  1.00  0.00     0.217 C 
BRANCH  25  26
HETATM   26  C9  UNL     1      19.243  62.713  24.967  1.00  0.00    -0.031 A 
HETATM   27  C10 UNL     1      18.582  62.349  23.829  1.00  0.00     0.010 A 
HETATM   28  C11 UNL     1      18.467  61.008  23.514  1.00  0.00     0.015 A 
HETATM   29  C12 UNL     1      19.012  60.049  24.334  1.00  0.00    -0.001 A 
HETATM   30  C13 UNL     1      19.052  58.679  24.277  1.00  0.00     0.039 A 
HETATM   31  C15 UNL     1      19.674  60.427  25.474  1.00  0.00     0.085 A 
HETATM   32  C14 UNL     1      19.740  58.281  25.387  1.00  0.00     0.143 A 
HETATM   33  O4  UNL     1      20.085  59.335  26.057  1.00  0.00    -0.322 OA
HETATM   34  C16 UNL     1      19.802  61.757  25.810  1.00  0.00     0.047 A 
ENDBRANCH  25  26
ENDBRANCH  24  25
ENDBRANCH  22  24
ENDBRANCH  21  22
ENDBRANCH  20  21
ENDBRANCH  19  20
ENDBRANCH   1  19
BRANCH   1  35
HETATM   35  C17 UNL     1      12.418  64.205  27.236  1.00  0.00     0.076 A 
HETATM   36  C18 UNL     1      12.863  62.903  27.200  1.00  0.00     0.033 A 
HETATM   37  C19 UNL     1      12.152  61.854  27.734  1.00  0.00     0.002 A 
HETATM   38  C20 UNL     1      10.938  62.072  28.339  1.00  0.00     0.003 A 
HETATM   39  C21 UNL     1      10.469  63.354  28.390  1.00  0.00     0.044 A 
HETATM   40  C22 UNL     1      11.199  64.417  27.844  1.00  0.00     0.143 A 
HETATM   41  F1  UNL     1      10.601  65.631  27.949  1.00  0.00    -0.204 F 
ENDBRANCH   1  35
TORSDOF 11
ENDMDL
MODEL 4
REMARK VINA RESULT: -8.883773026      2.401      6.255
REMARK  11 active torsions:
REMARK  status: ('A' for Active; 'I' for Inactive)
REMARK    1  A    between atoms: C3_3  and  C4_4 
REMARK    2  A    between atoms: C4_4  and  O1_5 
REMARK    3  A    between atoms: C4_4  and  N1_7 
REMARK    4  A    between atoms: N1_7  and  C5_8 
REMARK    5  A    between atoms: N1_7  and  C17_24 
REMARK    6  A    between atoms: C5_8  and  S1_9 
REMARK    7  A    between atoms: S1_9  and  C6_10 
REMARK    8  A    between atoms: C6_10  and  C7_11 
REMARK    9  A    between atoms: C7_11  and  O3_13 
REMARK   10  A    between atoms: O3_13  and  C8_14 
REMARK   11  A    between atoms: C8_14  and  C9_15 
ROOT
HETATM    1  N1  UNL     1      18.048  62.501  24.392  1.00  0.00    -0.315 N 
ENDROOT
BRANCH   1   2
HETATM    2  C4  UNL     1      16.798  63.011  24.064  1.00  0.00     0.161 C 
BRANCH   2   3
HETATM    3  C3  UNL     1      16.255  63.958  23.115  1.00  0.00     0.065 A 
HETATM    4  C2  UNL     1      16.593  64.581  21.974  1.00  0.00    -0.022 A 
HETATM    5  C1  UNL     1      17.798  64.109  21.195  1.00  0.00     0.051 C 
HETATM    6  C27 UNL     1      15.779  65.555  21.481  1.00  0.00     0.073 A 
HETATM    7  C23 UNL     1      14.662  65.828  22.186  1.00  0.00     0.093 A 
HETATM    8  C26 UNL     1      15.932  66.345  20.341  1.00  0.00     0.263 A 
HETATM    9  S2  UNL     1      14.727  64.770  23.503  1.00  0.00    -0.067 SA
HETATM   10  N2  UNL     1      13.732  66.768  21.866  1.00  0.00    -0.326 N 
HETATM   11  C24 UNL     1      13.900  67.515  20.760  1.00  0.00     0.181 A 
ATOM     12  H2  UNL     1      12.914  66.904  22.460  1.00  0.00     0.169 HD
HETATM   13  S3  UNL     1      12.818  68.655  20.326  1.00  0.00    -0.040 SA
HETATM   14  N3  UNL     1      14.988  67.273  20.048  1.00  0.00    -0.294 N 
HETATM   15  C25 UNL     1      15.155  68.103  18.845  1.00  0.00     0.162 C 
HETATM   16  O5  UNL     1      16.878  66.286  19.535  1.00  0.00    -0.267 OA
ENDBRANCH   2   3
BRANCH   2  17
HETATM   17  O1  UNL     1      15.859  62.469  24.856  1.00  0.00    -0.345 OA
ATOM     18  H1  UNL     1      15.321  63.121  25.291  1.00  0.00     0.219 HD
ENDBRANCH   2  17
ENDBRANCH   1   2
BRANCH   1  19
HETATM   19  C5  UNL     1      19.034  63.549  24.821  1.00  0.00     0.205 C 
BRANCH  19  20
HETATM   20  S1  UNL     1      18.387  64.757  25.928  1.00  0.00    -0.139 SA
BRANCH  20  21
HETATM   21  C6  UNL     1      17.900  64.207  27.542  1.00  0.00     0.186 C 
BRANCH  21  22
HETATM   22  C7  UNL     1      16.416  64.248  27.664  1.00  0.00     0.268 C 
HETATM   23  O2  UNL     1      15.767  64.950  26.866  1.00  0.00    -0.264 OA
BRANCH  22  24
HETATM   24  O3  UNL     1      15.777  63.530  28.633  1.00  0.00    -0.316 OA
BRANCH  24  25
HETATM   25  C8  UNL     1      14.620  64.029  29.244  1.00  0.00     0.217 C 
BRANCH  25  26
HETATM   26  C9  UNL     1      13.483  63.133  28.988  1.00  0.00    -0.031 A 
HETATM   27  C10 UNL     1      13.037  62.926  27.713  1.00  0.00     0.010 A 
HETATM   28  C11 UNL     1      11.966  62.080  27.501  1.00  0.00     0.015 A 
HETATM   29  C12 UNL     1      11.353  61.449  28.559  1.00  0.00    -0.001 A 
HETATM   30  C13 UNL     1      10.297  60.580  28.649  1.00  0.00     0.039 A 
HETATM   31  C15 UNL     1      11.811  61.665  29.835  1.00  0.00     0.085 A 
HETATM   32  C14 UNL     1      10.157  60.301  29.978  1.00  0.00     0.143 A 
HETATM   33  O4  UNL     1      11.062  60.955  30.634  1.00  0.00    -0.322 OA
HETATM   34  C16 UNL     1      12.877  62.505  30.072  1.00  0.00     0.047 A 
ENDBRANCH  25  26
ENDBRANCH  24  25
ENDBRANCH  22  24
ENDBRANCH  21  22
ENDBRANCH  20  21
ENDBRANCH  19  20
ENDBRANCH   1  19
BRANCH   1  35
HETATM   35  C17 UNL     1      18.573  61.210  24.455  1.00  0.00     0.076 A 
HETATM   36  C18 UNL     1      18.531  60.355  23.376  1.00  0.00     0.033 A 
HETATM   37  C19 UNL     1      19.062  59.087  23.404  1.00  0.00     0.002 A 
HETATM   38  C20 UNL     1      19.671  58.612  24.540  1.00  0.00     0.003 A 
HETATM   39  C21 UNL     1      19.728  59.436  25.629  1.00  0.00     0.044 A 
HETATM   40  C22 UNL     1      19.185  60.726  25.593  1.00  0.00     0.143 A 
HETATM   41  F1  UNL     1      19.297  61.424  26.752  1.00  0.00    -0.204 F 
ENDBRANCH   1  35
TORSDOF 11
ENDMDL
MODEL 5
REMARK VINA RESULT: -8.762350629      2.445      6.203
REMARK  11 active torsions:
REMARK  status: ('A' for Active; 'I' for Inactive)
REMARK    1  A    between atoms: C3_3  and  C4_4 
REMARK    2  A    between atoms: C4_4  and  O1_5 
REMARK    3  A    between atoms: C4_4  and  N1_7 
REMARK    4  A    between atoms: N1_7  and  C5_8 
REMARK    5  A    between atoms: N1_7  and  C17_24 
REMARK    6  A    between atoms: C5_8  and  S1_9 
REMARK    7  A    between atoms: S1_9  and  C6_10 
REMARK    8  A    between atoms: C6_10  and  C7_11 
REMARK    9  A    between atoms: C7_11  and  O3_13 
REMARK   10  A    between atoms: O3_13  and  C8_14 
REMARK   11  A    between atoms: C8_14  and  C9_15 
ROOT
HETATM    1  N1  UNL     1      18.020  62.577  24.624  1.00  0.00    -0.315 N 
ENDROOT
BRANCH   1   2
HETATM    2  C4  UNL     1      16.742  63.095  24.448  1.00  0.00     0.161 C 
BRANCH   2   3
HETATM    3  C3  UNL     1      16.111  64.097  23.617  1.00  0.00     0.065 A 
HETATM    4  C2  UNL     1      15.037  64.903  23.612  1.00  0.00    -0.022 A 
HETATM    5  C1  UNL     1      14.244  65.097  24.883  1.00  0.00     0.051 C 
HETATM    6  C27 UNL     1      14.746  65.618  22.490  1.00  0.00     0.073 A 
HETATM    7  C23 UNL     1      15.579  65.468  21.440  1.00  0.00     0.093 A 
HETATM    8  C26 UNL     1      13.685  66.491  22.246  1.00  0.00     0.263 A 
HETATM    9  S2  UNL     1      16.740  64.365  21.980  1.00  0.00    -0.067 SA
HETATM   10  N2  UNL     1      15.455  66.085  20.234  1.00  0.00    -0.326 N 
HETATM   11  C24 UNL     1      14.425  66.925  20.024  1.00  0.00     0.181 A 
ATOM     12  H2  UNL     1      16.137  65.912  19.496  1.00  0.00     0.169 HD
HETATM   13  S3  UNL     1      14.226  67.693  18.600  1.00  0.00    -0.040 SA
HETATM   14  N3  UNL     1      13.587  67.091  21.034  1.00  0.00    -0.294 N 
HETATM   15  C25 UNL     1      12.467  68.011  20.782  1.00  0.00     0.162 C 
HETATM   16  O5  UNL     1      12.785  66.788  23.053  1.00  0.00    -0.267 OA
ENDBRANCH   2   3
BRANCH   2  17
HETATM   17  O1  UNL     1      15.884  62.496  25.287  1.00  0.00    -0.345 OA
ATOM     18  H1  UNL     1      15.464  63.105  25.884  1.00  0.00     0.219 HD
ENDBRANCH   2  17
ENDBRANCH   1   2
BRANCH   1  19
HETATM   19  C5  UNL     1      19.063  63.621  24.894  1.00  0.00     0.205 C 
BRANCH  19  20
HETATM   20  S1  UNL     1      18.560  64.894  26.002  1.00  0.00    -0.139 SA
BRANCH  20  21
HETATM   21  C6  UNL     1      18.135  64.416  27.656  1.00  0.00     0.186 C 
BRANCH  21  22
HETATM   22  C7  UNL     1      16.700  64.714  27.917  1.00  0.00     0.268 C 
HETATM   23  O2  UNL     1      16.337  65.903  27.995  1.00  0.00    -0.264 OA
BRANCH  22  24
HETATM   24  O3  UNL     1      15.795  63.703  28.068  1.00  0.00    -0.316 OA
BRANCH  24  25
HETATM   25  C8  UNL     1      15.047  63.586  29.245  1.00  0.00     0.217 C 
BRANCH  25  26
HETATM   26  C9  UNL     1      13.794  62.864  28.981  1.00  0.00    -0.031 A 
HETATM   27  C10 UNL     1      13.296  62.779  27.711  1.00  0.00     0.010 A 
HETATM   28  C11 UNL     1      12.117  62.095  27.492  1.00  0.00     0.015 A 
HETATM   29  C12 UNL     1      11.447  61.503  28.537  1.00  0.00    -0.001 A 
HETATM   30  C13 UNL     1      10.286  60.779  28.617  1.00  0.00     0.039 A 
HETATM   31  C15 UNL     1      11.957  61.594  29.808  1.00  0.00     0.085 A 
HETATM   32  C14 UNL     1      10.138  60.459  29.937  1.00  0.00     0.143 A 
HETATM   33  O4  UNL     1      11.136  60.955  30.595  1.00  0.00    -0.322 OA
HETATM   34  C16 UNL     1      13.131  62.272  30.052  1.00  0.00     0.047 A 
ENDBRANCH  25  26
ENDBRANCH  24  25
ENDBRANCH  22  24
ENDBRANCH  21  22
ENDBRANCH  20  21
ENDBRANCH  19  20
ENDBRANCH   1  19
BRANCH   1  35
HETATM   35  C17 UNL     1      18.535  61.280  24.652  1.00  0.00     0.076 A 
HETATM   36  C18 UNL     1      18.362  60.408  23.600  1.00  0.00     0.033 A 
HETATM   37  C19 UNL     1      18.880  59.134  23.592  1.00  0.00     0.002 A 
HETATM   38  C20 UNL     1      19.608  58.671  24.661  1.00  0.00     0.003 A 
HETATM   39  C21 UNL     1      19.796  59.513  25.721  1.00  0.00     0.044 A 
HETATM   40  C22 UNL     1      19.266  60.809  25.722  1.00  0.00     0.143 A 
HETATM   41  F1  UNL     1      19.515  61.525  26.847  1.00  0.00    -0.204 F 
ENDBRANCH   1  35
TORSDOF 11
ENDMDL
