MODEL 1
REMARK VINA RESULT: -10.063650604      0.000      0.000
REMARK  7 active torsions:
REMARK  status: ('A' for Active; 'I' for Inactive)
REMARK    1  A    between atoms: O1_2  and  C2_3 
REMARK    2  A    between atoms: C2_3  and  C12_18 
REMARK    3  A    between atoms: C3_4  and  C4_5 
REMARK       I    between atoms: C4_5  and  N1_7 
REMARK    4  A    between atoms: C15_21  and  C16_22 
REMARK    5  A    between atoms: C16_22  and  N2_23 
REMARK       I    between atoms: N2_23  and  C18_25 
REMARK    6  A    between atoms: C18_25  and  C19_27 
REMARK    7  A    between atoms: C21_30  and  C22_31 
ROOT
HETATM    1  C12 UNL     1      15.409  66.212  21.847  1.00  0.00     0.109 A 
HETATM    2  C13 UNL     1      14.367  66.742  22.568  1.00  0.00     0.042 A 
HETATM    3  C14 UNL     1      14.113  68.013  22.081  1.00  0.00     0.037 A 
HETATM    4  C15 UNL     1      15.032  68.196  21.070  1.00  0.00     0.071 A 
HETATM    5  O5  UNL     1      15.769  67.133  20.959  1.00  0.00    -0.311 OA
ENDROOT
BRANCH   1   6
HETATM    6  C2  UNL     1      16.019  64.916  21.995  1.00  0.00     0.107 C 
HETATM    7  C3  UNL     1      16.107  64.384  23.218  1.00  0.00     0.114 C 
BRANCH   6   8
HETATM    8  O1  UNL     1      16.522  64.187  20.934  1.00  0.00    -0.353 OA
HETATM    9  C1  UNL     1      17.721  64.461  20.266  1.00  0.00     0.210 C 
ENDBRANCH   6   8
BRANCH   7  10
HETATM   10  C4  UNL     1      16.710  63.085  23.432  1.00  0.00     0.250 C 
HETATM   11  O2  UNL     1      16.128  62.087  22.940  1.00  0.00    -0.268 OA
HETATM   12  N1  UNL     1      17.929  62.995  24.183  1.00  0.00    -0.312 N 
HETATM   13  C5  UNL     1      18.449  64.206  24.708  1.00  0.00     0.143 C 
HETATM   14  C11 UNL     1      18.483  61.689  24.312  1.00  0.00     0.061 A 
HETATM   15  C6  UNL     1      19.614  64.167  25.607  1.00  0.00     0.100 C 
HETATM   16  S1  UNL     1      19.606  62.637  26.645  1.00  0.00    -0.123 SA
HETATM   17  C7  UNL     1      19.318  61.350  25.457  1.00  0.00     0.070 A 
HETATM   18  C8  UNL     1      19.699  60.126  25.354  1.00  0.00     0.185 A 
HETATM   19  F1  UNL     1      20.491  59.446  26.211  1.00  0.00    -0.200 F 
HETATM   20  C9  UNL     1      19.150  59.538  24.125  1.00  0.00     0.213 A 
HETATM   21  O3  UNL     1      19.281  58.382  23.661  1.00  0.00    -0.285 OA
HETATM   22  C10 UNL     1      18.372  60.637  23.514  1.00  0.00     0.089 A 
ENDBRANCH   7  10
ENDBRANCH   1   6
BRANCH   4  23
HETATM   23  C16 UNL     1      15.143  69.417  20.253  1.00  0.00     0.190 C 
BRANCH  23  24
HETATM   24  N2  UNL     1      14.846  69.085  18.877  1.00  0.00    -0.345 N 
HETATM   25  C17 UNL     1      16.012  68.827  18.000  1.00  0.00     0.153 C 
HETATM   26  C18 UNL     1      13.588  68.984  18.285  1.00  0.00     0.270 C 
HETATM   27  O4  UNL     1      13.548  68.650  17.058  1.00  0.00    -0.266 OA
BRANCH  26  28
HETATM   28  C19 UNL     1      12.349  69.249  19.019  1.00  0.00     0.108 A 
HETATM   29  C20 UNL     1      11.831  70.546  19.055  1.00  0.00     0.086 A 
HETATM   30  S2  UNL     1      10.431  70.335  20.001  1.00  0.00    -0.086 SA
HETATM   31  C21 UNL     1      10.564  68.663  20.298  1.00  0.00     0.055 A 
HETATM   32  N3  UNL     1      11.671  68.358  19.657  1.00  0.00    -0.349 N 
ATOM     33  H3  UNL     1      12.001  67.393  19.666  1.00  0.00     0.166 HD
BRANCH  31  34
HETATM   34  C22 UNL     1       9.652  67.752  21.092  1.00  0.00     0.043 C 
HETATM   35  C23 UNL     1      10.537  66.811  21.847  1.00  0.00     0.011 C 
HETATM   36  C24 UNL     1      10.185  66.722  23.316  1.00  0.00     0.001 C 
HETATM   37  C25 UNL     1       8.690  66.600  23.418  1.00  0.00     0.000 C 
HETATM   38  C26 UNL     1       7.993  67.865  22.962  1.00  0.00     0.001 C 
HETATM   39  C27 UNL     1       8.840  68.647  21.988  1.00  0.00     0.011 C 
ENDBRANCH  31  34
ENDBRANCH  26  28
ENDBRANCH  23  24
ENDBRANCH   4  23
TORSDOF 7
ENDMDL
MODEL 2
REMARK VINA RESULT: -9.441328048      1.636      3.736
REMARK  7 active torsions:
REMARK  status: ('A' for Active; 'I' for Inactive)
REMARK    1  A    between atoms: O1_2  and  C2_3 
REMARK    2  A    between atoms: C2_3  and  C12_18 
REMARK    3  A    between atoms: C3_4  and  C4_5 
REMARK       I    between atoms: C4_5  and  N1_7 
REMARK    4  A    between atoms: C15_21  and  C16_22 
REMARK    5  A    between atoms: C16_22  and  N2_23 
REMARK       I    between atoms: N2_23  and  C18_25 
REMARK    6  A    between atoms: C18_25  and  C19_27 
REMARK    7  A    between atoms: C21_30  and  C22_31 
ROOT
HETATM    1  C12 UNL     1      15.200  65.980  22.218  1.00  0.00     0.109 A 
HETATM    2  C13 UNL     1      15.298  66.907  21.209  1.00  0.00     0.042 A 
HETATM    3  C14 UNL     1      14.472  67.972  21.524  1.00  0.00     0.037 A 
HETATM    4  C15 UNL     1      13.901  67.633  22.733  1.00  0.00     0.071 A 
HETATM    5  O5  UNL     1      14.343  66.472  23.109  1.00  0.00    -0.311 OA
ENDROOT
BRANCH   1   6
HETATM    6  C2  UNL     1      15.875  64.714  22.326  1.00  0.00     0.107 C 
HETATM    7  C3  UNL     1      15.925  64.111  23.518  1.00  0.00     0.114 C 
BRANCH   6   8
HETATM    8  O1  UNL     1      16.480  64.081  21.255  1.00  0.00    -0.353 OA
HETATM    9  C1  UNL     1      17.722  64.427  20.713  1.00  0.00     0.210 C 
ENDBRANCH   6   8
BRANCH   7  10
HETATM   10  C4  UNL     1      16.589  62.836  23.690  1.00  0.00     0.250 C 
HETATM   11  O2  UNL     1      16.025  61.819  23.219  1.00  0.00    -0.268 OA
HETATM   12  N1  UNL     1      17.846  62.790  24.380  1.00  0.00    -0.312 N 
HETATM   13  C5  UNL     1      18.343  64.018  24.889  1.00  0.00     0.143 C 
HETATM   14  C11 UNL     1      18.459  61.508  24.470  1.00  0.00     0.061 A 
HETATM   15  C6  UNL     1      19.552  64.021  25.730  1.00  0.00     0.100 C 
HETATM   16  S1  UNL     1      19.656  62.484  26.753  1.00  0.00    -0.123 SA
HETATM   17  C7  UNL     1      19.362  61.194  25.569  1.00  0.00     0.070 A 
HETATM   18  C8  UNL     1      19.786  59.987  25.436  1.00  0.00     0.185 A 
HETATM   19  F1  UNL     1      20.646  59.335  26.248  1.00  0.00    -0.200 F 
HETATM   20  C9  UNL     1      19.201  59.387  24.231  1.00  0.00     0.213 A 
HETATM   21  O3  UNL     1      19.356  58.240  23.751  1.00  0.00    -0.285 OA
HETATM   22  C10 UNL     1      18.350  60.457  23.668  1.00  0.00     0.089 A 
ENDBRANCH   7  10
ENDBRANCH   1   6
BRANCH   4  23
HETATM   23  C16 UNL     1      12.939  68.473  23.467  1.00  0.00     0.190 C 
BRANCH  23  24
HETATM   24  N2  UNL     1      11.680  67.768  23.559  1.00  0.00    -0.345 N 
HETATM   25  C17 UNL     1      11.552  66.800  24.674  1.00  0.00     0.153 C 
HETATM   26  C18 UNL     1      10.577  67.894  22.716  1.00  0.00     0.270 C 
HETATM   27  O4  UNL     1       9.550  67.196  22.992  1.00  0.00    -0.266 OA
BRANCH  26  28
HETATM   28  C19 UNL     1      10.574  68.783  21.551  1.00  0.00     0.108 A 
HETATM   29  C20 UNL     1       9.612  69.791  21.455  1.00  0.00     0.086 A 
HETATM   30  S2  UNL     1      10.022  70.521  19.971  1.00  0.00    -0.086 SA
HETATM   31  C21 UNL     1      11.353  69.543  19.557  1.00  0.00     0.055 A 
HETATM   32  N3  UNL     1      11.411  68.712  20.574  1.00  0.00    -0.349 N 
ATOM     33  H3  UNL     1      12.137  67.996  20.590  1.00  0.00     0.166 HD
BRANCH  31  34
HETATM   34  C22 UNL     1      12.246  69.603  18.336  1.00  0.00     0.043 C 
HETATM   35  C23 UNL     1      13.385  70.511  18.681  1.00  0.00     0.011 C 
HETATM   36  C24 UNL     1      14.736  69.913  18.356  1.00  0.00     0.001 C 
HETATM   37  C25 UNL     1      14.644  69.303  16.984  1.00  0.00     0.000 C 
HETATM   38  C26 UNL     1      13.713  68.109  16.964  1.00  0.00     0.001 C 
HETATM   39  C27 UNL     1      12.681  68.188  18.063  1.00  0.00     0.011 C 
ENDBRANCH  31  34
ENDBRANCH  26  28
ENDBRANCH  23  24
ENDBRANCH   4  23
TORSDOF 7
ENDMDL
MODEL 3
REMARK VINA RESULT: -9.336067072      2.852      4.267
REMARK  7 active torsions:
REMARK  status: ('A' for Active; 'I' for Inactive)
REMARK    1  A    between atoms: O1_2  and  C2_3 
REMARK    2  A    between atoms: C2_3  and  C12_18 
REMARK    3  A    between atoms: C3_4  and  C4_5 
REMARK       I    between atoms: C4_5  and  N1_7 
REMARK    4  A    between atoms: C15_21  and  C16_22 
REMARK    5  A    between atoms: C16_22  and  N2_23 
REMARK       I    between atoms: N2_23  and  C18_25 
REMARK    6  A    between atoms: C18_25  and  C19_27 
REMARK    7  A    between atoms: C21_30  and  C22_31 
ROOT
HETATM    1  C12 UNL     1      15.464  66.207  21.838  1.00  0.00     0.109 A 
HETATM    2  C13 UNL     1      15.920  67.247  21.065  1.00  0.00     0.042 A 
HETATM    3  C14 UNL     1      15.043  68.307  21.212  1.00  0.00     0.037 A 
HETATM    4  C15 UNL     1      14.078  67.850  22.085  1.00  0.00     0.071 A 
HETATM    5  O5  UNL     1      14.351  66.629  22.429  1.00  0.00    -0.311 OA
ENDROOT
BRANCH   1   6
HETATM    6  C2  UNL     1      16.050  64.902  22.001  1.00  0.00     0.107 C 
HETATM    7  C3  UNL     1      16.132  64.384  23.230  1.00  0.00     0.114 C 
BRANCH   6   8
HETATM    8  O1  UNL     1      16.534  64.149  20.947  1.00  0.00    -0.353 OA
HETATM    9  C1  UNL     1      17.759  64.360  20.304  1.00  0.00     0.210 C 
ENDBRANCH   6   8
BRANCH   7  10
HETATM   10  C4  UNL     1      16.710  63.076  23.458  1.00  0.00     0.250 C 
HETATM   11  O2  UNL     1      16.105  62.084  22.986  1.00  0.00    -0.268 OA
HETATM   12  N1  UNL     1      17.932  62.972  24.203  1.00  0.00    -0.312 N 
HETATM   13  C5  UNL     1      18.481  64.180  24.706  1.00  0.00     0.143 C 
HETATM   14  C11 UNL     1      18.461  61.658  24.347  1.00  0.00     0.061 A 
HETATM   15  C6  UNL     1      19.652  64.131  25.598  1.00  0.00     0.100 C 
HETATM   16  S1  UNL     1      19.619  62.616  26.658  1.00  0.00    -0.123 SA
HETATM   17  C7  UNL     1      19.297  61.318  25.491  1.00  0.00     0.070 A 
HETATM   18  C8  UNL     1      19.652  60.085  25.403  1.00  0.00     0.185 A 
HETATM   19  F1  UNL     1      20.436  59.402  26.264  1.00  0.00    -0.200 F 
HETATM   20  C9  UNL     1      19.082  59.491  24.187  1.00  0.00     0.213 A 
HETATM   21  O3  UNL     1      19.187  58.325  23.739  1.00  0.00    -0.285 OA
HETATM   22  C10 UNL     1      18.323  60.596  23.564  1.00  0.00     0.089 A 
ENDBRANCH   7  10
ENDBRANCH   1   6
BRANCH   4  23
HETATM   23  C16 UNL     1      12.924  68.643  22.543  1.00  0.00     0.190 C 
BRANCH  23  24
HETATM   24  N2  UNL     1      11.709  67.970  22.141  1.00  0.00    -0.345 N 
HETATM   25  C17 UNL     1      11.348  68.071  20.707  1.00  0.00     0.153 C 
HETATM   26  C18 UNL     1      10.838  67.241  22.950  1.00  0.00     0.270 C 
HETATM   27  O4  UNL     1       9.834  66.701  22.387  1.00  0.00    -0.266 OA
BRANCH  26  28
HETATM   28  C19 UNL     1      11.046  67.089  24.392  1.00  0.00     0.108 A 
HETATM   29  C20 UNL     1      10.425  67.973  25.276  1.00  0.00     0.086 A 
HETATM   30  S2  UNL     1      10.965  67.393  26.784  1.00  0.00    -0.086 SA
HETATM   31  C21 UNL     1      11.924  66.096  26.239  1.00  0.00     0.055 A 
HETATM   32  N3  UNL     1      11.779  66.177  24.934  1.00  0.00    -0.349 N 
ATOM     33  H3  UNL     1      12.258  65.503  24.338  1.00  0.00     0.166 HD
BRANCH  31  34
HETATM   34  C22 UNL     1      12.738  65.101  27.037  1.00  0.00     0.043 C 
HETATM   35  C23 UNL     1      11.761  64.207  27.733  1.00  0.00     0.011 C 
HETATM   36  C24 UNL     1      12.071  62.737  27.549  1.00  0.00     0.001 C 
HETATM   37  C25 UNL     1      13.548  62.555  27.763  1.00  0.00     0.000 C 
HETATM   38  C26 UNL     1      14.358  63.228  26.675  1.00  0.00     0.001 C 
HETATM   39  C27 UNL     1      13.603  64.372  26.044  1.00  0.00     0.011 C 
ENDBRANCH  31  34
ENDBRANCH  26  28
ENDBRANCH  23  24
ENDBRANCH   4  23
TORSDOF 7
ENDMDL
MODEL 4
REMARK VINA RESULT: -9.272207861      2.744      3.833
REMARK  7 active torsions:
REMARK  status: ('A' for Active; 'I' for Inactive)
REMARK    1  A    between atoms: O1_2  and  C2_3 
REMARK    2  A    between atoms: C2_3  and  C12_18 
REMARK    3  A    between atoms: C3_4  and  C4_5 
REMARK       I    between atoms: C4_5  and  N1_7 
REMARK    4  A    between atoms: C15_21  and  C16_22 
REMARK    5  A    between atoms: C16_22  and  N2_23 
REMARK       I    between atoms: N2_23  and  C18_25 
REMARK    6  A    between atoms: C18_25  and  C19_27 
REMARK    7  A    between atoms: C21_30  and  C22_31 
ROOT
HETATM    1  C12 UNL     1      15.534  66.223  21.933  1.00  0.00     0.109 A 
HETATM    2  C13 UNL     1      14.311  66.562  21.408  1.00  0.00     0.042 A 
HETATM    3  C14 UNL     1      14.185  67.940  21.471  1.00  0.00     0.037 A 
HETATM    4  C15 UNL     1      15.361  68.377  22.043  1.00  0.00     0.071 A 
HETATM    5  O5  UNL     1      16.122  67.358  22.299  1.00  0.00    -0.311 OA
ENDROOT
BRANCH   1   6
HETATM    6  C2  UNL     1      16.102  64.908  22.077  1.00  0.00     0.107 C 
HETATM    7  C3  UNL     1      16.210  64.385  23.302  1.00  0.00     0.114 C 
BRANCH   6   8
HETATM    8  O1  UNL     1      16.543  64.149  21.008  1.00  0.00    -0.353 OA
HETATM    9  C1  UNL     1      17.380  64.611  19.986  1.00  0.00     0.210 C 
ENDBRANCH   6   8
BRANCH   7  10
HETATM   10  C4  UNL     1      16.773  63.067  23.511  1.00  0.00     0.250 C 
HETATM   11  O2  UNL     1      16.157  62.089  23.023  1.00  0.00    -0.268 OA
HETATM   12  N1  UNL     1      17.993  62.938  24.255  1.00  0.00    -0.312 N 
HETATM   13  C5  UNL     1      18.555  64.131  24.777  1.00  0.00     0.143 C 
HETATM   14  C11 UNL     1      18.506  61.615  24.380  1.00  0.00     0.061 A 
HETATM   15  C6  UNL     1      19.724  64.055  25.670  1.00  0.00     0.100 C 
HETATM   16  S1  UNL     1      19.673  62.524  26.706  1.00  0.00    -0.123 SA
HETATM   17  C7  UNL     1      19.337  61.248  25.519  1.00  0.00     0.070 A 
HETATM   18  C8  UNL     1      19.678  60.013  25.413  1.00  0.00     0.185 A 
HETATM   19  F1  UNL     1      20.453  59.307  26.265  1.00  0.00    -0.200 F 
HETATM   20  C9  UNL     1      19.102  59.444  24.187  1.00  0.00     0.213 A 
HETATM   21  O3  UNL     1      19.194  58.284  23.722  1.00  0.00    -0.285 OA
HETATM   22  C10 UNL     1      18.356  60.567  23.581  1.00  0.00     0.089 A 
ENDBRANCH   7  10
ENDBRANCH   1   6
BRANCH   4  23
HETATM   23  C16 UNL     1      15.684  69.789  22.312  1.00  0.00     0.190 C 
BRANCH  23  24
HETATM   24  N2  UNL     1      17.120  69.952  22.286  1.00  0.00    -0.345 N 
HETATM   25  C17 UNL     1      17.813  69.868  23.593  1.00  0.00     0.153 C 
HETATM   26  C18 UNL     1      17.925  70.180  21.170  1.00  0.00     0.270 C 
HETATM   27  O4  UNL     1      19.179  70.265  21.364  1.00  0.00    -0.266 OA
BRANCH  26  28
HETATM   28  C19 UNL     1      17.376  70.324  19.820  1.00  0.00     0.108 A 
HETATM   29  C20 UNL     1      18.193  70.794  18.789  1.00  0.00     0.086 A 
HETATM   30  S2  UNL     1      17.122  70.780  17.464  1.00  0.00    -0.086 SA
HETATM   31  C21 UNL     1      15.731  70.198  18.257  1.00  0.00     0.055 A 
HETATM   32  N3  UNL     1      16.162  70.046  19.490  1.00  0.00    -0.349 N 
ATOM     33  H3  UNL     1      15.519  69.699  20.201  1.00  0.00     0.166 HD
BRANCH  31  34
HETATM   34  C22 UNL     1      14.351  69.923  17.699  1.00  0.00     0.043 C 
HETATM   35  C23 UNL     1      14.338  68.489  17.273  1.00  0.00     0.011 C 
HETATM   36  C24 UNL     1      13.141  67.729  17.800  1.00  0.00     0.001 C 
HETATM   37  C25 UNL     1      11.927  68.592  17.589  1.00  0.00     0.000 C 
HETATM   38  C26 UNL     1      11.966  69.834  18.453  1.00  0.00     0.001 C 
HETATM   39  C27 UNL     1      13.381  70.219  18.810  1.00  0.00     0.011 C 
ENDBRANCH  31  34
ENDBRANCH  26  28
ENDBRANCH  23  24
ENDBRANCH   4  23
TORSDOF 7
ENDMDL
MODEL 5
REMARK VINA RESULT: -9.263383664      7.150     11.078
REMARK  7 active torsions:
REMARK  status: ('A' for Active; 'I' for Inactive)
REMARK    1  A    between atoms: O1_2  and  C2_3 
REMARK    2  A    between atoms: C2_3  and  C12_18 
REMARK    3  A    between atoms: C3_4  and  C4_5 
REMARK       I    between atoms: C4_5  and  N1_7 
REMARK    4  A    between atoms: C15_21  and  C16_22 
REMARK    5  A    between atoms: C16_22  and  N2_23 
REMARK       I    between atoms: N2_23  and  C18_25 
REMARK    6  A    between atoms: C18_25  and  C19_27 
REMARK    7  A    between atoms: C21_30  and  C22_31 
ROOT
HETATM    1  C12 UNL     1      13.693  63.798  27.309  1.00  0.00     0.109 A 
HETATM    2  C13 UNL     1      14.295  63.554  26.099  1.00  0.00     0.042 A 
HETATM    3  C14 UNL     1      15.450  64.316  26.034  1.00  0.00     0.037 A 
HETATM    4  C15 UNL     1      15.492  64.998  27.231  1.00  0.00     0.071 A 
HETATM    5  O5  UNL     1      14.460  64.677  27.948  1.00  0.00    -0.311 OA
ENDROOT
BRANCH   1   6
HETATM    6  C2  UNL     1      12.471  63.234  27.820  1.00  0.00     0.107 C 
HETATM    7  C3  UNL     1      12.528  62.078  28.488  1.00  0.00     0.114 C 
BRANCH   6   8
HETATM    8  O1  UNL     1      11.233  63.828  27.658  1.00  0.00    -0.353 OA
HETATM    9  C1  UNL     1      10.860  65.068  28.189  1.00  0.00     0.210 C 
ENDBRANCH   6   8
BRANCH   7  10
HETATM   10  C4  UNL     1      11.334  61.460  29.025  1.00  0.00     0.250 C 
HETATM   11  O2  UNL     1      10.667  60.722  28.260  1.00  0.00    -0.268 OA
HETATM   12  N1  UNL     1      10.969  61.713  30.390  1.00  0.00    -0.312 N 
HETATM   13  C5  UNL     1      11.800  62.599  31.121  1.00  0.00     0.143 C 
HETATM   14  C11 UNL     1       9.807  61.034  30.858  1.00  0.00     0.061 A 
HETATM   15  C6  UNL     1      11.405  63.015  32.478  1.00  0.00     0.100 C 
HETATM   16  S1  UNL     1       9.566  63.133  32.629  1.00  0.00    -0.123 SA
HETATM   17  C7  UNL     1       9.008  61.596  31.939  1.00  0.00     0.070 A 
HETATM   18  C8  UNL     1       8.019  60.811  32.184  1.00  0.00     0.185 A 
HETATM   19  F1  UNL     1       7.062  60.979  33.122  1.00  0.00    -0.200 F 
HETATM   20  C9  UNL     1       8.072  59.652  31.285  1.00  0.00     0.213 A 
HETATM   21  O3  UNL     1       7.302  58.667  31.200  1.00  0.00    -0.285 OA
HETATM   22  C10 UNL     1       9.275  59.888  30.458  1.00  0.00     0.089 A 
ENDBRANCH   7  10
ENDBRANCH   1   6
BRANCH   4  23
HETATM   23  C16 UNL     1      16.556  65.943  27.616  1.00  0.00     0.190 C 
BRANCH  23  24
HETATM   24  N2  UNL     1      17.189  65.463  28.824  1.00  0.00    -0.345 N 
HETATM   25  C17 UNL     1      16.749  66.096  30.090  1.00  0.00     0.153 C 
HETATM   26  C18 UNL     1      18.167  64.475  28.931  1.00  0.00     0.270 C 
HETATM   27  O4  UNL     1      18.572  64.181  30.100  1.00  0.00    -0.266 OA
BRANCH  26  28
HETATM   28  C19 UNL     1      18.724  63.790  27.763  1.00  0.00     0.108 A 
HETATM   29  C20 UNL     1      19.749  64.395  27.031  1.00  0.00     0.086 A 
HETATM   30  S2  UNL     1      20.038  63.237  25.816  1.00  0.00    -0.086 SA
HETATM   31  C21 UNL     1      18.881  62.076  26.278  1.00  0.00     0.055 A 
HETATM   32  N3  UNL     1      18.337  62.637  27.336  1.00  0.00    -0.349 N 
ATOM     33  H3  UNL     1      17.592  62.147  27.830  1.00  0.00     0.166 HD
BRANCH  31  34
HETATM   34  C22 UNL     1      18.552  60.742  25.644  1.00  0.00     0.043 C 
HETATM   35  C23 UNL     1      18.147  61.025  24.231  1.00  0.00     0.011 C 
HETATM   36  C24 UNL     1      18.865  60.151  23.226  1.00  0.00     0.001 C 
HETATM   37  C25 UNL     1      18.842  58.742  23.751  1.00  0.00     0.000 C 
HETATM   38  C26 UNL     1      19.678  58.599  25.006  1.00  0.00     0.001 C 
HETATM   39  C27 UNL     1      19.802  59.909  25.745  1.00  0.00     0.011 C 
ENDBRANCH  31  34
ENDBRANCH  26  28
ENDBRANCH  23  24
ENDBRANCH   4  23
TORSDOF 7
ENDMDL
