MODEL 1
REMARK VINA RESULT: -11.321430709      0.000      0.000
REMARK  13 active torsions:
REMARK  status: ('A' for Active; 'I' for Inactive)
REMARK       I    between atoms: C1_2  and  N3_10 
REMARK       I    between atoms: N2_3  and  C2_5 
REMARK    1  A    between atoms: C2_5  and  C3_7 
REMARK    2  A    between atoms: C3_7  and  O2_8 
REMARK    3  A    between atoms: N3_10  and  C4_12 
REMARK    4  A    between atoms: C4_12  and  C5_13 
REMARK    5  A    between atoms: C10_18  and  C11_19 
REMARK    6  A    between atoms: C11_19  and  C12_20 
REMARK    7  A    between atoms: C12_20  and  C13_21 
REMARK       I    between atoms: N4_25  and  C17_26 
REMARK    8  A    between atoms: C17_26  and  C18_28 
REMARK       I    between atoms: C18_28  and  N5_30 
REMARK    9  A    between atoms: N5_30  and  C19_32 
REMARK   10  A    between atoms: C19_32  and  C20_33 
REMARK   11  A    between atoms: C19_32  and  C29_44 
REMARK   12  A    between atoms: C20_33  and  C21_34 
REMARK   13  A    between atoms: C29_44  and  N7_45 
ROOT
HETATM    1  C13 UNL     1      13.464  66.510  23.073  1.00  0.00     0.091 C 
HETATM    2  C14 UNL     1      12.157  67.288  22.765  1.00  0.00     0.027 C 
HETATM    3  C15 UNL     1      11.864  66.833  21.366  1.00  0.00     0.022 C 
HETATM    4  C16 UNL     1      13.231  66.536  20.778  1.00  0.00     0.127 C 
HETATM    5  N4  UNL     1      14.176  66.796  21.862  1.00  0.00    -0.339 N 
HETATM    6  C17 UNL     1      15.467  67.300  21.686  1.00  0.00     0.311 C 
HETATM    7  O3  UNL     1      16.168  67.654  22.698  1.00  0.00    -0.262 OA
ENDROOT
BRANCH   1   8
HETATM    8  C12 UNL     1      13.056  65.044  23.208  1.00  0.00     0.053 C 
BRANCH   8   9
HETATM    9  C11 UNL     1      14.140  64.152  23.529  1.00  0.00    -0.013 C 
BRANCH   9  10
HETATM   10  C10 UNL     1      14.388  63.551  24.815  1.00  0.00    -0.027 A 
HETATM   11  C5  UNL     1      15.483  62.913  25.282  1.00  0.00    -0.010 A 
HETATM   12  C6  UNL     1      15.473  62.431  26.602  1.00  0.00     0.021 A 
HETATM   13  C7  UNL     1      14.411  62.572  27.451  1.00  0.00    -0.043 A 
HETATM   14  C8  UNL     1      13.296  63.219  26.985  1.00  0.00    -0.007 A 
HETATM   15  C41 UNL     1      14.498  62.022  28.841  1.00  0.00     0.066 C 
HETATM   16  C9  UNL     1      13.277  63.695  25.707  1.00  0.00     0.026 A 
HETATM   17  C39 UNL     1      12.273  63.345  27.814  1.00  0.00     0.146 C 
HETATM   18  O5  UNL     1      12.298  62.860  29.097  1.00  0.00    -0.362 OA
HETATM   19  C40 UNL     1      13.475  62.552  29.769  1.00  0.00     0.179 C 
BRANCH  11  20
HETATM   20  C4  UNL     1      16.599  62.691  24.595  1.00  0.00     0.103 C 
BRANCH  20  21
HETATM   21  N3  UNL     1      17.705  62.011  25.233  1.00  0.00    -0.340 N 
HETATM   22  C1  UNL     1      18.191  60.852  24.581  1.00  0.00     0.194 C 
HETATM   23  N1  UNL     1      17.807  60.612  23.238  1.00  0.00    -0.063 NA
HETATM   24  N2  UNL     1      18.946  60.050  25.229  1.00  0.00    -0.299 N 
HETATM   25  C2  UNL     1      19.487  58.841  24.703  1.00  0.00     0.247 C 
ATOM     26  H2  UNL     1      19.178  60.293  26.193  1.00  0.00     0.171 HD
HETATM   27  O1  UNL     1      19.587  58.589  23.480  1.00  0.00    -0.271 OA
ATOM     28  H3  UNL     1      18.112  62.349  26.105  1.00  0.00     0.167 HD
BRANCH  25  29
HETATM   29  C3  UNL     1      19.972  57.791  25.638  1.00  0.00     0.267 C 
BRANCH  29  30
HETATM   30  O2  UNL     1      20.858  58.332  26.567  1.00  0.00    -0.392 OA
ATOM     31  H2  UNL     1      21.191  57.656  27.146  1.00  0.00     0.210 HD
ENDBRANCH  29  30
ENDBRANCH  25  29
ENDBRANCH  20  21
ENDBRANCH  11  20
ENDBRANCH   9  10
ENDBRANCH   8   9
ENDBRANCH   1   8
BRANCH   6  32
HETATM   32  C18 UNL     1      16.133  67.478  20.397  1.00  0.00     0.309 C 
HETATM   33  O4  UNL     1      16.643  66.461  19.890  1.00  0.00    -0.262 OA
HETATM   34  N5  UNL     1      16.200  68.720  19.732  1.00  0.00    -0.346 N 
ATOM     35  H5  UNL     1      15.768  69.514  20.204  1.00  0.00     0.163 HD
BRANCH  34  36
HETATM   36  C19 UNL     1      16.809  68.984  18.467  1.00  0.00     0.107 C 
BRANCH  36  37
HETATM   37  C20 UNL     1      15.785  69.784  17.659  1.00  0.00     0.067 C 
BRANCH  37  38
HETATM   38  C21 UNL     1      14.450  69.148  17.652  1.00  0.00    -0.028 A 
HETATM   39  C22 UNL     1      14.094  68.027  16.908  1.00  0.00     0.096 A 
HETATM   40  N6  UNL     1      12.808  67.758  17.165  1.00  0.00    -0.365 N 
HETATM   41  C23 UNL     1      12.308  68.650  18.044  1.00  0.00     0.042 A 
ATOM     42  H6  UNL     1      12.281  66.987  16.755  1.00  0.00     0.165 HD
HETATM   43  C24 UNL     1      11.052  68.807  18.628  1.00  0.00     0.030 A 
HETATM   44  C28 UNL     1      13.321  69.512  18.347  1.00  0.00    -0.002 A 
HETATM   45  C25 UNL     1      10.815  69.829  19.516  1.00  0.00     0.002 A 
HETATM   46  C26 UNL     1      11.835  70.698  19.823  1.00  0.00     0.001 A 
HETATM   47  C27 UNL     1      13.066  70.550  19.255  1.00  0.00     0.014 A 
ENDBRANCH  37  38
ENDBRANCH  36  37
BRANCH  36  48
HETATM   48  C29 UNL     1      18.137  69.635  18.495  1.00  0.00     0.154 C 
BRANCH  48  49
HETATM   49  N7  UNL     1      19.269  68.811  18.126  1.00  0.00    -0.354 N 
HETATM   50  C30 UNL     1      19.263  67.464  18.157  1.00  0.00     0.091 A 
HETATM   51  C31 UNL     1      20.311  66.641  17.835  1.00  0.00     0.018 A 
HETATM   52  C32 UNL     1      21.491  67.215  17.442  1.00  0.00     0.015 A 
HETATM   53  C33 UNL     1      21.546  68.586  17.396  1.00  0.00    -0.009 A 
HETATM   54  C34 UNL     1      22.739  69.185  17.002  1.00  0.00     0.014 A 
HETATM   55  C38 UNL     1      20.449  69.363  17.733  1.00  0.00     0.044 A 
HETATM   56  C35 UNL     1      22.829  70.559  16.948  1.00  0.00     0.001 A 
HETATM   57  C36 UNL     1      21.730  71.350  17.286  1.00  0.00     0.002 A 
HETATM   58  C37 UNL     1      20.546  70.734  17.678  1.00  0.00     0.030 A 
ENDBRANCH  48  49
ENDBRANCH  36  48
ENDBRANCH  34  36
ENDBRANCH   6  32
TORSDOF 13
ENDMDL
MODEL 2
REMARK VINA RESULT: -10.662320689      3.377      6.458
REMARK  13 active torsions:
REMARK  status: ('A' for Active; 'I' for Inactive)
REMARK       I    between atoms: C1_2  and  N3_10 
REMARK       I    between atoms: N2_3  and  C2_5 
REMARK    1  A    between atoms: C2_5  and  C3_7 
REMARK    2  A    between atoms: C3_7  and  O2_8 
REMARK    3  A    between atoms: N3_10  and  C4_12 
REMARK    4  A    between atoms: C4_12  and  C5_13 
REMARK    5  A    between atoms: C10_18  and  C11_19 
REMARK    6  A    between atoms: C11_19  and  C12_20 
REMARK    7  A    between atoms: C12_20  and  C13_21 
REMARK       I    between atoms: N4_25  and  C17_26 
REMARK    8  A    between atoms: C17_26  and  C18_28 
REMARK       I    between atoms: C18_28  and  N5_30 
REMARK    9  A    between atoms: N5_30  and  C19_32 
REMARK   10  A    between atoms: C19_32  and  C20_33 
REMARK   11  A    between atoms: C19_32  and  C29_44 
REMARK   12  A    between atoms: C20_33  and  C21_34 
REMARK   13  A    between atoms: C29_44  and  N7_45 
ROOT
HETATM    1  C13 UNL     1      16.826  62.537  25.863  1.00  0.00     0.091 C 
HETATM    2  C14 UNL     1      18.166  63.123  26.382  1.00  0.00     0.027 C 
HETATM    3  C15 UNL     1      17.871  64.594  26.366  1.00  0.00     0.022 C 
HETATM    4  C16 UNL     1      16.862  64.759  25.244  1.00  0.00     0.127 C 
HETATM    5  N4  UNL     1      16.629  63.407  24.741  1.00  0.00    -0.339 N 
HETATM    6  C17 UNL     1      16.357  63.092  23.407  1.00  0.00     0.311 C 
HETATM    7  O3  UNL     1      16.330  61.871  23.022  1.00  0.00    -0.262 OA
ENDROOT
BRANCH   1   8
HETATM    8  C12 UNL     1      15.812  62.752  26.986  1.00  0.00     0.053 C 
BRANCH   8   9
HETATM    9  C11 UNL     1      14.483  62.290  26.684  1.00  0.00    -0.013 C 
BRANCH   9  10
HETATM   10  C10 UNL     1      13.270  63.056  26.813  1.00  0.00    -0.027 A 
HETATM   11  C5  UNL     1      12.139  62.790  27.501  1.00  0.00    -0.010 A 
HETATM   12  C6  UNL     1      11.095  63.731  27.476  1.00  0.00     0.021 A 
HETATM   13  C7  UNL     1      11.156  64.911  26.791  1.00  0.00    -0.043 A 
HETATM   14  C8  UNL     1      12.300  65.189  26.089  1.00  0.00    -0.007 A 
HETATM   15  C41 UNL     1       9.988  65.848  26.826  1.00  0.00     0.066 C 
HETATM   16  C9  UNL     1      13.329  64.294  26.093  1.00  0.00     0.026 A 
HETATM   17  C39 UNL     1      12.346  66.332  25.425  1.00  0.00     0.146 C 
HETATM   18  O5  UNL     1      11.306  67.227  25.423  1.00  0.00    -0.362 OA
HETATM   19  C40 UNL     1      10.300  67.224  26.381  1.00  0.00     0.179 C 
BRANCH  11  20
HETATM   20  C4  UNL     1      11.914  61.695  28.220  1.00  0.00     0.103 C 
BRANCH  20  21
HETATM   21  N3  UNL     1      10.561  61.199  28.355  1.00  0.00    -0.340 N 
HETATM   22  C1  UNL     1      10.069  61.068  29.677  1.00  0.00     0.194 C 
HETATM   23  N1  UNL     1      10.768  61.704  30.733  1.00  0.00    -0.063 NA
HETATM   24  N2  UNL     1       9.019  60.366  29.878  1.00  0.00    -0.299 N 
HETATM   25  C2  UNL     1       8.429  60.136  31.154  1.00  0.00     0.247 C 
ATOM     26  H2  UNL     1       8.572  59.940  29.065  1.00  0.00     0.171 HD
HETATM   27  O1  UNL     1       8.637  60.847  32.164  1.00  0.00    -0.271 OA
ATOM     28  H3  UNL     1       9.994  60.956  27.543  1.00  0.00     0.167 HD
BRANCH  25  29
HETATM   29  C3  UNL     1       7.504  58.986  31.333  1.00  0.00     0.267 C 
BRANCH  29  30
HETATM   30  O2  UNL     1       7.877  57.923  30.512  1.00  0.00    -0.392 OA
ATOM     31  H2  UNL     1       7.697  57.093  30.937  1.00  0.00     0.210 HD
ENDBRANCH  29  30
ENDBRANCH  25  29
ENDBRANCH  20  21
ENDBRANCH  11  20
ENDBRANCH   9  10
ENDBRANCH   8   9
ENDBRANCH   1   8
BRANCH   6  32
HETATM   32  C18 UNL     1      16.090  64.066  22.350  1.00  0.00     0.309 C 
HETATM   33  O4  UNL     1      16.927  64.131  21.430  1.00  0.00    -0.262 OA
HETATM   34  N5  UNL     1      14.948  64.894  22.340  1.00  0.00    -0.346 N 
ATOM     35  H5  UNL     1      14.306  64.795  23.126  1.00  0.00     0.163 HD
BRANCH  34  36
HETATM   36  C19 UNL     1      14.595  65.855  21.344  1.00  0.00     0.107 C 
BRANCH  36  37
HETATM   37  C20 UNL     1      13.918  67.009  22.087  1.00  0.00     0.067 C 
BRANCH  37  38
HETATM   38  C21 UNL     1      12.607  67.365  21.502  1.00  0.00    -0.028 A 
HETATM   39  C22 UNL     1      11.443  66.610  21.612  1.00  0.00     0.096 A 
HETATM   40  N6  UNL     1      10.474  67.256  20.950  1.00  0.00    -0.365 N 
HETATM   41  C23 UNL     1      10.951  68.397  20.414  1.00  0.00     0.042 A 
ATOM     42  H6  UNL     1       9.511  66.930  20.864  1.00  0.00     0.165 HD
HETATM   43  C24 UNL     1      10.365  69.406  19.653  1.00  0.00     0.030 A 
HETATM   44  C28 UNL     1      12.271  68.468  20.753  1.00  0.00    -0.002 A 
HETATM   45  C25 UNL     1      11.105  70.486  19.232  1.00  0.00     0.002 A 
HETATM   46  C26 UNL     1      12.434  70.559  19.573  1.00  0.00     0.001 A 
HETATM   47  C27 UNL     1      13.014  69.574  20.317  1.00  0.00     0.014 A 
ENDBRANCH  37  38
ENDBRANCH  36  37
BRANCH  36  48
HETATM   48  C29 UNL     1      15.683  66.319  20.456  1.00  0.00     0.154 C 
BRANCH  48  49
HETATM   49  N7  UNL     1      15.283  67.013  19.250  1.00  0.00    -0.354 N 
HETATM   50  C30 UNL     1      14.307  66.588  18.425  1.00  0.00     0.091 A 
HETATM   51  C31 UNL     1      13.903  67.198  17.266  1.00  0.00     0.018 A 
HETATM   52  C32 UNL     1      14.535  68.353  16.884  1.00  0.00     0.015 A 
HETATM   53  C33 UNL     1      15.538  68.824  17.694  1.00  0.00    -0.009 A 
HETATM   54  C34 UNL     1      16.193  69.994  17.319  1.00  0.00     0.014 A 
HETATM   55  C38 UNL     1      15.899  68.160  18.855  1.00  0.00     0.044 A 
HETATM   56  C35 UNL     1      17.207  70.493  18.108  1.00  0.00     0.001 A 
HETATM   57  C36 UNL     1      17.578  69.831  19.278  1.00  0.00     0.002 A 
HETATM   58  C37 UNL     1      16.912  68.663  19.638  1.00  0.00     0.030 A 
ENDBRANCH  48  49
ENDBRANCH  36  48
ENDBRANCH  34  36
ENDBRANCH   6  32
TORSDOF 13
ENDMDL
MODEL 3
REMARK VINA RESULT: -10.626567585      6.108     11.583
REMARK  13 active torsions:
REMARK  status: ('A' for Active; 'I' for Inactive)
REMARK       I    between atoms: C1_2  and  N3_10 
REMARK       I    between atoms: N2_3  and  C2_5 
REMARK    1  A    between atoms: C2_5  and  C3_7 
REMARK    2  A    between atoms: C3_7  and  O2_8 
REMARK    3  A    between atoms: N3_10  and  C4_12 
REMARK    4  A    between atoms: C4_12  and  C5_13 
REMARK    5  A    between atoms: C10_18  and  C11_19 
REMARK    6  A    between atoms: C11_19  and  C12_20 
REMARK    7  A    between atoms: C12_20  and  C13_21 
REMARK       I    between atoms: N4_25  and  C17_26 
REMARK    8  A    between atoms: C17_26  and  C18_28 
REMARK       I    between atoms: C18_28  and  N5_30 
REMARK    9  A    between atoms: N5_30  and  C19_32 
REMARK   10  A    between atoms: C19_32  and  C20_33 
REMARK   11  A    between atoms: C19_32  and  C29_44 
REMARK   12  A    between atoms: C20_33  and  C21_34 
REMARK   13  A    between atoms: C29_44  and  N7_45 
ROOT
HETATM    1  C13 UNL     1      15.272  63.119  24.625  1.00  0.00     0.091 C 
HETATM    2  C14 UNL     1      14.222  62.911  23.501  1.00  0.00     0.027 C 
HETATM    3  C15 UNL     1      13.427  64.179  23.601  1.00  0.00     0.022 C 
HETATM    4  C16 UNL     1      13.534  64.571  25.064  1.00  0.00     0.127 C 
HETATM    5  N4  UNL     1      14.390  63.552  25.668  1.00  0.00    -0.339 N 
HETATM    6  C17 UNL     1      14.262  63.083  26.978  1.00  0.00     0.311 C 
HETATM    7  O3  UNL     1      14.944  62.074  27.375  1.00  0.00    -0.262 OA
ENDROOT
BRANCH   1   8
HETATM    8  C12 UNL     1      16.209  64.218  24.125  1.00  0.00     0.053 C 
BRANCH   8   9
HETATM    9  C11 UNL     1      17.558  63.782  23.878  1.00  0.00    -0.013 C 
BRANCH   9  10
HETATM   10  C10 UNL     1      18.218  62.669  24.512  1.00  0.00    -0.027 A 
HETATM   11  C5  UNL     1      18.715  62.546  25.761  1.00  0.00    -0.010 A 
HETATM   12  C6  UNL     1      19.300  61.325  26.139  1.00  0.00     0.021 A 
HETATM   13  C7  UNL     1      19.396  60.243  25.311  1.00  0.00    -0.043 A 
HETATM   14  C8  UNL     1      18.894  60.359  24.040  1.00  0.00    -0.007 A 
HETATM   15  C41 UNL     1      20.039  58.985  25.808  1.00  0.00     0.066 C 
HETATM   16  C9  UNL     1      18.322  61.533  23.645  1.00  0.00     0.026 A 
HETATM   17  C39 UNL     1      18.997  59.307  23.246  1.00  0.00     0.146 C 
HETATM   18  O5  UNL     1      19.576  58.130  23.649  1.00  0.00    -0.362 OA
HETATM   19  C40 UNL     1      19.752  57.790  24.985  1.00  0.00     0.179 C 
BRANCH  11  20
HETATM   20  C4  UNL     1      18.703  63.494  26.692  1.00  0.00     0.103 C 
BRANCH  20  21
HETATM   21  N3  UNL     1      17.501  63.716  27.467  1.00  0.00    -0.340 N 
HETATM   22  C1  UNL     1      17.678  63.918  28.857  1.00  0.00     0.194 C 
HETATM   23  N1  UNL     1      18.976  64.204  29.347  1.00  0.00    -0.063 NA
HETATM   24  N2  UNL     1      16.663  63.819  29.629  1.00  0.00    -0.299 N 
HETATM   25  C2  UNL     1      16.702  63.979  31.044  1.00  0.00     0.247 C 
ATOM     26  H2  UNL     1      15.761  63.611  29.200  1.00  0.00     0.171 HD
HETATM   27  O1  UNL     1      17.622  64.562  31.662  1.00  0.00    -0.271 OA
ATOM     28  H3  UNL     1      16.577  63.726  27.034  1.00  0.00     0.167 HD
BRANCH  25  29
HETATM   29  C3  UNL     1      15.596  63.426  31.871  1.00  0.00     0.267 C 
BRANCH  29  30
HETATM   30  O2  UNL     1      14.716  62.687  31.083  1.00  0.00    -0.392 OA
ATOM     31  H2  UNL     1      14.121  63.261  30.615  1.00  0.00     0.210 HD
ENDBRANCH  29  30
ENDBRANCH  25  29
ENDBRANCH  20  21
ENDBRANCH  11  20
ENDBRANCH   9  10
ENDBRANCH   8   9
ENDBRANCH   1   8
BRANCH   6  32
HETATM   32  C18 UNL     1      13.380  63.655  27.994  1.00  0.00     0.309 C 
HETATM   33  O4  UNL     1      13.873  64.533  28.727  1.00  0.00    -0.262 OA
HETATM   34  N5  UNL     1      12.035  63.262  28.153  1.00  0.00    -0.346 N 
ATOM     35  H5  UNL     1      11.696  62.534  27.525  1.00  0.00     0.163 HD
BRANCH  34  36
HETATM   36  C19 UNL     1      11.097  63.776  29.100  1.00  0.00     0.107 C 
BRANCH  36  37
HETATM   37  C20 UNL     1       9.728  63.717  28.420  1.00  0.00     0.067 C 
BRANCH  37  38
HETATM   38  C21 UNL     1       9.127  65.057  28.246  1.00  0.00    -0.028 A 
HETATM   39  C22 UNL     1       8.144  65.612  29.061  1.00  0.00     0.096 A 
HETATM   40  N6  UNL     1       7.858  66.830  28.583  1.00  0.00    -0.365 N 
HETATM   41  C23 UNL     1       8.608  67.096  27.494  1.00  0.00     0.042 A 
ATOM     42  H6  UNL     1       7.169  67.466  28.985  1.00  0.00     0.165 HD
HETATM   43  C24 UNL     1       8.695  68.199  26.647  1.00  0.00     0.030 A 
HETATM   44  C28 UNL     1       9.394  66.001  27.283  1.00  0.00    -0.002 A 
HETATM   45  C25 UNL     1       9.571  68.201  25.589  1.00  0.00     0.002 A 
HETATM   46  C26 UNL     1      10.365  67.100  25.374  1.00  0.00     0.001 A 
HETATM   47  C27 UNL     1      10.284  66.016  26.199  1.00  0.00     0.014 A 
ENDBRANCH  37  38
ENDBRANCH  36  37
BRANCH  36  48
HETATM   48  C29 UNL     1      11.090  63.141  30.436  1.00  0.00     0.154 C 
BRANCH  48  49
HETATM   49  N7  UNL     1      10.332  61.914  30.566  1.00  0.00    -0.354 N 
HETATM   50  C30 UNL     1      10.627  60.774  29.914  1.00  0.00     0.091 A 
HETATM   51  C31 UNL     1       9.933  59.594  29.989  1.00  0.00     0.018 A 
HETATM   52  C32 UNL     1       8.828  59.540  30.797  1.00  0.00     0.015 A 
HETATM   53  C33 UNL     1       8.487  60.680  31.483  1.00  0.00    -0.009 A 
HETATM   54  C34 UNL     1       7.365  60.644  32.306  1.00  0.00     0.014 A 
HETATM   55  C38 UNL     1       9.232  61.842  31.364  1.00  0.00     0.044 A 
HETATM   56  C35 UNL     1       6.994  61.771  33.006  1.00  0.00     0.001 A 
HETATM   57  C36 UNL     1       7.737  62.946  32.892  1.00  0.00     0.002 A 
HETATM   58  C37 UNL     1       8.856  62.964  32.065  1.00  0.00     0.030 A 
ENDBRANCH  48  49
ENDBRANCH  36  48
ENDBRANCH  34  36
ENDBRANCH   6  32
TORSDOF 13
ENDMDL
MODEL 4
REMARK VINA RESULT: -10.619031442      2.355      7.424
REMARK  13 active torsions:
REMARK  status: ('A' for Active; 'I' for Inactive)
REMARK       I    between atoms: C1_2  and  N3_10 
REMARK       I    between atoms: N2_3  and  C2_5 
REMARK    1  A    between atoms: C2_5  and  C3_7 
REMARK    2  A    between atoms: C3_7  and  O2_8 
REMARK    3  A    between atoms: N3_10  and  C4_12 
REMARK    4  A    between atoms: C4_12  and  C5_13 
REMARK    5  A    between atoms: C10_18  and  C11_19 
REMARK    6  A    between atoms: C11_19  and  C12_20 
REMARK    7  A    between atoms: C12_20  and  C13_21 
REMARK       I    between atoms: N4_25  and  C17_26 
REMARK    8  A    between atoms: C17_26  and  C18_28 
REMARK       I    between atoms: C18_28  and  N5_30 
REMARK    9  A    between atoms: N5_30  and  C19_32 
REMARK   10  A    between atoms: C19_32  and  C20_33 
REMARK   11  A    between atoms: C19_32  and  C29_44 
REMARK   12  A    between atoms: C20_33  and  C21_34 
REMARK   13  A    between atoms: C29_44  and  N7_45 
ROOT
HETATM    1  C13 UNL     1      15.952  64.990  23.697  1.00  0.00     0.091 C 
HETATM    2  C14 UNL     1      14.980  64.569  24.832  1.00  0.00     0.027 C 
HETATM    3  C15 UNL     1      13.750  64.212  24.051  1.00  0.00     0.022 C 
HETATM    4  C16 UNL     1      13.820  65.097  22.821  1.00  0.00     0.127 C 
HETATM    5  N4  UNL     1      15.068  65.846  22.962  1.00  0.00    -0.339 N 
HETATM    6  C17 UNL     1      15.260  67.157  22.520  1.00  0.00     0.311 C 
HETATM    7  O3  UNL     1      16.327  67.795  22.830  1.00  0.00    -0.262 OA
ENDROOT
BRANCH   1   8
HETATM    8  C12 UNL     1      16.311  63.704  22.955  1.00  0.00     0.053 C 
BRANCH   8   9
HETATM    9  C11 UNL     1      17.712  63.374  22.981  1.00  0.00    -0.013 C 
BRANCH   9  10
HETATM   10  C10 UNL     1      18.338  62.408  23.847  1.00  0.00    -0.027 A 
HETATM   11  C5  UNL     1      18.844  62.550  25.091  1.00  0.00    -0.010 A 
HETATM   12  C6  UNL     1      19.389  61.424  25.732  1.00  0.00     0.021 A 
HETATM   13  C7  UNL     1      19.439  60.181  25.167  1.00  0.00    -0.043 A 
HETATM   14  C8  UNL     1      18.928  60.028  23.904  1.00  0.00    -0.007 A 
HETATM   15  C41 UNL     1      20.042  59.044  25.932  1.00  0.00     0.066 C 
HETATM   16  C9  UNL     1      18.394  61.103  23.257  1.00  0.00     0.026 A 
HETATM   17  C39 UNL     1      18.985  58.821  23.365  1.00  0.00     0.146 C 
HETATM   18  O5  UNL     1      19.527  57.745  24.021  1.00  0.00    -0.362 OA
HETATM   19  C40 UNL     1      19.705  57.706  25.399  1.00  0.00     0.179 C 
BRANCH  11  20
HETATM   20  C4  UNL     1      18.875  63.682  25.786  1.00  0.00     0.103 C 
BRANCH  20  21
HETATM   21  N3  UNL     1      17.769  64.012  26.659  1.00  0.00    -0.340 N 
HETATM   22  C1  UNL     1      18.035  63.981  28.050  1.00  0.00     0.194 C 
HETATM   23  N1  UNL     1      19.383  63.950  28.487  1.00  0.00    -0.063 NA
HETATM   24  N2  UNL     1      17.052  63.965  28.866  1.00  0.00    -0.299 N 
HETATM   25  C2  UNL     1      17.175  63.914  30.285  1.00  0.00     0.247 C 
ATOM     26  H2  UNL     1      16.110  63.990  28.473  1.00  0.00     0.171 HD
HETATM   27  O1  UNL     1      18.213  64.224  30.912  1.00  0.00    -0.271 OA
ATOM     28  H3  UNL     1      16.849  64.254  26.293  1.00  0.00     0.167 HD
BRANCH  25  29
HETATM   29  C3  UNL     1      16.016  63.466  31.102  1.00  0.00     0.267 C 
BRANCH  29  30
HETATM   30  O2  UNL     1      15.397  62.365  30.513  1.00  0.00    -0.392 OA
ATOM     31  H2  UNL     1      15.227  62.528  29.593  1.00  0.00     0.210 HD
ENDBRANCH  29  30
ENDBRANCH  25  29
ENDBRANCH  20  21
ENDBRANCH  11  20
ENDBRANCH   9  10
ENDBRANCH   8   9
ENDBRANCH   1   8
BRANCH   6  32
HETATM   32  C18 UNL     1      14.318  67.916  21.699  1.00  0.00     0.309 C 
HETATM   33  O4  UNL     1      13.604  68.744  22.296  1.00  0.00    -0.262 OA
HETATM   34  N5  UNL     1      14.210  67.750  20.303  1.00  0.00    -0.346 N 
ATOM     35  H5  UNL     1      14.818  67.052  19.878  1.00  0.00     0.163 HD
BRANCH  34  36
HETATM   36  C19 UNL     1      13.337  68.457  19.421  1.00  0.00     0.107 C 
BRANCH  36  37
HETATM   37  C20 UNL     1      14.081  68.577  18.089  1.00  0.00     0.067 C 
BRANCH  37  38
HETATM   38  C21 UNL     1      15.354  69.317  18.219  1.00  0.00    -0.028 A 
HETATM   39  C22 UNL     1      15.474  70.695  18.368  1.00  0.00     0.096 A 
HETATM   40  N6  UNL     1      16.780  70.985  18.449  1.00  0.00    -0.365 N 
HETATM   41  C23 UNL     1      17.517  69.860  18.359  1.00  0.00     0.042 A 
ATOM     42  H6  UNL     1      17.162  71.924  18.561  1.00  0.00     0.165 HD
HETATM   43  C24 UNL     1      18.889  69.618  18.389  1.00  0.00     0.030 A 
HETATM   44  C28 UNL     1      16.638  68.826  18.216  1.00  0.00    -0.002 A 
HETATM   45  C25 UNL     1      19.377  68.338  18.276  1.00  0.00     0.002 A 
HETATM   46  C26 UNL     1      18.494  67.295  18.133  1.00  0.00     0.001 A 
HETATM   47  C27 UNL     1      17.150  67.525  18.101  1.00  0.00     0.014 A 
ENDBRANCH  37  38
ENDBRANCH  36  37
BRANCH  36  48
HETATM   48  C29 UNL     1      11.973  67.907  19.257  1.00  0.00     0.154 C 
BRANCH  48  49
HETATM   49  N7  UNL     1      10.926  68.529  20.039  1.00  0.00    -0.354 N 
HETATM   50  C30 UNL     1      10.458  69.772  19.819  1.00  0.00     0.091 A 
HETATM   51  C31 UNL     1       9.482  70.411  20.540  1.00  0.00     0.018 A 
HETATM   52  C32 UNL     1       8.911  69.745  21.593  1.00  0.00     0.015 A 
HETATM   53  C33 UNL     1       9.357  68.474  21.856  1.00  0.00    -0.009 A 
HETATM   54  C34 UNL     1       8.789  67.784  22.924  1.00  0.00     0.014 A 
HETATM   55  C38 UNL     1      10.347  67.883  21.088  1.00  0.00     0.044 A 
HETATM   56  C35 UNL     1       9.216  66.508  23.218  1.00  0.00     0.001 A 
HETATM   57  C36 UNL     1      10.213  65.905  22.451  1.00  0.00     0.002 A 
HETATM   58  C37 UNL     1      10.769  66.609  21.387  1.00  0.00     0.030 A 
ENDBRANCH  48  49
ENDBRANCH  36  48
ENDBRANCH  34  36
ENDBRANCH   6  32
TORSDOF 13
ENDMDL
MODEL 5
REMARK VINA RESULT: -10.445579496      2.985      7.552
REMARK  13 active torsions:
REMARK  status: ('A' for Active; 'I' for Inactive)
REMARK       I    between atoms: C1_2  and  N3_10 
REMARK       I    between atoms: N2_3  and  C2_5 
REMARK    1  A    between atoms: C2_5  and  C3_7 
REMARK    2  A    between atoms: C3_7  and  O2_8 
REMARK    3  A    between atoms: N3_10  and  C4_12 
REMARK    4  A    between atoms: C4_12  and  C5_13 
REMARK    5  A    between atoms: C10_18  and  C11_19 
REMARK    6  A    between atoms: C11_19  and  C12_20 
REMARK    7  A    between atoms: C12_20  and  C13_21 
REMARK       I    between atoms: N4_25  and  C17_26 
REMARK    8  A    between atoms: C17_26  and  C18_28 
REMARK       I    between atoms: C18_28  and  N5_30 
REMARK    9  A    between atoms: N5_30  and  C19_32 
REMARK   10  A    between atoms: C19_32  and  C20_33 
REMARK   11  A    between atoms: C19_32  and  C29_44 
REMARK   12  A    between atoms: C20_33  and  C21_34 
REMARK   13  A    between atoms: C29_44  and  N7_45 
ROOT
HETATM    1  C13 UNL     1      15.674  64.778  24.002  1.00  0.00     0.091 C 
HETATM    2  C14 UNL     1      14.773  64.618  25.255  1.00  0.00     0.027 C 
HETATM    3  C15 UNL     1      13.437  64.351  24.627  1.00  0.00     0.022 C 
HETATM    4  C16 UNL     1      13.498  65.082  23.299  1.00  0.00     0.127 C 
HETATM    5  N4  UNL     1      14.838  65.664  23.246  1.00  0.00    -0.339 N 
HETATM    6  C17 UNL     1      15.151  66.882  22.637  1.00  0.00     0.311 C 
HETATM    7  O3  UNL     1      16.315  67.397  22.779  1.00  0.00    -0.262 OA
ENDROOT
BRANCH   1   8
HETATM    8  C12 UNL     1      15.793  63.383  23.390  1.00  0.00     0.053 C 
BRANCH   8   9
HETATM    9  C11 UNL     1      17.141  62.979  23.090  1.00  0.00    -0.013 C 
BRANCH   9  10
HETATM   10  C10 UNL     1      17.960  62.102  23.889  1.00  0.00    -0.027 A 
HETATM   11  C5  UNL     1      18.720  62.366  24.972  1.00  0.00    -0.010 A 
HETATM   12  C6  UNL     1      19.414  61.308  25.586  1.00  0.00     0.021 A 
HETATM   13  C7  UNL     1      19.364  60.015  25.147  1.00  0.00    -0.043 A 
HETATM   14  C8  UNL     1      18.594  59.738  24.047  1.00  0.00    -0.007 A 
HETATM   15  C41 UNL     1      20.141  58.958  25.869  1.00  0.00     0.066 C 
HETATM   16  C9  UNL     1      17.911  60.745  23.430  1.00  0.00     0.026 A 
HETATM   17  C39 UNL     1      18.557  58.484  23.628  1.00  0.00     0.146 C 
HETATM   18  O5  UNL     1      19.249  57.477  24.252  1.00  0.00    -0.362 OA
HETATM   19  C40 UNL     1      19.723  57.574  25.554  1.00  0.00     0.179 C 
BRANCH  11  20
HETATM   20  C4  UNL     1      18.879  63.561  25.531  1.00  0.00     0.103 C 
BRANCH  20  21
HETATM   21  N3  UNL     1      20.159  63.914  26.105  1.00  0.00    -0.340 N 
HETATM   22  C1  UNL     1      20.449  65.298  26.192  1.00  0.00     0.194 C 
HETATM   23  N1  UNL     1      19.394  66.229  26.024  1.00  0.00    -0.063 NA
HETATM   24  N2  UNL     1      21.656  65.663  26.403  1.00  0.00    -0.299 N 
HETATM   25  C2  UNL     1      22.089  67.018  26.494  1.00  0.00     0.247 C 
ATOM     26  H2  UNL     1      22.360  64.933  26.514  1.00  0.00     0.171 HD
HETATM   27  O1  UNL     1      21.329  67.986  26.726  1.00  0.00    -0.271 OA
ATOM     28  H3  UNL     1      20.817  63.205  26.430  1.00  0.00     0.167 HD
BRANCH  25  29
HETATM   29  C3  UNL     1      23.529  67.337  26.303  1.00  0.00     0.267 C 
BRANCH  29  30
HETATM   30  O2  UNL     1      24.230  66.210  25.878  1.00  0.00    -0.392 OA
ATOM     31  H2  UNL     1      25.162  66.318  26.029  1.00  0.00     0.210 HD
ENDBRANCH  29  30
ENDBRANCH  25  29
ENDBRANCH  20  21
ENDBRANCH  11  20
ENDBRANCH   9  10
ENDBRANCH   8   9
ENDBRANCH   1   8
BRANCH   6  32
HETATM   32  C18 UNL     1      14.236  67.670  21.813  1.00  0.00     0.309 C 
HETATM   33  O4  UNL     1      13.586  68.557  22.398  1.00  0.00    -0.262 OA
HETATM   34  N5  UNL     1      14.086  67.470  20.425  1.00  0.00    -0.346 N 
ATOM     35  H5  UNL     1      14.642  66.723  20.009  1.00  0.00     0.163 HD
BRANCH  34  36
HETATM   36  C19 UNL     1      13.236  68.201  19.540  1.00  0.00     0.107 C 
BRANCH  36  37
HETATM   37  C20 UNL     1      13.977  68.277  18.203  1.00  0.00     0.067 C 
BRANCH  37  38
HETATM   38  C21 UNL     1      15.188  69.122  18.277  1.00  0.00    -0.028 A 
HETATM   39  C22 UNL     1      15.199  70.509  18.389  1.00  0.00     0.096 A 
HETATM   40  N6  UNL     1      16.478  70.906  18.424  1.00  0.00    -0.365 N 
HETATM   41  C23 UNL     1      17.302  69.842  18.340  1.00  0.00     0.042 A 
ATOM     42  H6  UNL     1      16.785  71.876  18.502  1.00  0.00     0.165 HD
HETATM   43  C24 UNL     1      18.689  69.714  18.336  1.00  0.00     0.030 A 
HETATM   44  C28 UNL     1      16.508  68.737  18.248  1.00  0.00    -0.002 A 
HETATM   45  C25 UNL     1      19.278  68.476  18.240  1.00  0.00     0.002 A 
HETATM   46  C26 UNL     1      18.480  67.361  18.148  1.00  0.00     0.001 A 
HETATM   47  C27 UNL     1      17.121  67.480  18.151  1.00  0.00     0.014 A 
ENDBRANCH  37  38
ENDBRANCH  36  37
BRANCH  36  48
HETATM   48  C29 UNL     1      11.851  67.702  19.388  1.00  0.00     0.154 C 
BRANCH  48  49
HETATM   49  N7  UNL     1      10.828  68.397  20.140  1.00  0.00    -0.354 N 
HETATM   50  C30 UNL     1      10.421  69.654  19.876  1.00  0.00     0.091 A 
HETATM   51  C31 UNL     1       9.471  70.360  20.566  1.00  0.00     0.018 A 
HETATM   52  C32 UNL     1       8.858  69.756  21.633  1.00  0.00     0.015 A 
HETATM   53  C33 UNL     1       9.241  68.474  21.940  1.00  0.00    -0.009 A 
HETATM   54  C34 UNL     1       8.630  67.846  23.023  1.00  0.00     0.014 A 
HETATM   55  C38 UNL     1      10.209  67.813  21.202  1.00  0.00     0.044 A 
HETATM   56  C35 UNL     1       8.993  66.560  23.361  1.00  0.00     0.001 A 
HETATM   57  C36 UNL     1       9.967  65.887  22.624  1.00  0.00     0.002 A 
HETATM   58  C37 UNL     1      10.566  66.530  21.545  1.00  0.00     0.030 A 
ENDBRANCH  48  49
ENDBRANCH  36  48
ENDBRANCH  34  36
ENDBRANCH   6  32
TORSDOF 13
ENDMDL
