MODEL 1
REMARK VINA RESULT: -9.981742192      0.000      0.000
REMARK  14 active torsions:
REMARK  status: ('A' for Active; 'I' for Inactive)
REMARK       I    between atoms: C1_4  and  N3_6 
REMARK       I    between atoms: N3_6  and  C2_8 
REMARK    1  A    between atoms: C2_8  and  C3_10 
REMARK    2  A    between atoms: C3_10  and  C4_11 
REMARK    3  A    between atoms: C7_14  and  C8_15 
REMARK    4  A    between atoms: C8_15  and  C9_16 
REMARK    5  A    between atoms: C9_16  and  C10_17 
REMARK    6  A    between atoms: N4_20  and  C13_21 
REMARK    7  A    between atoms: C13_21  and  C14_22 
REMARK    8  A    between atoms: C17_25  and  C18_26 
REMARK    9  A    between atoms: C19_27  and  N5_28 
REMARK   10  A    between atoms: N5_28  and  C20_29 
REMARK   11  A    between atoms: C20_29  and  C21_30 
REMARK   12  A    between atoms: C21_30  and  S1_31 
REMARK   13  A    between atoms: N6_41  and  C27_42 
REMARK   14  A    between atoms: C27_42  and  C28_43 
ROOT
HETATM    1  C14 UNL     1      10.578  66.953  25.561  1.00  0.00    -0.040 A 
HETATM    2  C15 UNL     1      10.640  65.673  26.082  1.00  0.00     0.009 A 
HETATM    3  C16 UNL     1      11.747  65.216  26.736  1.00  0.00     0.010 A 
HETATM    4  C17 UNL     1      12.869  65.970  26.930  1.00  0.00    -0.032 A 
HETATM    5  C34 UNL     1      12.775  67.264  26.390  1.00  0.00     0.010 A 
HETATM    6  C35 UNL     1      11.688  67.748  25.734  1.00  0.00     0.009 A 
ENDROOT
BRANCH   1   7
HETATM    7  C13 UNL     1       9.400  67.483  24.850  1.00  0.00     0.166 C 
BRANCH   7   8
HETATM    8  N4  UNL     1       9.680  67.810  23.465  1.00  0.00    -0.362 N 
HETATM    9  C12 UNL     1      10.214  66.869  22.666  1.00  0.00     0.091 A 
HETATM   10  C11 UNL     1      10.473  67.200  21.355  1.00  0.00     0.024 A 
HETATM   11  C10 UNL     1      10.196  68.459  20.866  1.00  0.00    -0.052 A 
HETATM   12  C37 UNL     1       9.649  69.397  21.714  1.00  0.00     0.024 A 
HETATM   13  C36 UNL     1       9.397  69.047  23.022  1.00  0.00     0.091 A 
BRANCH  11  14
HETATM   14  C9  UNL     1      10.500  68.760  19.427  1.00  0.00     0.068 C 
BRANCH  14  15
HETATM   15  C8  UNL     1      11.923  69.188  19.284  1.00  0.00     0.007 C 
BRANCH  15  16
HETATM   16  C7  UNL     1      12.787  68.431  18.655  1.00  0.00     0.029 A 
HETATM   17  C6  UNL     1      13.548  68.747  17.565  1.00  0.00     0.031 A 
HETATM   18  C5  UNL     1      14.317  67.634  17.240  1.00  0.00     0.032 A 
HETATM   19  C4  UNL     1      14.016  66.642  18.141  1.00  0.00     0.037 A 
HETATM   20  N7  UNL     1      13.078  67.166  18.989  1.00  0.00    -0.356 N 
ATOM     21  H7  UNL     1      12.656  66.662  19.771  1.00  0.00     0.166 HD
BRANCH  19  22
HETATM   22  C3  UNL     1      14.486  65.433  18.228  1.00  0.00     0.104 C 
BRANCH  22  23
HETATM   23  C2  UNL     1      15.753  65.098  18.799  1.00  0.00     0.249 C 
HETATM   24  N3  UNL     1      16.937  65.731  18.277  1.00  0.00    -0.298 N 
HETATM   25  C1  UNL     1      18.223  65.448  18.794  1.00  0.00     0.188 C 
ATOM     26  H3  UNL     1      16.845  66.402  17.514  1.00  0.00     0.171 HD
HETATM   27  N1  UNL     1      19.258  66.040  18.294  1.00  0.00    -0.373 N 
HETATM   28  N2  UNL     1      18.381  64.510  19.865  1.00  0.00    -0.064 NA
ATOM     29  H12 UNL     1      20.185  65.836  18.667  1.00  0.00     0.158 HD
ATOM     30  H11 UNL     1      19.146  66.708  17.532  1.00  0.00     0.158 HD
HETATM   31  O1  UNL     1      15.926  64.276  19.743  1.00  0.00    -0.268 OA
ENDBRANCH  22  23
ENDBRANCH  19  22
ENDBRANCH  15  16
ENDBRANCH  14  15
ENDBRANCH  11  14
ENDBRANCH   7   8
ENDBRANCH   1   7
BRANCH   4  32
HETATM   32  C18 UNL     1      14.087  65.585  27.602  1.00  0.00     0.165 C 
HETATM   33  C19 UNL     1      15.260  65.020  26.993  1.00  0.00     0.309 C 
HETATM   34  C26 UNL     1      15.449  64.385  28.321  1.00  0.00     0.258 C 
HETATM   35  O5  UNL     1      16.411  63.882  28.934  1.00  0.00    -0.271 OA
HETATM   36  N6  UNL     1      14.055  64.573  28.655  1.00  0.00    -0.314 N 
BRANCH  33  37
HETATM   37  N5  UNL     1      15.396  64.161  25.902  1.00  0.00    -0.051 N 
HETATM   38  C22 UNL     1      14.888  62.863  25.872  1.00  0.00     0.238 A 
HETATM   39  C23 UNL     1      14.206  62.623  24.519  1.00  0.00     0.030 A 
HETATM   40  C24 UNL     1      14.270  63.930  23.800  1.00  0.00     0.030 A 
HETATM   41  C25 UNL     1      14.985  64.866  24.702  1.00  0.00     0.238 A 
BRANCH  37  42
HETATM   42  C20 UNL     1      16.866  64.006  25.743  1.00  0.00     0.256 C 
BRANCH  42  43
HETATM   43  C21 UNL     1      17.324  62.601  25.721  1.00  0.00     0.193 C 
BRANCH  43  44
HETATM   44  S1  UNL     1      18.171  62.357  24.147  1.00  0.00     0.103 S 
HETATM   45  O2  UNL     1      18.374  63.701  23.507  1.00  0.00    -0.595 OA
HETATM   46  O3  UNL     1      17.354  61.523  23.226  1.00  0.00    -0.595 OA
HETATM   47  O4  UNL     1      19.694  61.695  24.402  1.00  0.00    -0.595 OA
ENDBRANCH  43  44
ENDBRANCH  42  43
ENDBRANCH  37  42
ENDBRANCH  33  37
BRANCH  36  48
HETATM   48  C27 UNL     1      13.246  63.965  29.651  1.00  0.00     0.106 C 
BRANCH  48  49
HETATM   49  C28 UNL     1      12.432  62.819  29.302  1.00  0.00    -0.021 A 
HETATM   50  C29 UNL     1      12.243  62.422  27.996  1.00  0.00     0.013 A 
HETATM   51  C30 UNL     1      11.458  61.337  27.644  1.00  0.00     0.001 A 
HETATM   52  C31 UNL     1      10.834  60.614  28.630  1.00  0.00     0.000 A 
HETATM   53  C32 UNL     1      11.003  60.985  29.953  1.00  0.00     0.001 A 
HETATM   54  C33 UNL     1      11.784  62.061  30.263  1.00  0.00     0.013 A 
ENDBRANCH  48  49
ENDBRANCH  36  48
ENDBRANCH   4  32
TORSDOF 14
ENDMDL
MODEL 2
REMARK VINA RESULT: -9.525615127      0.800      1.502
REMARK  14 active torsions:
REMARK  status: ('A' for Active; 'I' for Inactive)
REMARK       I    between atoms: C1_4  and  N3_6 
REMARK       I    between atoms: N3_6  and  C2_8 
REMARK    1  A    between atoms: C2_8  and  C3_10 
REMARK    2  A    between atoms: C3_10  and  C4_11 
REMARK    3  A    between atoms: C7_14  and  C8_15 
REMARK    4  A    between atoms: C8_15  and  C9_16 
REMARK    5  A    between atoms: C9_16  and  C10_17 
REMARK    6  A    between atoms: N4_20  and  C13_21 
REMARK    7  A    between atoms: C13_21  and  C14_22 
REMARK    8  A    between atoms: C17_25  and  C18_26 
REMARK    9  A    between atoms: C19_27  and  N5_28 
REMARK   10  A    between atoms: N5_28  and  C20_29 
REMARK   11  A    between atoms: C20_29  and  C21_30 
REMARK   12  A    between atoms: C21_30  and  S1_31 
REMARK   13  A    between atoms: N6_41  and  C27_42 
REMARK   14  A    between atoms: C27_42  and  C28_43 
ROOT
HETATM    1  C14 UNL     1      10.530  66.877  25.917  1.00  0.00    -0.040 A 
HETATM    2  C15 UNL     1      10.614  65.561  26.334  1.00  0.00     0.009 A 
HETATM    3  C16 UNL     1      11.716  65.079  26.977  1.00  0.00     0.010 A 
HETATM    4  C17 UNL     1      12.814  65.843  27.260  1.00  0.00    -0.032 A 
HETATM    5  C34 UNL     1      12.697  67.174  26.824  1.00  0.00     0.010 A 
HETATM    6  C35 UNL     1      11.614  67.683  26.182  1.00  0.00     0.009 A 
ENDROOT
BRANCH   1   7
HETATM    7  C13 UNL     1       9.355  67.434  25.221  1.00  0.00     0.166 C 
BRANCH   7   8
HETATM    8  N4  UNL     1       9.592  67.654  23.807  1.00  0.00    -0.362 N 
HETATM    9  C12 UNL     1       9.322  68.861  23.279  1.00  0.00     0.091 A 
HETATM   10  C11 UNL     1       9.553  69.049  21.935  1.00  0.00     0.024 A 
HETATM   11  C10 UNL     1      10.048  68.034  21.144  1.00  0.00    -0.052 A 
HETATM   12  C37 UNL     1      10.314  66.811  21.720  1.00  0.00     0.024 A 
HETATM   13  C36 UNL     1      10.076  66.642  23.066  1.00  0.00     0.091 A 
BRANCH  11  14
HETATM   14  C9  UNL     1      10.281  68.301  19.685  1.00  0.00     0.068 C 
BRANCH  14  15
HETATM   15  C8  UNL     1      11.439  69.228  19.515  1.00  0.00     0.007 C 
BRANCH  15  16
HETATM   16  C7  UNL     1      12.521  68.835  18.888  1.00  0.00     0.029 A 
HETATM   17  C6  UNL     1      13.487  69.609  18.310  1.00  0.00     0.031 A 
HETATM   18  C5  UNL     1      14.445  68.761  17.761  1.00  0.00     0.032 A 
HETATM   19  C4  UNL     1      14.051  67.470  18.011  1.00  0.00     0.037 A 
HETATM   20  N7  UNL     1      12.871  67.556  18.701  1.00  0.00    -0.356 N 
ATOM     21  H7  UNL     1      12.331  66.754  19.028  1.00  0.00     0.166 HD
BRANCH  19  22
HETATM   22  C3  UNL     1      14.628  66.351  17.687  1.00  0.00     0.104 C 
BRANCH  22  23
HETATM   23  C2  UNL     1      15.766  65.805  18.360  1.00  0.00     0.249 C 
HETATM   24  N3  UNL     1      15.571  65.146  19.625  1.00  0.00    -0.298 N 
HETATM   25  C1  UNL     1      16.650  64.582  20.346  1.00  0.00     0.188 C 
ATOM     26  H3  UNL     1      14.629  65.083  20.012  1.00  0.00     0.171 HD
HETATM   27  N1  UNL     1      16.429  64.000  21.478  1.00  0.00    -0.373 N 
HETATM   28  N2  UNL     1      17.983  64.656  19.826  1.00  0.00    -0.064 NA
ATOM     29  H12 UNL     1      17.207  63.594  21.998  1.00  0.00     0.158 HD
ATOM     30  H11 UNL     1      15.480  63.947  21.849  1.00  0.00     0.158 HD
HETATM   31  O1  UNL     1      16.952  65.853  17.928  1.00  0.00    -0.268 OA
ENDBRANCH  22  23
ENDBRANCH  19  22
ENDBRANCH  15  16
ENDBRANCH  14  15
ENDBRANCH  11  14
ENDBRANCH   7   8
ENDBRANCH   1   7
BRANCH   4  32
HETATM   32  C18 UNL     1      14.025  65.434  27.930  1.00  0.00     0.165 C 
HETATM   33  C19 UNL     1      15.206  64.896  27.312  1.00  0.00     0.309 C 
HETATM   34  C26 UNL     1      15.383  64.210  28.616  1.00  0.00     0.258 C 
HETATM   35  O5  UNL     1      16.339  63.685  29.220  1.00  0.00    -0.271 OA
HETATM   36  N6  UNL     1      13.984  64.381  28.941  1.00  0.00    -0.314 N 
BRANCH  33  37
HETATM   37  N5  UNL     1      15.357  64.082  26.189  1.00  0.00    -0.051 N 
HETATM   38  C22 UNL     1      14.876  62.775  26.113  1.00  0.00     0.238 A 
HETATM   39  C23 UNL     1      14.195  62.571  24.753  1.00  0.00     0.030 A 
HETATM   40  C24 UNL     1      14.229  63.905  24.083  1.00  0.00     0.030 A 
HETATM   41  C25 UNL     1      14.927  64.822  25.018  1.00  0.00     0.238 A 
BRANCH  37  42
HETATM   42  C20 UNL     1      16.830  63.964  26.022  1.00  0.00     0.256 C 
BRANCH  42  43
HETATM   43  C21 UNL     1      17.308  62.575  25.862  1.00  0.00     0.193 C 
BRANCH  43  44
HETATM   44  S1  UNL     1      18.156  62.498  24.272  1.00  0.00     0.103 S 
HETATM   45  O2  UNL     1      17.290  61.731  23.312  1.00  0.00    -0.595 OA
HETATM   46  O3  UNL     1      19.456  61.787  24.395  1.00  0.00    -0.595 OA
HETATM   47  O4  UNL     1      18.347  64.043  23.639  1.00  0.00    -0.595 OA
ENDBRANCH  43  44
ENDBRANCH  42  43
ENDBRANCH  37  42
ENDBRANCH  33  37
BRANCH  36  48
HETATM   48  C27 UNL     1      13.166  63.732  29.903  1.00  0.00     0.106 C 
BRANCH  48  49
HETATM   49  C28 UNL     1      12.292  62.656  29.482  1.00  0.00    -0.021 A 
HETATM   50  C29 UNL     1      11.512  61.953  30.373  1.00  0.00     0.013 A 
HETATM   51  C30 UNL     1      10.681  60.913  29.989  1.00  0.00     0.001 A 
HETATM   52  C31 UNL     1      10.621  60.557  28.664  1.00  0.00     0.000 A 
HETATM   53  C32 UNL     1      11.392  61.245  27.743  1.00  0.00     0.001 A 
HETATM   54  C33 UNL     1      12.200  62.264  28.157  1.00  0.00     0.013 A 
ENDBRANCH  48  49
ENDBRANCH  36  48
ENDBRANCH   4  32
TORSDOF 14
ENDMDL
MODEL 3
REMARK VINA RESULT: -9.510713663      0.931      1.192
REMARK  14 active torsions:
REMARK  status: ('A' for Active; 'I' for Inactive)
REMARK       I    between atoms: C1_4  and  N3_6 
REMARK       I    between atoms: N3_6  and  C2_8 
REMARK    1  A    between atoms: C2_8  and  C3_10 
REMARK    2  A    between atoms: C3_10  and  C4_11 
REMARK    3  A    between atoms: C7_14  and  C8_15 
REMARK    4  A    between atoms: C8_15  and  C9_16 
REMARK    5  A    between atoms: C9_16  and  C10_17 
REMARK    6  A    between atoms: N4_20  and  C13_21 
REMARK    7  A    between atoms: C13_21  and  C14_22 
REMARK    8  A    between atoms: C17_25  and  C18_26 
REMARK    9  A    between atoms: C19_27  and  N5_28 
REMARK   10  A    between atoms: N5_28  and  C20_29 
REMARK   11  A    between atoms: C20_29  and  C21_30 
REMARK   12  A    between atoms: C21_30  and  S1_31 
REMARK   13  A    between atoms: N6_41  and  C27_42 
REMARK   14  A    between atoms: C27_42  and  C28_43 
ROOT
HETATM    1  C14 UNL     1      10.606  66.940  25.534  1.00  0.00    -0.040 A 
HETATM    2  C15 UNL     1      10.763  65.611  25.885  1.00  0.00     0.009 A 
HETATM    3  C16 UNL     1      11.892  65.159  26.503  1.00  0.00     0.010 A 
HETATM    4  C17 UNL     1      12.947  65.966  26.823  1.00  0.00    -0.032 A 
HETATM    5  C34 UNL     1      12.757  67.309  26.454  1.00  0.00     0.010 A 
HETATM    6  C35 UNL     1      11.645  67.789  25.838  1.00  0.00     0.009 A 
ENDROOT
BRANCH   1   7
HETATM    7  C13 UNL     1       9.400  67.466  24.867  1.00  0.00     0.166 C 
BRANCH   7   8
HETATM    8  N4  UNL     1       9.646  67.862  23.494  1.00  0.00    -0.362 N 
HETATM    9  C12 UNL     1      10.090  66.944  22.618  1.00  0.00     0.091 A 
HETATM   10  C11 UNL     1      10.318  67.341  21.319  1.00  0.00     0.024 A 
HETATM   11  C10 UNL     1      10.101  68.642  20.919  1.00  0.00    -0.052 A 
HETATM   12  C37 UNL     1       9.645  69.556  21.845  1.00  0.00     0.024 A 
HETATM   13  C36 UNL     1       9.423  69.140  23.138  1.00  0.00     0.091 A 
BRANCH  11  14
HETATM   14  C9  UNL     1      10.366  69.015  19.490  1.00  0.00     0.068 C 
BRANCH  14  15
HETATM   15  C8  UNL     1      11.692  69.692  19.376  1.00  0.00     0.007 C 
BRANCH  15  16
HETATM   16  C7  UNL     1      12.648  69.167  18.650  1.00  0.00     0.029 A 
HETATM   17  C6  UNL     1      12.528  68.338  17.570  1.00  0.00     0.031 A 
HETATM   18  C5  UNL     1      13.808  68.032  17.119  1.00  0.00     0.032 A 
HETATM   19  C4  UNL     1      14.704  68.682  17.933  1.00  0.00     0.037 A 
HETATM   20  N7  UNL     1      13.957  69.365  18.856  1.00  0.00    -0.356 N 
ATOM     21  H7  UNL     1      14.345  69.945  19.601  1.00  0.00     0.166 HD
BRANCH  19  22
HETATM   22  C3  UNL     1      16.003  68.690  17.894  1.00  0.00     0.104 C 
BRANCH  22  23
HETATM   23  C2  UNL     1      16.831  67.611  18.337  1.00  0.00     0.249 C 
HETATM   24  N3  UNL     1      18.202  67.565  17.897  1.00  0.00    -0.298 N 
HETATM   25  C1  UNL     1      19.078  66.527  18.296  1.00  0.00     0.188 C 
ATOM     26  H3  UNL     1      18.550  68.300  17.282  1.00  0.00     0.171 HD
HETATM   27  N1  UNL     1      20.300  66.526  17.877  1.00  0.00    -0.373 N 
HETATM   28  N2  UNL     1      18.614  65.482  19.160  1.00  0.00    -0.064 NA
ATOM     29  H12 UNL     1      20.931  65.779  18.164  1.00  0.00     0.158 HD
ATOM     30  H11 UNL     1      20.631  67.270  17.262  1.00  0.00     0.158 HD
HETATM   31  O1  UNL     1      16.453  66.675  19.097  1.00  0.00    -0.268 OA
ENDBRANCH  22  23
ENDBRANCH  19  22
ENDBRANCH  15  16
ENDBRANCH  14  15
ENDBRANCH  11  14
ENDBRANCH   7   8
ENDBRANCH   1   7
BRANCH   4  32
HETATM   32  C18 UNL     1      14.181  65.592  27.472  1.00  0.00     0.165 C 
HETATM   33  C19 UNL     1      15.340  65.021  26.842  1.00  0.00     0.309 C 
HETATM   34  C26 UNL     1      15.562  64.403  28.174  1.00  0.00     0.258 C 
HETATM   35  O5  UNL     1      16.538  63.910  28.770  1.00  0.00    -0.271 OA
HETATM   36  N6  UNL     1      14.175  64.593  28.537  1.00  0.00    -0.314 N 
BRANCH  33  37
HETATM   37  N5  UNL     1      15.452  64.149  25.759  1.00  0.00    -0.051 N 
HETATM   38  C22 UNL     1      14.895  62.871  25.735  1.00  0.00     0.238 A 
HETATM   39  C23 UNL     1      14.216  62.646  24.377  1.00  0.00     0.030 A 
HETATM   40  C24 UNL     1      14.336  63.944  23.649  1.00  0.00     0.030 A 
HETATM   41  C25 UNL     1      15.079  64.859  24.551  1.00  0.00     0.238 A 
BRANCH  37  42
HETATM   42  C20 UNL     1      16.917  63.936  25.615  1.00  0.00     0.256 C 
BRANCH  42  43
HETATM   43  C21 UNL     1      17.316  62.514  25.558  1.00  0.00     0.193 C 
BRANCH  43  44
HETATM   44  S1  UNL     1      18.126  62.266  23.965  1.00  0.00     0.103 S 
HETATM   45  O2  UNL     1      17.263  61.358  23.135  1.00  0.00    -0.595 OA
HETATM   46  O3  UNL     1      19.452  61.618  24.138  1.00  0.00    -0.595 OA
HETATM   47  O4  UNL     1      18.246  63.725  23.140  1.00  0.00    -0.595 OA
ENDBRANCH  43  44
ENDBRANCH  42  43
ENDBRANCH  37  42
ENDBRANCH  33  37
BRANCH  36  48
HETATM   48  C27 UNL     1      13.391  63.996  29.559  1.00  0.00     0.106 C 
BRANCH  48  49
HETATM   49  C28 UNL     1      12.536  62.872  29.234  1.00  0.00    -0.021 A 
HETATM   50  C29 UNL     1      12.338  62.453  27.937  1.00  0.00     0.013 A 
HETATM   51  C30 UNL     1      11.514  61.390  27.607  1.00  0.00     0.001 A 
HETATM   52  C31 UNL     1      10.860  60.713  28.607  1.00  0.00     0.000 A 
HETATM   53  C32 UNL     1      11.038  61.109  29.921  1.00  0.00     0.001 A 
HETATM   54  C33 UNL     1      11.858  62.162  30.209  1.00  0.00     0.013 A 
ENDBRANCH  48  49
ENDBRANCH  36  48
ENDBRANCH   4  32
TORSDOF 14
ENDMDL
MODEL 4
REMARK VINA RESULT: -9.426487293      1.665      2.209
REMARK  14 active torsions:
REMARK  status: ('A' for Active; 'I' for Inactive)
REMARK       I    between atoms: C1_4  and  N3_6 
REMARK       I    between atoms: N3_6  and  C2_8 
REMARK    1  A    between atoms: C2_8  and  C3_10 
REMARK    2  A    between atoms: C3_10  and  C4_11 
REMARK    3  A    between atoms: C7_14  and  C8_15 
REMARK    4  A    between atoms: C8_15  and  C9_16 
REMARK    5  A    between atoms: C9_16  and  C10_17 
REMARK    6  A    between atoms: N4_20  and  C13_21 
REMARK    7  A    between atoms: C13_21  and  C14_22 
REMARK    8  A    between atoms: C17_25  and  C18_26 
REMARK    9  A    between atoms: C19_27  and  N5_28 
REMARK   10  A    between atoms: N5_28  and  C20_29 
REMARK   11  A    between atoms: C20_29  and  C21_30 
REMARK   12  A    between atoms: C21_30  and  S1_31 
REMARK   13  A    between atoms: N6_41  and  C27_42 
REMARK   14  A    between atoms: C27_42  and  C28_43 
ROOT
HETATM    1  C14 UNL     1      11.083  67.304  24.998  1.00  0.00    -0.040 A 
HETATM    2  C15 UNL     1      11.812  67.621  26.130  1.00  0.00     0.009 A 
HETATM    3  C16 UNL     1      12.782  66.794  26.616  1.00  0.00     0.010 A 
HETATM    4  C17 UNL     1      13.112  65.602  26.036  1.00  0.00    -0.032 A 
HETATM    5  C34 UNL     1      12.355  65.309  24.889  1.00  0.00     0.010 A 
HETATM    6  C35 UNL     1      11.383  66.111  24.381  1.00  0.00     0.009 A 
ENDROOT
BRANCH   1   7
HETATM    7  C13 UNL     1      10.029  68.173  24.442  1.00  0.00     0.166 C 
BRANCH   7   8
HETATM    8  N4  UNL     1      10.336  68.644  23.105  1.00  0.00    -0.362 N 
HETATM    9  C12 UNL     1       9.686  68.106  22.058  1.00  0.00     0.091 A 
HETATM   10  C11 UNL     1       9.992  68.566  20.797  1.00  0.00     0.024 A 
HETATM   11  C10 UNL     1      10.938  69.550  20.603  1.00  0.00    -0.052 A 
HETATM   12  C37 UNL     1      11.583  70.079  21.701  1.00  0.00     0.024 A 
HETATM   13  C36 UNL     1      11.263  69.605  22.953  1.00  0.00     0.091 A 
BRANCH  11  14
HETATM   14  C9  UNL     1      11.227  70.012  19.205  1.00  0.00     0.068 C 
BRANCH  14  15
HETATM   15  C8  UNL     1      12.702  70.058  18.978  1.00  0.00     0.007 C 
BRANCH  15  16
HETATM   16  C7  UNL     1      13.333  69.020  18.486  1.00  0.00     0.029 A 
HETATM   17  C6  UNL     1      13.072  68.346  17.326  1.00  0.00     0.031 A 
HETATM   18  C5  UNL     1      13.996  67.313  17.212  1.00  0.00     0.032 A 
HETATM   19  C4  UNL     1      14.819  67.366  18.311  1.00  0.00     0.037 A 
HETATM   20  N7  UNL     1      14.383  68.422  19.066  1.00  0.00    -0.356 N 
ATOM     21  H7  UNL     1      14.800  68.713  19.951  1.00  0.00     0.166 HD
BRANCH  19  22
HETATM   22  C3  UNL     1      15.822  66.603  18.632  1.00  0.00     0.104 C 
BRANCH  22  23
HETATM   23  C2  UNL     1      17.153  67.073  18.859  1.00  0.00     0.249 C 
HETATM   24  N3  UNL     1      18.198  66.652  17.961  1.00  0.00    -0.298 N 
HETATM   25  C1  UNL     1      19.537  67.078  18.125  1.00  0.00     0.188 C 
ATOM     26  H3  UNL     1      17.966  66.031  17.186  1.00  0.00     0.171 HD
HETATM   27  N1  UNL     1      20.443  66.676  17.295  1.00  0.00    -0.373 N 
HETATM   28  N2  UNL     1      19.891  67.951  19.205  1.00  0.00    -0.064 NA
ATOM     29  H12 UNL     1      21.408  66.983  17.413  1.00  0.00     0.158 HD
ATOM     30  H11 UNL     1      20.191  66.055  16.525  1.00  0.00     0.158 HD
HETATM   31  O1  UNL     1      17.497  67.842  19.800  1.00  0.00    -0.268 OA
ENDBRANCH  22  23
ENDBRANCH  19  22
ENDBRANCH  15  16
ENDBRANCH  14  15
ENDBRANCH  11  14
ENDBRANCH   7   8
ENDBRANCH   1   7
BRANCH   4  32
HETATM   32  C18 UNL     1      14.114  64.657  26.467  1.00  0.00     0.165 C 
HETATM   33  C19 UNL     1      15.419  64.470  25.892  1.00  0.00     0.309 C 
HETATM   34  C26 UNL     1      15.260  63.078  26.383  1.00  0.00     0.258 C 
HETATM   35  O5  UNL     1      16.034  62.135  26.639  1.00  0.00    -0.271 OA
HETATM   36  N6  UNL     1      13.823  63.225  26.459  1.00  0.00    -0.314 N 
BRANCH  33  37
HETATM   37  N5  UNL     1      15.858  64.585  24.573  1.00  0.00    -0.051 N 
HETATM   38  C22 UNL     1      15.289  63.892  23.505  1.00  0.00     0.238 A 
HETATM   39  C23 UNL     1      15.108  64.854  22.324  1.00  0.00     0.030 A 
HETATM   40  C24 UNL     1      15.525  66.195  22.830  1.00  0.00     0.030 A 
HETATM   41  C25 UNL     1      15.952  65.994  24.237  1.00  0.00     0.238 A 
BRANCH  37  42
HETATM   42  C20 UNL     1      17.273  64.130  24.621  1.00  0.00     0.256 C 
BRANCH  42  43
HETATM   43  C21 UNL     1      18.164  65.014  25.400  1.00  0.00     0.193 C 
BRANCH  43  44
HETATM   44  S1  UNL     1      19.665  64.071  25.736  1.00  0.00     0.103 S 
HETATM   45  O2  UNL     1      19.543  63.461  27.104  1.00  0.00    -0.595 OA
HETATM   46  O3  UNL     1      20.861  64.954  25.726  1.00  0.00    -0.595 OA
HETATM   47  O4  UNL     1      19.814  62.805  24.641  1.00  0.00    -0.595 OA
ENDBRANCH  43  44
ENDBRANCH  42  43
ENDBRANCH  37  42
ENDBRANCH  33  37
BRANCH  36  48
HETATM   48  C27 UNL     1      12.791  62.254  26.541  1.00  0.00     0.106 C 
BRANCH  48  49
HETATM   49  C28 UNL     1      12.285  61.864  27.842  1.00  0.00    -0.021 A 
HETATM   50  C29 UNL     1      11.146  61.104  27.988  1.00  0.00     0.013 A 
HETATM   51  C30 UNL     1      10.641  60.734  29.223  1.00  0.00     0.001 A 
HETATM   52  C31 UNL     1      11.296  61.134  30.362  1.00  0.00     0.000 A 
HETATM   53  C32 UNL     1      12.444  61.898  30.250  1.00  0.00     0.001 A 
HETATM   54  C33 UNL     1      12.913  62.245  29.016  1.00  0.00     0.013 A 
ENDBRANCH  48  49
ENDBRANCH  36  48
ENDBRANCH   4  32
TORSDOF 14
ENDMDL
MODEL 5
REMARK VINA RESULT: -9.423989917      0.903      1.359
REMARK  14 active torsions:
REMARK  status: ('A' for Active; 'I' for Inactive)
REMARK       I    between atoms: C1_4  and  N3_6 
REMARK       I    between atoms: N3_6  and  C2_8 
REMARK    1  A    between atoms: C2_8  and  C3_10 
REMARK    2  A    between atoms: C3_10  and  C4_11 
REMARK    3  A    between atoms: C7_14  and  C8_15 
REMARK    4  A    between atoms: C8_15  and  C9_16 
REMARK    5  A    between atoms: C9_16  and  C10_17 
REMARK    6  A    between atoms: N4_20  and  C13_21 
REMARK    7  A    between atoms: C13_21  and  C14_22 
REMARK    8  A    between atoms: C17_25  and  C18_26 
REMARK    9  A    between atoms: C19_27  and  N5_28 
REMARK   10  A    between atoms: N5_28  and  C20_29 
REMARK   11  A    between atoms: C20_29  and  C21_30 
REMARK   12  A    between atoms: C21_30  and  S1_31 
REMARK   13  A    between atoms: N6_41  and  C27_42 
REMARK   14  A    between atoms: C27_42  and  C28_43 
ROOT
HETATM    1  C14 UNL     1      10.815  67.195  25.487  1.00  0.00    -0.040 A 
HETATM    2  C15 UNL     1      10.990  65.832  25.650  1.00  0.00     0.009 A 
HETATM    3  C16 UNL     1      12.073  65.319  26.301  1.00  0.00     0.010 A 
HETATM    4  C17 UNL     1      13.061  66.094  26.840  1.00  0.00    -0.032 A 
HETATM    5  C34 UNL     1      12.854  67.472  26.659  1.00  0.00     0.010 A 
HETATM    6  C35 UNL     1      11.787  68.013  26.015  1.00  0.00     0.009 A 
ENDROOT
BRANCH   1   7
HETATM    7  C13 UNL     1       9.657  67.786  24.791  1.00  0.00     0.166 C 
BRANCH   7   8
HETATM    8  N4  UNL     1       9.956  68.159  23.421  1.00  0.00    -0.362 N 
HETATM    9  C12 UNL     1      10.237  69.444  23.140  1.00  0.00     0.091 A 
HETATM   10  C11 UNL     1      10.518  69.776  21.833  1.00  0.00     0.024 A 
HETATM   11  C10 UNL     1      10.513  68.826  20.835  1.00  0.00    -0.052 A 
HETATM   12  C37 UNL     1      10.221  67.519  21.161  1.00  0.00     0.024 A 
HETATM   13  C36 UNL     1       9.943  67.206  22.473  1.00  0.00     0.091 A 
BRANCH  11  14
HETATM   14  C9  UNL     1      10.828  69.250  19.430  1.00  0.00     0.068 C 
BRANCH  14  15
HETATM   15  C8  UNL     1      11.227  68.063  18.617  1.00  0.00     0.007 C 
BRANCH  15  16
HETATM   16  C7  UNL     1      12.476  67.889  18.261  1.00  0.00     0.029 A 
HETATM   17  C6  UNL     1      13.153  68.492  17.238  1.00  0.00     0.031 A 
HETATM   18  C5  UNL     1      14.454  67.999  17.234  1.00  0.00     0.032 A 
HETATM   19  C4  UNL     1      14.560  67.093  18.261  1.00  0.00     0.037 A 
HETATM   20  N7  UNL     1      13.331  67.053  18.865  1.00  0.00    -0.356 N 
ATOM     21  H7  UNL     1      13.098  66.466  19.667  1.00  0.00     0.166 HD
BRANCH  19  22
HETATM   22  C3  UNL     1      15.583  66.384  18.637  1.00  0.00     0.104 C 
BRANCH  22  23
HETATM   23  C2  UNL     1      16.888  66.915  18.880  1.00  0.00     0.249 C 
HETATM   24  N3  UNL     1      17.962  66.545  17.994  1.00  0.00    -0.298 N 
HETATM   25  C1  UNL     1      19.278  67.033  18.174  1.00  0.00     0.188 C 
ATOM     26  H3  UNL     1      17.768  65.915  17.216  1.00  0.00     0.171 HD
HETATM   27  N1  UNL     1      20.210  66.674  17.354  1.00  0.00    -0.373 N 
HETATM   28  N2  UNL     1      19.578  67.920  19.258  1.00  0.00    -0.064 NA
ATOM     29  H12 UNL     1      21.158  67.025  17.483  1.00  0.00     0.158 HD
ATOM     30  H11 UNL     1      19.997  66.043  16.582  1.00  0.00     0.158 HD
HETATM   31  O1  UNL     1      17.185  67.699  19.826  1.00  0.00    -0.268 OA
ENDBRANCH  22  23
ENDBRANCH  19  22
ENDBRANCH  15  16
ENDBRANCH  14  15
ENDBRANCH  11  14
ENDBRANCH   7   8
ENDBRANCH   1   7
BRANCH   4  32
HETATM   32  C18 UNL     1      14.242  65.655  27.544  1.00  0.00     0.165 C 
HETATM   33  C19 UNL     1      15.401  65.030  26.966  1.00  0.00     0.309 C 
HETATM   34  C26 UNL     1      15.528  64.395  28.302  1.00  0.00     0.258 C 
HETATM   35  O5  UNL     1      16.449  63.851  28.940  1.00  0.00    -0.271 OA
HETATM   36  N6  UNL     1      14.137  64.652  28.600  1.00  0.00    -0.314 N 
BRANCH  33  37
HETATM   37  N5  UNL     1      15.522  64.159  25.883  1.00  0.00    -0.051 N 
HETATM   38  C22 UNL     1      14.898  62.914  25.819  1.00  0.00     0.238 A 
HETATM   39  C23 UNL     1      14.279  62.734  24.426  1.00  0.00     0.030 A 
HETATM   40  C24 UNL     1      14.508  64.027  23.716  1.00  0.00     0.030 A 
HETATM   41  C25 UNL     1      15.251  64.896  24.662  1.00  0.00     0.238 A 
BRANCH  37  42
HETATM   42  C20 UNL     1      16.978  63.866  25.813  1.00  0.00     0.256 C 
BRANCH  42  43
HETATM   43  C21 UNL     1      17.297  62.435  25.633  1.00  0.00     0.193 C 
BRANCH  43  44
HETATM   44  S1  UNL     1      18.309  62.311  24.146  1.00  0.00     0.103 S 
HETATM   45  O2  UNL     1      18.445  63.685  23.552  1.00  0.00    -0.595 OA
HETATM   46  O3  UNL     1      17.667  61.430  23.136  1.00  0.00    -0.595 OA
HETATM   47  O4  UNL     1      19.857  61.787  24.538  1.00  0.00    -0.595 OA
ENDBRANCH  43  44
ENDBRANCH  42  43
ENDBRANCH  37  42
ENDBRANCH  33  37
BRANCH  36  48
HETATM   48  C27 UNL     1      13.276  64.089  29.579  1.00  0.00     0.106 C 
BRANCH  48  49
HETATM   49  C28 UNL     1      12.443  62.957  29.227  1.00  0.00    -0.021 A 
HETATM   50  C29 UNL     1      11.739  62.242  30.170  1.00  0.00     0.013 A 
HETATM   51  C30 UNL     1      10.950  61.149  29.852  1.00  0.00     0.001 A 
HETATM   52  C31 UNL     1      10.854  60.751  28.542  1.00  0.00     0.000 A 
HETATM   53  C32 UNL     1      11.548  61.449  27.569  1.00  0.00     0.001 A 
HETATM   54  C33 UNL     1      12.318  62.521  27.919  1.00  0.00     0.013 A 
ENDBRANCH  48  49
ENDBRANCH  36  48
ENDBRANCH   4  32
TORSDOF 14
ENDMDL
