MODEL 1
REMARK VINA RESULT: -9.993424304      0.000      0.000
REMARK  14 active torsions:
REMARK  status: ('A' for Active; 'I' for Inactive)
REMARK    1  A    between atoms: C2_2  and  C3_3 
REMARK    2  A    between atoms: N2_10  and  C8_11 
REMARK    3  A    between atoms: C8_11  and  C9_12 
REMARK    4  A    between atoms: C12_15  and  C13_16 
REMARK    5  A    between atoms: C14_17  and  C15_18 
REMARK    6  A    between atoms: C18_21  and  S1_22 
REMARK    7  A    between atoms: S1_22  and  N3_25 
REMARK    8  A    between atoms: N3_25  and  C19_27 
REMARK    9  A    between atoms: C21_29  and  C22_30 
REMARK       I    between atoms: C22_30  and  N4_32 
REMARK   10  A    between atoms: N4_32  and  C23_34 
REMARK   11  A    between atoms: C23_34  and  C24_35 
REMARK   12  A    between atoms: N5_43  and  C32_44 
REMARK   13  A    between atoms: C32_44  and  C33_45 
REMARK   14  A    between atoms: N6_46  and  N7_48 
ROOT
HETATM    1  S1  UNL     1      16.513  65.032  20.234  1.00  0.00     0.264 S 
HETATM    2  O1  UNL     1      17.834  64.286  20.175  1.00  0.00    -0.200 OA
HETATM    3  O2  UNL     1      15.681  64.489  19.110  1.00  0.00    -0.200 OA
ENDROOT
BRANCH   1   4
HETATM    4  C18 UNL     1      15.724  64.588  21.728  1.00  0.00     0.080 A 
HETATM    5  C17 UNL     1      16.162  63.686  22.620  1.00  0.00     0.027 A 
HETATM    6  C16 UNL     1      15.416  63.417  23.785  1.00  0.00     0.022 A 
HETATM    7  C15 UNL     1      14.242  64.041  24.065  1.00  0.00     0.018 A 
HETATM    8  C37 UNL     1      13.782  64.985  23.136  1.00  0.00     0.022 A 
HETATM    9  C36 UNL     1      14.506  65.241  22.009  1.00  0.00     0.027 A 
BRANCH   7  10
HETATM   10  C14 UNL     1      13.439  63.804  25.214  1.00  0.00    -0.061 C 
HETATM   11  C13 UNL     1      12.820  63.573  26.207  1.00  0.00    -0.061 C 
BRANCH  11  12
HETATM   12  C12 UNL     1      12.145  63.263  27.439  1.00  0.00     0.018 A 
HETATM   13  C11 UNL     1      10.960  63.813  27.855  1.00  0.00     0.021 A 
HETATM   14  C10 UNL     1      10.401  63.509  29.080  1.00  0.00     0.010 A 
HETATM   15  C9  UNL     1      11.024  62.636  29.928  1.00  0.00    -0.040 A 
HETATM   16  C39 UNL     1      12.214  62.059  29.546  1.00  0.00     0.010 A 
HETATM   17  C38 UNL     1      12.756  62.369  28.331  1.00  0.00     0.021 A 
BRANCH  15  18
HETATM   18  C8  UNL     1      10.534  62.295  31.303  1.00  0.00     0.166 C 
BRANCH  18  19
HETATM   19  N2  UNL     1       9.690  61.104  31.214  1.00  0.00    -0.361 N 
HETATM   20  C7  UNL     1      10.016  60.096  30.413  1.00  0.00     0.093 A 
HETATM   21  C6  UNL     1       9.206  58.976  30.245  1.00  0.00     0.047 A 
HETATM   22  C5  UNL     1       8.021  58.955  30.960  1.00  0.00     0.045 A 
HETATM   23  N1  UNL     1       7.036  58.053  31.002  1.00  0.00    -0.365 N 
HETATM   24  C41 UNL     1       7.692  60.010  31.790  1.00  0.00     0.014 A 
HETATM   25  C4  UNL     1       6.078  58.485  31.832  1.00  0.00     0.096 A 
ATOM     26  H1  UNL     1       7.017  57.174  30.484  1.00  0.00     0.165 HD
HETATM   27  C3  UNL     1       6.467  59.720  32.344  1.00  0.00    -0.029 A 
HETATM   28  C40 UNL     1       8.543  61.107  31.922  1.00  0.00     0.105 A 
BRANCH  27  29
HETATM   29  C2  UNL     1       5.678  60.532  33.296  1.00  0.00     0.036 C 
HETATM   30  C1  UNL     1       6.264  60.492  34.695  1.00  0.00     0.010 C 
ENDBRANCH  27  29
ENDBRANCH  18  19
ENDBRANCH  15  18
ENDBRANCH  11  12
ENDBRANCH   7  10
ENDBRANCH   1   4
BRANCH   1  31
HETATM   31  N3  UNL     1      16.746  66.716  20.114  1.00  0.00    -0.266 N 
ATOM     32  H3  UNL     1      17.508  67.101  20.671  1.00  0.00     0.180 HD
BRANCH  31  33
HETATM   33  C19 UNL     1      16.019  67.641  19.345  1.00  0.00     0.118 A 
HETATM   34  C20 UNL     1      14.703  68.004  19.589  1.00  0.00     0.066 A 
HETATM   35  C21 UNL     1      14.017  68.920  18.831  1.00  0.00     0.036 A 
HETATM   36  C30 UNL     1      14.676  69.511  17.765  1.00  0.00     0.034 A 
HETATM   37  C31 UNL     1      15.976  69.154  17.518  1.00  0.00     0.094 A 
HETATM   38  N5  UNL     1      16.621  68.233  18.301  1.00  0.00    -0.338 N 
BRANCH  35  39
HETATM   39  C22 UNL     1      12.625  69.328  19.104  1.00  0.00     0.252 C 
HETATM   40  O3  UNL     1      12.150  70.446  18.838  1.00  0.00    -0.268 OA
HETATM   41  N4  UNL     1      11.791  68.333  19.723  1.00  0.00    -0.353 N 
ATOM     42  H4  UNL     1      12.213  67.428  19.931  1.00  0.00     0.163 HD
BRANCH  41  43
HETATM   43  C23 UNL     1      10.417  68.513  20.070  1.00  0.00     0.161 C 
BRANCH  43  44
HETATM   44  C24 UNL     1       9.974  67.778  21.270  1.00  0.00    -0.041 A 
HETATM   45  C25 UNL     1       8.924  68.286  22.035  1.00  0.00     0.009 A 
HETATM   46  C26 UNL     1       8.463  67.616  23.131  1.00  0.00     0.001 A 
HETATM   47  C27 UNL     1       9.032  66.414  23.509  1.00  0.00     0.000 A 
HETATM   48  C28 UNL     1      10.065  65.882  22.785  1.00  0.00     0.001 A 
HETATM   49  C29 UNL     1      10.525  66.585  21.662  1.00  0.00     0.009 A 
ENDBRANCH  43  44
ENDBRANCH  41  43
ENDBRANCH  35  39
BRANCH  38  50
HETATM   50  C32 UNL     1      17.937  67.866  17.896  1.00  0.00     0.175 C 
BRANCH  50  51
HETATM   51  C33 UNL     1      19.028  68.791  18.242  1.00  0.00     0.095 C 
HETATM   52  N6  UNL     1      20.240  68.408  18.174  1.00  0.00    -0.333 N 
ATOM     53  H6  UNL     1      20.385  67.444  17.874  1.00  0.00     0.179 HD
BRANCH  52  54
HETATM   54  N7  UNL     1      21.364  69.119  18.450  1.00  0.00    -0.240 NA
HETATM   55  C34 UNL     1      21.221  70.518  18.053  1.00  0.00     0.135 C 
HETATM   56  C35 UNL     1      21.869  69.021  19.794  1.00  0.00     0.135 C 
ENDBRANCH  52  54
ENDBRANCH  50  51
ENDBRANCH  38  50
ENDBRANCH  31  33
ENDBRANCH   1  31
TORSDOF 14
ENDMDL
MODEL 2
REMARK VINA RESULT: -9.649328593      1.668      2.423
REMARK  14 active torsions:
REMARK  status: ('A' for Active; 'I' for Inactive)
REMARK    1  A    between atoms: C2_2  and  C3_3 
REMARK    2  A    between atoms: N2_10  and  C8_11 
REMARK    3  A    between atoms: C8_11  and  C9_12 
REMARK    4  A    between atoms: C12_15  and  C13_16 
REMARK    5  A    between atoms: C14_17  and  C15_18 
REMARK    6  A    between atoms: C18_21  and  S1_22 
REMARK    7  A    between atoms: S1_22  and  N3_25 
REMARK    8  A    between atoms: N3_25  and  C19_27 
REMARK    9  A    between atoms: C21_29  and  C22_30 
REMARK       I    between atoms: C22_30  and  N4_32 
REMARK   10  A    between atoms: N4_32  and  C23_34 
REMARK   11  A    between atoms: C23_34  and  C24_35 
REMARK   12  A    between atoms: N5_43  and  C32_44 
REMARK   13  A    between atoms: C32_44  and  C33_45 
REMARK   14  A    between atoms: N6_46  and  N7_48 
ROOT
HETATM    1  S1  UNL     1      15.679  66.075  20.555  1.00  0.00     0.264 S 
HETATM    2  O1  UNL     1      16.312  67.400  20.938  1.00  0.00    -0.200 OA
HETATM    3  O2  UNL     1      16.790  65.229  20.005  1.00  0.00    -0.200 OA
ENDROOT
BRANCH   1   4
HETATM    4  C18 UNL     1      15.125  65.313  22.026  1.00  0.00     0.080 A 
HETATM    5  C17 UNL     1      15.529  64.128  22.508  1.00  0.00     0.027 A 
HETATM    6  C16 UNL     1      14.988  63.625  23.708  1.00  0.00     0.022 A 
HETATM    7  C15 UNL     1      14.051  64.295  24.428  1.00  0.00     0.018 A 
HETATM    8  C37 UNL     1      13.626  65.535  23.929  1.00  0.00     0.022 A 
HETATM    9  C36 UNL     1      14.152  66.017  22.765  1.00  0.00     0.027 A 
BRANCH   7  10
HETATM   10  C14 UNL     1      13.459  63.836  25.636  1.00  0.00    -0.061 C 
HETATM   11  C13 UNL     1      12.986  63.509  26.681  1.00  0.00    -0.061 C 
BRANCH  11  12
HETATM   12  C12 UNL     1      12.439  63.188  27.973  1.00  0.00     0.018 A 
HETATM   13  C11 UNL     1      12.943  62.252  28.838  1.00  0.00     0.021 A 
HETATM   14  C10 UNL     1      12.328  61.958  30.038  1.00  0.00     0.010 A 
HETATM   15  C9  UNL     1      11.180  62.603  30.405  1.00  0.00    -0.040 A 
HETATM   16  C39 UNL     1      10.643  63.552  29.565  1.00  0.00     0.010 A 
HETATM   17  C38 UNL     1      11.262  63.833  28.380  1.00  0.00     0.021 A 
BRANCH  15  18
HETATM   18  C8  UNL     1      10.403  62.306  31.652  1.00  0.00     0.166 C 
BRANCH  18  19
HETATM   19  N2  UNL     1       9.610  61.096  31.431  1.00  0.00    -0.361 N 
HETATM   20  C7  UNL     1      10.007  60.172  30.563  1.00  0.00     0.093 A 
HETATM   21  C6  UNL     1       9.249  59.041  30.270  1.00  0.00     0.047 A 
HETATM   22  C5  UNL     1       8.039  58.917  30.932  1.00  0.00     0.045 A 
HETATM   23  N1  UNL     1       7.090  57.979  30.860  1.00  0.00    -0.365 N 
HETATM   24  C41 UNL     1       7.637  59.886  31.833  1.00  0.00     0.014 A 
HETATM   25  C4  UNL     1       6.085  58.304  31.683  1.00  0.00     0.096 A 
ATOM     26  H1  UNL     1       7.126  57.146  30.271  1.00  0.00     0.165 HD
HETATM   27  C3  UNL     1       6.405  59.506  32.310  1.00  0.00    -0.029 A 
HETATM   28  C40 UNL     1       8.439  60.998  32.089  1.00  0.00     0.105 A 
BRANCH  27  29
HETATM   29  C2  UNL     1       5.550  60.205  33.293  1.00  0.00     0.036 C 
HETATM   30  C1  UNL     1       4.096  59.788  33.176  1.00  0.00     0.010 C 
ENDBRANCH  27  29
ENDBRANCH  18  19
ENDBRANCH  15  18
ENDBRANCH  11  12
ENDBRANCH   7  10
ENDBRANCH   1   4
BRANCH   1  31
HETATM   31  N3  UNL     1      14.413  66.292  19.436  1.00  0.00    -0.266 N 
ATOM     32  H3  UNL     1      14.294  65.549  18.748  1.00  0.00     0.180 HD
BRANCH  31  33
HETATM   33  C19 UNL     1      13.512  67.367  19.340  1.00  0.00     0.118 A 
HETATM   34  C20 UNL     1      12.324  67.461  20.050  1.00  0.00     0.066 A 
HETATM   35  C21 UNL     1      11.464  68.527  19.950  1.00  0.00     0.036 A 
HETATM   36  C30 UNL     1      11.804  69.562  19.091  1.00  0.00     0.034 A 
HETATM   37  C31 UNL     1      12.975  69.472  18.386  1.00  0.00     0.094 A 
HETATM   38  N5  UNL     1      13.802  68.387  18.518  1.00  0.00    -0.338 N 
BRANCH  35  39
HETATM   39  C22 UNL     1      10.213  68.643  20.722  1.00  0.00     0.252 C 
HETATM   40  O3  UNL     1       9.391  69.568  20.603  1.00  0.00    -0.268 OA
HETATM   41  N4  UNL     1       9.963  67.592  21.672  1.00  0.00    -0.353 N 
ATOM     42  H4  UNL     1      10.660  66.850  21.747  1.00  0.00     0.163 HD
BRANCH  41  43
HETATM   43  C23 UNL     1       8.816  67.504  22.518  1.00  0.00     0.161 C 
BRANCH  43  44
HETATM   44  C24 UNL     1       9.104  67.183  23.929  1.00  0.00    -0.041 A 
HETATM   45  C25 UNL     1       8.226  67.618  24.922  1.00  0.00     0.009 A 
HETATM   46  C26 UNL     1       8.439  67.311  26.235  1.00  0.00     0.001 A 
HETATM   47  C27 UNL     1       9.538  66.559  26.610  1.00  0.00     0.000 A 
HETATM   48  C28 UNL     1      10.423  66.114  25.665  1.00  0.00     0.001 A 
HETATM   49  C29 UNL     1      10.187  66.440  24.321  1.00  0.00     0.009 A 
ENDBRANCH  43  44
ENDBRANCH  41  43
ENDBRANCH  35  39
BRANCH  38  50
HETATM   50  C32 UNL     1      14.945  68.354  17.666  1.00  0.00     0.175 C 
BRANCH  50  51
HETATM   51  C33 UNL     1      16.031  69.301  17.963  1.00  0.00     0.095 C 
HETATM   52  N6  UNL     1      16.216  70.318  17.221  1.00  0.00    -0.333 N 
ATOM     53  H6  UNL     1      15.575  70.417  16.433  1.00  0.00     0.179 HD
BRANCH  52  54
HETATM   54  N7  UNL     1      17.158  71.290  17.344  1.00  0.00    -0.240 NA
HETATM   55  C34 UNL     1      16.641  72.443  18.079  1.00  0.00     0.135 C 
HETATM   56  C35 UNL     1      18.433  70.881  17.872  1.00  0.00     0.135 C 
ENDBRANCH  52  54
ENDBRANCH  50  51
ENDBRANCH  38  50
ENDBRANCH  31  33
ENDBRANCH   1  31
TORSDOF 14
ENDMDL
MODEL 3
REMARK VINA RESULT: -9.592161265      2.115      4.332
REMARK  14 active torsions:
REMARK  status: ('A' for Active; 'I' for Inactive)
REMARK    1  A    between atoms: C2_2  and  C3_3 
REMARK    2  A    between atoms: N2_10  and  C8_11 
REMARK    3  A    between atoms: C8_11  and  C9_12 
REMARK    4  A    between atoms: C12_15  and  C13_16 
REMARK    5  A    between atoms: C14_17  and  C15_18 
REMARK    6  A    between atoms: C18_21  and  S1_22 
REMARK    7  A    between atoms: S1_22  and  N3_25 
REMARK    8  A    between atoms: N3_25  and  C19_27 
REMARK    9  A    between atoms: C21_29  and  C22_30 
REMARK       I    between atoms: C22_30  and  N4_32 
REMARK   10  A    between atoms: N4_32  and  C23_34 
REMARK   11  A    between atoms: C23_34  and  C24_35 
REMARK   12  A    between atoms: N5_43  and  C32_44 
REMARK   13  A    between atoms: C32_44  and  C33_45 
REMARK   14  A    between atoms: N6_46  and  N7_48 
ROOT
HETATM    1  S1  UNL     1      12.072  69.058  19.419  1.00  0.00     0.264 S 
HETATM    2  O1  UNL     1      11.294  68.201  18.437  1.00  0.00    -0.200 OA
HETATM    3  O2  UNL     1      11.392  70.395  19.432  1.00  0.00    -0.200 OA
ENDROOT
BRANCH   1   4
HETATM    4  C18 UNL     1      11.868  68.356  21.005  1.00  0.00     0.080 A 
HETATM    5  C17 UNL     1      12.254  68.898  22.170  1.00  0.00     0.027 A 
HETATM    6  C16 UNL     1      12.034  68.214  23.383  1.00  0.00     0.022 A 
HETATM    7  C15 UNL     1      11.433  66.997  23.440  1.00  0.00     0.018 A 
HETATM    8  C37 UNL     1      11.026  66.427  22.225  1.00  0.00     0.022 A 
HETATM    9  C36 UNL     1      11.242  67.093  21.054  1.00  0.00     0.027 A 
BRANCH   7  10
HETATM   10  C14 UNL     1      11.195  66.253  24.627  1.00  0.00    -0.061 C 
HETATM   11  C13 UNL     1      11.052  65.660  25.652  1.00  0.00    -0.061 C 
BRANCH  11  12
HETATM   12  C12 UNL     1      10.941  64.992  26.922  1.00  0.00     0.018 A 
HETATM   13  C11 UNL     1       9.821  64.972  27.713  1.00  0.00     0.021 A 
HETATM   14  C10 UNL     1       9.809  64.357  28.949  1.00  0.00     0.010 A 
HETATM   15  C9  UNL     1      10.932  63.742  29.428  1.00  0.00    -0.040 A 
HETATM   16  C39 UNL     1      12.076  63.738  28.663  1.00  0.00     0.010 A 
HETATM   17  C38 UNL     1      12.074  64.350  27.442  1.00  0.00     0.021 A 
BRANCH  15  18
HETATM   18  C8  UNL     1      11.038  63.109  30.782  1.00  0.00     0.166 C 
BRANCH  18  19
HETATM   19  N2  UNL     1      10.322  61.833  30.757  1.00  0.00    -0.361 N 
HETATM   20  C7  UNL     1      10.708  60.852  29.949  1.00  0.00     0.093 A 
HETATM   21  C6  UNL     1      10.014  59.649  29.842  1.00  0.00     0.047 A 
HETATM   22  C5  UNL     1       8.881  59.515  30.627  1.00  0.00     0.045 A 
HETATM   23  N1  UNL     1       8.003  58.514  30.738  1.00  0.00    -0.365 N 
HETATM   24  C41 UNL     1       8.490  60.544  31.464  1.00  0.00     0.014 A 
HETATM   25  C4  UNL     1       7.054  58.857  31.619  1.00  0.00     0.096 A 
ATOM     26  H1  UNL     1       8.048  57.630  30.232  1.00  0.00     0.165 HD
HETATM   27  C3  UNL     1       7.337  60.135  32.093  1.00  0.00    -0.029 A 
HETATM   28  C40 UNL     1       9.225  61.727  31.533  1.00  0.00     0.105 A 
BRANCH  27  29
HETATM   29  C2  UNL     1       6.523  60.875  33.082  1.00  0.00     0.036 C 
HETATM   30  C1  UNL     1       5.200  60.186  33.354  1.00  0.00     0.010 C 
ENDBRANCH  27  29
ENDBRANCH  18  19
ENDBRANCH  15  18
ENDBRANCH  11  12
ENDBRANCH   7  10
ENDBRANCH   1   4
BRANCH   1  31
HETATM   31  N3  UNL     1      13.714  69.169  18.980  1.00  0.00    -0.266 N 
ATOM     32  H3  UNL     1      14.005  70.052  18.560  1.00  0.00     0.180 HD
BRANCH  31  33
HETATM   33  C19 UNL     1      14.720  68.198  19.123  1.00  0.00     0.118 A 
HETATM   34  C20 UNL     1      14.700  67.178  20.063  1.00  0.00     0.066 A 
HETATM   35  C21 UNL     1      15.688  66.232  20.176  1.00  0.00     0.036 A 
HETATM   36  C30 UNL     1      16.764  66.303  19.305  1.00  0.00     0.034 A 
HETATM   37  C31 UNL     1      16.790  67.311  18.376  1.00  0.00     0.094 A 
HETATM   38  N5  UNL     1      15.780  68.234  18.301  1.00  0.00    -0.338 N 
BRANCH  35  39
HETATM   39  C22 UNL     1      15.657  65.131  21.157  1.00  0.00     0.252 C 
HETATM   40  O3  UNL     1      16.388  64.126  21.117  1.00  0.00    -0.268 OA
HETATM   41  N4  UNL     1      14.697  65.266  22.221  1.00  0.00    -0.353 N 
ATOM     42  H4  UNL     1      14.111  66.101  22.222  1.00  0.00     0.163 HD
BRANCH  41  43
HETATM   43  C23 UNL     1      14.501  64.324  23.276  1.00  0.00     0.161 C 
BRANCH  43  44
HETATM   44  C24 UNL     1      14.890  64.798  24.617  1.00  0.00    -0.041 A 
HETATM   45  C25 UNL     1      14.773  66.154  24.924  1.00  0.00     0.009 A 
HETATM   46  C26 UNL     1      15.088  66.626  26.165  1.00  0.00     0.001 A 
HETATM   47  C27 UNL     1      15.535  65.764  27.150  1.00  0.00     0.000 A 
HETATM   48  C28 UNL     1      15.664  64.427  26.889  1.00  0.00     0.001 A 
HETATM   49  C29 UNL     1      15.335  63.960  25.607  1.00  0.00     0.009 A 
ENDBRANCH  43  44
ENDBRANCH  41  43
ENDBRANCH  35  39
BRANCH  38  50
HETATM   50  C32 UNL     1      15.958  69.292  17.362  1.00  0.00     0.175 C 
BRANCH  50  51
HETATM   51  C33 UNL     1      16.966  70.314  17.685  1.00  0.00     0.095 C 
HETATM   52  N6  UNL     1      16.860  71.491  17.214  1.00  0.00    -0.333 N 
ATOM     53  H6  UNL     1      16.052  71.660  16.615  1.00  0.00     0.179 HD
BRANCH  52  54
HETATM   54  N7  UNL     1      17.687  72.553  17.406  1.00  0.00    -0.240 NA
HETATM   55  C34 UNL     1      17.445  73.189  18.699  1.00  0.00     0.135 C 
HETATM   56  C35 UNL     1      19.093  72.311  17.214  1.00  0.00     0.135 C 
ENDBRANCH  52  54
ENDBRANCH  50  51
ENDBRANCH  38  50
ENDBRANCH  31  33
ENDBRANCH   1  31
TORSDOF 14
ENDMDL
MODEL 4
REMARK VINA RESULT: -9.492863479      4.327     13.816
REMARK  14 active torsions:
REMARK  status: ('A' for Active; 'I' for Inactive)
REMARK    1  A    between atoms: C2_2  and  C3_3 
REMARK    2  A    between atoms: N2_10  and  C8_11 
REMARK    3  A    between atoms: C8_11  and  C9_12 
REMARK    4  A    between atoms: C12_15  and  C13_16 
REMARK    5  A    between atoms: C14_17  and  C15_18 
REMARK    6  A    between atoms: C18_21  and  S1_22 
REMARK    7  A    between atoms: S1_22  and  N3_25 
REMARK    8  A    between atoms: N3_25  and  C19_27 
REMARK    9  A    between atoms: C21_29  and  C22_30 
REMARK       I    between atoms: C22_30  and  N4_32 
REMARK   10  A    between atoms: N4_32  and  C23_34 
REMARK   11  A    between atoms: C23_34  and  C24_35 
REMARK   12  A    between atoms: N5_43  and  C32_44 
REMARK   13  A    between atoms: C32_44  and  C33_45 
REMARK   14  A    between atoms: N6_46  and  N7_48 
ROOT
HETATM    1  S1  UNL     1      11.253  61.370  30.554  1.00  0.00     0.264 S 
HETATM    2  O1  UNL     1      10.154  61.955  31.421  1.00  0.00    -0.200 OA
HETATM    3  O2  UNL     1      10.679  60.127  29.940  1.00  0.00    -0.200 OA
ENDROOT
BRANCH   1   4
HETATM    4  C18 UNL     1      11.556  62.499  29.256  1.00  0.00     0.080 A 
HETATM    5  C17 UNL     1      11.337  63.822  29.286  1.00  0.00     0.027 A 
HETATM    6  C16 UNL     1      11.618  64.617  28.158  1.00  0.00     0.022 A 
HETATM    7  C15 UNL     1      12.118  64.103  27.004  1.00  0.00     0.018 A 
HETATM    8  C37 UNL     1      12.350  62.720  26.968  1.00  0.00     0.022 A 
HETATM    9  C36 UNL     1      12.074  61.954  28.063  1.00  0.00     0.027 A 
BRANCH   7  10
HETATM   10  C14 UNL     1      12.410  64.848  25.829  1.00  0.00    -0.061 C 
HETATM   11  C13 UNL     1      12.625  65.422  24.806  1.00  0.00    -0.061 C 
BRANCH  11  12
HETATM   12  C12 UNL     1      12.841  66.054  23.532  1.00  0.00     0.018 A 
HETATM   13  C11 UNL     1      12.128  65.801  22.389  1.00  0.00     0.021 A 
HETATM   14  C10 UNL     1      12.433  66.406  21.186  1.00  0.00     0.010 A 
HETATM   15  C9  UNL     1      13.472  67.290  21.099  1.00  0.00    -0.040 A 
HETATM   16  C39 UNL     1      14.210  67.574  22.225  1.00  0.00     0.010 A 
HETATM   17  C38 UNL     1      13.898  66.968  23.409  1.00  0.00     0.021 A 
BRANCH  15  18
HETATM   18  C8  UNL     1      13.923  67.944  19.828  1.00  0.00     0.166 C 
BRANCH  18  19
HETATM   19  N2  UNL     1      15.154  67.294  19.380  1.00  0.00    -0.361 N 
HETATM   20  C7  UNL     1      15.193  65.984  19.166  1.00  0.00     0.093 A 
HETATM   21  C6  UNL     1      16.361  65.315  18.808  1.00  0.00     0.047 A 
HETATM   22  C5  UNL     1      17.504  66.086  18.685  1.00  0.00     0.045 A 
HETATM   23  N1  UNL     1      18.762  65.750  18.382  1.00  0.00    -0.365 N 
HETATM   24  C41 UNL     1      17.451  67.448  18.912  1.00  0.00     0.014 A 
HETATM   25  C4  UNL     1      19.529  66.848  18.404  1.00  0.00     0.096 A 
ATOM     26  H1  UNL     1      19.087  64.807  18.168  1.00  0.00     0.165 HD
HETATM   27  C3  UNL     1      18.725  67.936  18.737  1.00  0.00    -0.029 A 
HETATM   28  C40 UNL     1      16.252  68.067  19.266  1.00  0.00     0.105 A 
BRANCH  27  29
HETATM   29  C2  UNL     1      19.196  69.332  18.868  1.00  0.00     0.036 C 
HETATM   30  C1  UNL     1      19.687  69.633  20.272  1.00  0.00     0.010 C 
ENDBRANCH  27  29
ENDBRANCH  18  19
ENDBRANCH  15  18
ENDBRANCH  11  12
ENDBRANCH   7  10
ENDBRANCH   1   4
BRANCH   1  31
HETATM   31  N3  UNL     1      12.659  61.055  31.463  1.00  0.00    -0.266 N 
ATOM     32  H3  UNL     1      12.735  60.117  31.857  1.00  0.00     0.180 HD
BRANCH  31  33
HETATM   33  C19 UNL     1      13.729  61.923  31.740  1.00  0.00     0.118 A 
HETATM   34  C20 UNL     1      14.656  62.352  30.800  1.00  0.00     0.066 A 
HETATM   35  C21 UNL     1      15.686  63.212  31.090  1.00  0.00     0.036 A 
HETATM   36  C30 UNL     1      15.805  63.673  32.392  1.00  0.00     0.034 A 
HETATM   37  C31 UNL     1      14.894  63.250  33.324  1.00  0.00     0.094 A 
HETATM   38  N5  UNL     1      13.882  62.390  32.988  1.00  0.00    -0.338 N 
BRANCH  35  39
HETATM   39  C22 UNL     1      16.657  63.691  30.088  1.00  0.00     0.252 C 
HETATM   40  O3  UNL     1      17.817  64.058  30.346  1.00  0.00    -0.268 OA
HETATM   41  N4  UNL     1      16.191  63.721  28.727  1.00  0.00    -0.353 N 
ATOM     42  H4  UNL     1      15.233  63.416  28.552  1.00  0.00     0.163 HD
BRANCH  41  43
HETATM   43  C23 UNL     1      16.963  64.143  27.603  1.00  0.00     0.161 C 
BRANCH  43  44
HETATM   44  C24 UNL     1      16.390  63.802  26.288  1.00  0.00    -0.041 A 
HETATM   45  C25 UNL     1      16.581  64.670  25.212  1.00  0.00     0.009 A 
HETATM   46  C26 UNL     1      16.096  64.372  23.972  1.00  0.00     0.001 A 
HETATM   47  C27 UNL     1      15.399  63.198  23.754  1.00  0.00     0.000 A 
HETATM   48  C28 UNL     1      15.190  62.320  24.784  1.00  0.00     0.001 A 
HETATM   49  C29 UNL     1      15.695  62.643  26.052  1.00  0.00     0.009 A 
ENDBRANCH  43  44
ENDBRANCH  41  43
ENDBRANCH  35  39
BRANCH  38  50
HETATM   50  C32 UNL     1      13.051  61.942  34.057  1.00  0.00     0.175 C 
BRANCH  50  51
HETATM   51  C33 UNL     1      11.833  62.720  34.332  1.00  0.00     0.095 C 
HETATM   52  N6  UNL     1      10.705  62.137  34.415  1.00  0.00    -0.333 N 
ATOM     53  H6  UNL     1      10.715  61.126  34.279  1.00  0.00     0.179 HD
BRANCH  52  54
HETATM   54  N7  UNL     1       9.488  62.690  34.663  1.00  0.00    -0.240 NA
HETATM   55  C34 UNL     1       8.416  61.707  34.514  1.00  0.00     0.135 C 
HETATM   56  C35 UNL     1       9.352  63.405  35.905  1.00  0.00     0.135 C 
ENDBRANCH  52  54
ENDBRANCH  50  51
ENDBRANCH  38  50
ENDBRANCH  31  33
ENDBRANCH   1  31
TORSDOF 14
ENDMDL
MODEL 5
REMARK VINA RESULT: -9.463248576      2.460      3.976
REMARK  14 active torsions:
REMARK  status: ('A' for Active; 'I' for Inactive)
REMARK    1  A    between atoms: C2_2  and  C3_3 
REMARK    2  A    between atoms: N2_10  and  C8_11 
REMARK    3  A    between atoms: C8_11  and  C9_12 
REMARK    4  A    between atoms: C12_15  and  C13_16 
REMARK    5  A    between atoms: C14_17  and  C15_18 
REMARK    6  A    between atoms: C18_21  and  S1_22 
REMARK    7  A    between atoms: S1_22  and  N3_25 
REMARK    8  A    between atoms: N3_25  and  C19_27 
REMARK    9  A    between atoms: C21_29  and  C22_30 
REMARK       I    between atoms: C22_30  and  N4_32 
REMARK   10  A    between atoms: N4_32  and  C23_34 
REMARK   11  A    between atoms: C23_34  and  C24_35 
REMARK   12  A    between atoms: N5_43  and  C32_44 
REMARK   13  A    between atoms: C32_44  and  C33_45 
REMARK   14  A    between atoms: N6_46  and  N7_48 
ROOT
HETATM    1  S1  UNL     1      15.881  66.062  20.320  1.00  0.00     0.264 S 
HETATM    2  O1  UNL     1      16.406  67.415  20.763  1.00  0.00    -0.200 OA
HETATM    3  O2  UNL     1      17.045  65.349  19.699  1.00  0.00    -0.200 OA
ENDROOT
BRANCH   1   4
HETATM    4  C18 UNL     1      15.434  65.175  21.757  1.00  0.00     0.080 A 
HETATM    5  C17 UNL     1      16.066  64.102  22.258  1.00  0.00     0.027 A 
HETATM    6  C16 UNL     1      15.589  63.475  23.426  1.00  0.00     0.022 A 
HETATM    7  C15 UNL     1      14.491  63.911  24.097  1.00  0.00     0.018 A 
HETATM    8  C37 UNL     1      13.828  65.033  23.578  1.00  0.00     0.022 A 
HETATM    9  C36 UNL     1      14.293  65.636  22.446  1.00  0.00     0.027 A 
BRANCH   7  10
HETATM   10  C14 UNL     1      13.954  63.315  25.270  1.00  0.00    -0.061 C 
HETATM   11  C13 UNL     1      13.447  62.857  26.247  1.00  0.00    -0.061 C 
BRANCH  11  12
HETATM   12  C12 UNL     1      12.768  62.351  27.410  1.00  0.00     0.018 A 
HETATM   13  C11 UNL     1      11.619  61.603  27.396  1.00  0.00     0.021 A 
HETATM   14  C10 UNL     1      10.991  61.202  28.558  1.00  0.00     0.010 A 
HETATM   15  C9  UNL     1      11.505  61.546  29.777  1.00  0.00    -0.040 A 
HETATM   16  C39 UNL     1      12.659  62.293  29.835  1.00  0.00     0.010 A 
HETATM   17  C38 UNL     1      13.270  62.683  28.677  1.00  0.00     0.021 A 
BRANCH  15  18
HETATM   18  C8  UNL     1      10.862  61.218  31.091  1.00  0.00     0.166 C 
BRANCH  18  19
HETATM   19  N2  UNL     1      10.382  62.459  31.698  1.00  0.00    -0.361 N 
HETATM   20  C7  UNL     1      10.558  62.696  32.993  1.00  0.00     0.093 A 
HETATM   21  C6  UNL     1      10.055  63.831  33.624  1.00  0.00     0.047 A 
HETATM   22  C5  UNL     1       9.347  64.720  32.832  1.00  0.00     0.045 A 
HETATM   23  N1  UNL     1       8.732  65.867  33.133  1.00  0.00    -0.365 N 
HETATM   24  C41 UNL     1       9.170  64.461  31.486  1.00  0.00     0.014 A 
HETATM   25  C4  UNL     1       8.162  66.364  32.028  1.00  0.00     0.096 A 
ATOM     26  H1  UNL     1       8.702  66.297  34.058  1.00  0.00     0.165 HD
HETATM   27  C3  UNL     1       8.423  65.494  30.972  1.00  0.00    -0.029 A 
HETATM   28  C40 UNL     1       9.699  63.308  30.905  1.00  0.00     0.105 A 
BRANCH  27  29
HETATM   29  C2  UNL     1       7.961  65.685  29.580  1.00  0.00     0.036 C 
HETATM   30  C1  UNL     1       8.060  67.134  29.144  1.00  0.00     0.010 C 
ENDBRANCH  27  29
ENDBRANCH  18  19
ENDBRANCH  15  18
ENDBRANCH  11  12
ENDBRANCH   7  10
ENDBRANCH   1   4
BRANCH   1  31
HETATM   31  N3  UNL     1      14.571  66.227  19.243  1.00  0.00    -0.266 N 
ATOM     32  H3  UNL     1      14.606  65.645  18.406  1.00  0.00     0.180 HD
BRANCH  31  33
HETATM   33  C19 UNL     1      13.448  67.064  19.361  1.00  0.00     0.118 A 
HETATM   34  C20 UNL     1      12.485  66.951  20.353  1.00  0.00     0.066 A 
HETATM   35  C21 UNL     1      11.402  67.788  20.457  1.00  0.00     0.036 A 
HETATM   36  C30 UNL     1      11.265  68.799  19.518  1.00  0.00     0.034 A 
HETATM   37  C31 UNL     1      12.213  68.913  18.535  1.00  0.00     0.094 A 
HETATM   38  N5  UNL     1      13.277  68.053  18.470  1.00  0.00    -0.338 N 
BRANCH  35  39
HETATM   39  C22 UNL     1      10.390  67.686  21.525  1.00  0.00     0.252 C 
HETATM   40  O3  UNL     1       9.270  68.227  21.493  1.00  0.00    -0.268 OA
HETATM   41  N4  UNL     1      10.763  66.898  22.669  1.00  0.00    -0.353 N 
ATOM     42  H4  UNL     1      11.690  66.471  22.664  1.00  0.00     0.163 HD
BRANCH  41  43
HETATM   43  C23 UNL     1       9.938  66.665  23.811  1.00  0.00     0.161 C 
BRANCH  43  44
HETATM   44  C24 UNL     1      10.665  66.495  25.083  1.00  0.00    -0.041 A 
HETATM   45  C25 UNL     1      10.159  65.626  26.050  1.00  0.00     0.009 A 
HETATM   46  C26 UNL     1      10.822  65.416  27.224  1.00  0.00     0.001 A 
HETATM   47  C27 UNL     1      12.015  66.066  27.483  1.00  0.00     0.000 A 
HETATM   48  C28 UNL     1      12.544  66.928  26.560  1.00  0.00     0.001 A 
HETATM   49  C29 UNL     1      11.849  67.131  25.359  1.00  0.00     0.009 A 
ENDBRANCH  43  44
ENDBRANCH  41  43
ENDBRANCH  35  39
BRANCH  38  50
HETATM   50  C32 UNL     1      14.148  68.205  17.352  1.00  0.00     0.175 C 
BRANCH  50  51
HETATM   51  C33 UNL     1      15.179  69.251  17.441  1.00  0.00     0.095 C 
HETATM   52  N6  UNL     1      16.242  69.048  18.110  1.00  0.00    -0.333 N 
ATOM     53  H6  UNL     1      16.316  68.137  18.563  1.00  0.00     0.179 HD
BRANCH  52  54
HETATM   54  N7  UNL     1      17.292  69.889  18.298  1.00  0.00    -0.240 NA
HETATM   55  C34 UNL     1      18.564  69.169  18.273  1.00  0.00     0.135 C 
HETATM   56  C35 UNL     1      17.347  71.045  17.442  1.00  0.00     0.135 C 
ENDBRANCH  52  54
ENDBRANCH  50  51
ENDBRANCH  38  50
ENDBRANCH  31  33
ENDBRANCH   1  31
TORSDOF 14
ENDMDL
