MODEL 1
REMARK VINA RESULT: -10.877449713      0.000      0.000
REMARK  13 active torsions:
REMARK  status: ('A' for Active; 'I' for Inactive)
REMARK    1  A    between atoms: C3_3  and  N1_4 
REMARK    2  A    between atoms: N1_4  and  C4_5 
REMARK    3  A    between atoms: C4_5  and  C5_6 
REMARK    4  A    between atoms: C20_26  and  N5_27 
REMARK    5  A    between atoms: C20_26  and  C32_46 
REMARK       I    between atoms: N5_27  and  C21_29 
REMARK    6  A    between atoms: C21_29  and  C22_31 
REMARK    7  A    between atoms: C22_31  and  C23_32 
REMARK    8  A    between atoms: C23_32  and  C24_33 
REMARK    9  A    between atoms: C24_33  and  N6_34 
REMARK   10  A    between atoms: N6_34  and  C25_36 
REMARK   11  A    between atoms: C25_36  and  C26_40 
REMARK       I    between atoms: C32_46  and  N8_48 
REMARK   12  A    between atoms: N8_48  and  C33_50 
REMARK   13  A    between atoms: C33_50  and  C34_51 
ROOT
HETATM    1  C1  UNL     1      11.432  65.628  27.095  1.00  0.00     0.013 C 
HETATM    2  C2  UNL     1      12.555  65.382  27.448  1.00  0.00    -0.089 C 
HETATM    3  C3  UNL     1      13.881  65.133  27.890  1.00  0.00     0.336 C 
ENDROOT
BRANCH   3   4
HETATM    4  N1  UNL     1      14.644  64.089  27.382  1.00  0.00    -0.025 N 
HETATM    5  C16 UNL     1      15.974  64.410  28.109  1.00  0.00     0.273 C 
HETATM    6  C17 UNL     1      16.508  65.429  27.184  1.00  0.00     0.014 C 
HETATM    7  C18 UNL     1      16.069  65.174  25.963  1.00  0.00     0.020 C 
HETATM    8  C19 UNL     1      16.013  65.510  24.551  1.00  0.00     0.195 C 
HETATM    9  C41 UNL     1      15.230  63.964  26.139  1.00  0.00     0.236 C 
HETATM   10  O1  UNL     1      16.406  66.579  24.073  1.00  0.00    -0.289 OA
HETATM   11  C20 UNL     1      15.404  64.333  23.820  1.00  0.00     0.181 C 
HETATM   12  C40 UNL     1      14.610  63.611  24.885  1.00  0.00     0.088 C 
BRANCH   4  13
HETATM   13  C4  UNL     1      14.377  62.804  27.995  1.00  0.00     0.216 C 
BRANCH  13  14
HETATM   14  C5  UNL     1      13.075  62.318  28.284  1.00  0.00    -0.005 A 
HETATM   15  C6  UNL     1      12.176  61.788  27.427  1.00  0.00     0.016 A 
HETATM   16  C7  UNL     1      10.903  61.329  27.798  1.00  0.00     0.033 A 
HETATM   17  C8  UNL     1      10.504  61.403  29.111  1.00  0.00     0.062 A 
HETATM   18  N2  UNL     1       9.409  61.084  29.849  1.00  0.00    -0.296 N 
HETATM   19  C11 UNL     1      11.406  61.939  30.001  1.00  0.00     0.045 A 
HETATM   20  N3  UNL     1       9.621  61.407  31.139  1.00  0.00    -0.280 N 
ATOM     21  H2  UNL     1       8.555  60.665  29.481  1.00  0.00     0.187 HD
HETATM   22  C9  UNL     1       8.740  61.248  32.262  1.00  0.00     0.179 C 
HETATM   23  C10 UNL     1      10.871  61.946  31.251  1.00  0.00     0.132 A 
HETATM   24  N4  UNL     1      11.680  62.469  32.290  1.00  0.00    -0.369 N 
HETATM   25  C14 UNL     1      13.076  62.619  32.057  1.00  0.00     0.128 C 
HETATM   26  C15 UNL     1      11.030  62.825  33.548  1.00  0.00     0.151 C 
HETATM   27  C13 UNL     1      13.514  62.940  30.685  1.00  0.00     0.060 C 
HETATM   28  C12 UNL     1      12.627  62.379  29.638  1.00  0.00    -0.029 A 
ENDBRANCH  13  14
ENDBRANCH   4  13
BRANCH  11  29
HETATM   29  N5  UNL     1      14.579  64.851  22.740  1.00  0.00    -0.337 N 
HETATM   30  C21 UNL     1      13.412  65.596  22.853  1.00  0.00     0.218 C 
HETATM   31  O2  UNL     1      12.954  65.894  23.973  1.00  0.00    -0.274 OA
ATOM     32  H5  UNL     1      14.893  64.645  21.792  1.00  0.00     0.164 HD
BRANCH  30  33
HETATM   33  C22 UNL     1      12.694  66.045  21.643  1.00  0.00     0.104 C 
BRANCH  33  34
HETATM   34  C23 UNL     1      11.216  66.053  21.726  1.00  0.00     0.029 C 
BRANCH  34  35
HETATM   35  C24 UNL     1      10.528  67.332  21.393  1.00  0.00     0.121 C 
BRANCH  35  36
HETATM   36  N6  UNL     1      10.551  67.501  19.941  1.00  0.00    -0.376 N 
ATOM     37  H6  UNL     1      10.253  66.736  19.336  1.00  0.00     0.161 HD
BRANCH  36  38
HETATM   38  C25 UNL     1      10.985  68.718  19.373  1.00  0.00     0.104 C 
HETATM   39  N7  UNL     1      10.249  69.760  19.470  1.00  0.00    -0.385 N 
ATOM     40  H72 UNL     1       9.358  69.684  19.962  1.00  0.00     0.157 HD
ATOM     41  H71 UNL     1      10.563  70.640  19.060  1.00  0.00     0.157 HD
BRANCH  38  42
HETATM   42  C26 UNL     1      12.271  68.827  18.664  1.00  0.00     0.007 A 
HETATM   43  C27 UNL     1      12.574  68.013  17.605  1.00  0.00     0.015 A 
HETATM   44  C28 UNL     1      13.759  68.065  16.897  1.00  0.00     0.001 A 
HETATM   45  C29 UNL     1      14.684  69.003  17.295  1.00  0.00     0.000 A 
HETATM   46  C30 UNL     1      14.430  69.845  18.349  1.00  0.00     0.001 A 
HETATM   47  C31 UNL     1      13.218  69.756  19.037  1.00  0.00     0.015 A 
ENDBRANCH  38  42
ENDBRANCH  36  38
ENDBRANCH  35  36
ENDBRANCH  34  35
ENDBRANCH  33  34
ENDBRANCH  30  33
ENDBRANCH  11  29
BRANCH  11  48
HETATM   48  C32 UNL     1      16.514  63.560  23.249  1.00  0.00     0.254 C 
HETATM   49  O3  UNL     1      16.936  63.950  22.101  1.00  0.00    -0.270 OA
HETATM   50  N8  UNL     1      17.147  62.451  23.824  1.00  0.00    -0.353 N 
ATOM     51  H8  UNL     1      16.840  62.102  24.732  1.00  0.00     0.162 HD
BRANCH  50  52
HETATM   52  C33 UNL     1      18.250  61.791  23.122  1.00  0.00     0.179 C 
BRANCH  52  53
HETATM   53  C34 UNL     1      18.690  60.554  23.788  1.00  0.00     0.028 A 
HETATM   54  C35 UNL     1      18.338  59.331  23.273  1.00  0.00     0.027 A 
HETATM   55  C36 UNL     1      18.766  58.171  23.929  1.00  0.00     0.003 A 
HETATM   56  C37 UNL     1      19.527  58.245  25.071  1.00  0.00     0.017 A 
HETATM   57  C38 UNL     1      19.851  59.499  25.540  1.00  0.00     0.090 A 
HETATM   58  N9  UNL     1      19.432  60.630  24.901  1.00  0.00    -0.363 N 
HETATM   59  C39 UNL     1      19.830  61.907  25.482  1.00  0.00     0.155 C 
ENDBRANCH  52  53
ENDBRANCH  50  52
ENDBRANCH  11  48
ENDBRANCH   3   4
TORSDOF 13
ENDMDL
MODEL 2
REMARK VINA RESULT: -10.711813536      0.623      1.045
REMARK  13 active torsions:
REMARK  status: ('A' for Active; 'I' for Inactive)
REMARK    1  A    between atoms: C3_3  and  N1_4 
REMARK    2  A    between atoms: N1_4  and  C4_5 
REMARK    3  A    between atoms: C4_5  and  C5_6 
REMARK    4  A    between atoms: C20_26  and  N5_27 
REMARK    5  A    between atoms: C20_26  and  C32_46 
REMARK       I    between atoms: N5_27  and  C21_29 
REMARK    6  A    between atoms: C21_29  and  C22_31 
REMARK    7  A    between atoms: C22_31  and  C23_32 
REMARK    8  A    between atoms: C23_32  and  C24_33 
REMARK    9  A    between atoms: C24_33  and  N6_34 
REMARK   10  A    between atoms: N6_34  and  C25_36 
REMARK   11  A    between atoms: C25_36  and  C26_40 
REMARK       I    between atoms: C32_46  and  N8_48 
REMARK   12  A    between atoms: N8_48  and  C33_50 
REMARK   13  A    between atoms: C33_50  and  C34_51 
ROOT
HETATM    1  C1  UNL     1      11.348  65.501  27.546  1.00  0.00     0.013 C 
HETATM    2  C2  UNL     1      12.478  65.204  27.834  1.00  0.00    -0.089 C 
HETATM    3  C3  UNL     1      13.816  64.896  28.198  1.00  0.00     0.336 C 
ENDROOT
BRANCH   3   4
HETATM    4  N1  UNL     1      14.488  63.798  27.676  1.00  0.00    -0.025 N 
HETATM    5  C16 UNL     1      15.873  64.058  28.318  1.00  0.00     0.273 C 
HETATM    6  C17 UNL     1      16.411  65.023  27.340  1.00  0.00     0.014 C 
HETATM    7  C18 UNL     1      15.889  64.768  26.152  1.00  0.00     0.020 C 
HETATM    8  C19 UNL     1      15.772  65.075  24.738  1.00  0.00     0.195 C 
HETATM    9  C41 UNL     1      14.994  63.613  26.405  1.00  0.00     0.236 C 
HETATM   10  O1  UNL     1      16.196  66.109  24.211  1.00  0.00    -0.289 OA
HETATM   11  C20 UNL     1      15.056  63.919  24.071  1.00  0.00     0.181 C 
HETATM   12  C40 UNL     1      14.285  63.268  25.197  1.00  0.00     0.088 C 
BRANCH   4  13
HETATM   13  C4  UNL     1      14.184  62.545  28.335  1.00  0.00     0.216 C 
BRANCH  13  14
HETATM   14  C5  UNL     1      12.869  62.106  28.636  1.00  0.00    -0.005 A 
HETATM   15  C6  UNL     1      11.960  61.564  27.797  1.00  0.00     0.016 A 
HETATM   16  C7  UNL     1      10.673  61.155  28.179  1.00  0.00     0.033 A 
HETATM   17  C8  UNL     1      10.270  61.293  29.486  1.00  0.00     0.062 A 
HETATM   18  N2  UNL     1       9.164  61.035  30.230  1.00  0.00    -0.296 N 
HETATM   19  C11 UNL     1      11.182  61.843  30.358  1.00  0.00     0.045 A 
HETATM   20  N3  UNL     1       9.378  61.406  31.507  1.00  0.00    -0.280 N 
ATOM     21  H2  UNL     1       8.301  60.623  29.875  1.00  0.00     0.187 HD
HETATM   22  C9  UNL     1       8.488  61.317  32.630  1.00  0.00     0.179 C 
HETATM   23  C10 UNL     1      10.641  61.916  31.604  1.00  0.00     0.132 A 
HETATM   24  N4  UNL     1      11.459  62.461  32.625  1.00  0.00    -0.369 N 
HETATM   25  C14 UNL     1      12.860  62.564  32.394  1.00  0.00     0.128 C 
HETATM   26  C15 UNL     1      10.814  62.885  33.863  1.00  0.00     0.151 C 
HETATM   27  C13 UNL     1      13.312  62.816  31.012  1.00  0.00     0.060 C 
HETATM   28  C12 UNL     1      12.416  62.235  29.984  1.00  0.00    -0.029 A 
ENDBRANCH  13  14
ENDBRANCH   4  13
BRANCH  11  29
HETATM   29  N5  UNL     1      14.202  64.460  23.026  1.00  0.00    -0.337 N 
HETATM   30  C21 UNL     1      13.056  65.229  23.187  1.00  0.00     0.218 C 
HETATM   31  O2  UNL     1      12.648  65.531  24.325  1.00  0.00    -0.274 OA
ATOM     32  H5  UNL     1      14.475  64.252  22.066  1.00  0.00     0.164 HD
BRANCH  30  33
HETATM   33  C22 UNL     1      12.302  65.699  22.007  1.00  0.00     0.104 C 
BRANCH  33  34
HETATM   34  C23 UNL     1      10.895  66.090  22.246  1.00  0.00     0.029 C 
BRANCH  34  35
HETATM   35  C24 UNL     1      10.446  67.385  21.661  1.00  0.00     0.121 C 
BRANCH  35  36
HETATM   36  N6  UNL     1      10.694  67.350  20.221  1.00  0.00    -0.376 N 
ATOM     37  H6  UNL     1      10.678  66.459  19.725  1.00  0.00     0.161 HD
BRANCH  36  38
HETATM   38  C25 UNL     1      10.957  68.544  19.515  1.00  0.00     0.104 C 
HETATM   39  N7  UNL     1      10.086  69.480  19.508  1.00  0.00    -0.385 N 
ATOM     40  H72 UNL     1       9.214  69.340  20.020  1.00  0.00     0.157 HD
ATOM     41  H71 UNL     1      10.275  70.343  18.998  1.00  0.00     0.157 HD
BRANCH  38  42
HETATM   42  C26 UNL     1      12.215  68.745  18.776  1.00  0.00     0.007 A 
HETATM   43  C27 UNL     1      12.561  67.944  17.721  1.00  0.00     0.015 A 
HETATM   44  C28 UNL     1      13.722  68.082  16.986  1.00  0.00     0.001 A 
HETATM   45  C29 UNL     1      14.577  69.097  17.353  1.00  0.00     0.000 A 
HETATM   46  C30 UNL     1      14.278  69.929  18.403  1.00  0.00     0.001 A 
HETATM   47  C31 UNL     1      13.091  69.752  19.118  1.00  0.00     0.015 A 
ENDBRANCH  38  42
ENDBRANCH  36  38
ENDBRANCH  35  36
ENDBRANCH  34  35
ENDBRANCH  33  34
ENDBRANCH  30  33
ENDBRANCH  11  29
BRANCH  11  48
HETATM   48  C32 UNL     1      16.086  63.070  23.460  1.00  0.00     0.254 C 
HETATM   49  O3  UNL     1      15.694  62.321  22.494  1.00  0.00    -0.270 OA
HETATM   50  N8  UNL     1      17.437  62.995  23.823  1.00  0.00    -0.353 N 
ATOM     51  H8  UNL     1      17.791  63.568  24.589  1.00  0.00     0.162 HD
BRANCH  50  52
HETATM   52  C33 UNL     1      18.341  62.096  23.105  1.00  0.00     0.179 C 
BRANCH  52  53
HETATM   53  C34 UNL     1      18.791  60.962  23.928  1.00  0.00     0.028 A 
HETATM   54  C35 UNL     1      19.390  61.187  25.143  1.00  0.00     0.027 A 
HETATM   55  C36 UNL     1      19.812  60.090  25.904  1.00  0.00     0.003 A 
HETATM   56  C37 UNL     1      19.635  58.805  25.450  1.00  0.00     0.017 A 
HETATM   57  C38 UNL     1      19.027  58.641  24.224  1.00  0.00     0.090 A 
HETATM   58  N9  UNL     1      18.616  59.710  23.483  1.00  0.00    -0.363 N 
HETATM   59  C39 UNL     1      17.984  59.424  22.200  1.00  0.00     0.155 C 
ENDBRANCH  52  53
ENDBRANCH  50  52
ENDBRANCH  11  48
ENDBRANCH   3   4
TORSDOF 13
ENDMDL
MODEL 3
REMARK VINA RESULT: -10.349815579      1.279      1.842
REMARK  13 active torsions:
REMARK  status: ('A' for Active; 'I' for Inactive)
REMARK    1  A    between atoms: C3_3  and  N1_4 
REMARK    2  A    between atoms: N1_4  and  C4_5 
REMARK    3  A    between atoms: C4_5  and  C5_6 
REMARK    4  A    between atoms: C20_26  and  N5_27 
REMARK    5  A    between atoms: C20_26  and  C32_46 
REMARK       I    between atoms: N5_27  and  C21_29 
REMARK    6  A    between atoms: C21_29  and  C22_31 
REMARK    7  A    between atoms: C22_31  and  C23_32 
REMARK    8  A    between atoms: C23_32  and  C24_33 
REMARK    9  A    between atoms: C24_33  and  N6_34 
REMARK   10  A    between atoms: N6_34  and  C25_36 
REMARK   11  A    between atoms: C25_36  and  C26_40 
REMARK       I    between atoms: C32_46  and  N8_48 
REMARK   12  A    between atoms: N8_48  and  C33_50 
REMARK   13  A    between atoms: C33_50  and  C34_51 
ROOT
HETATM    1  C1  UNL     1      11.746  65.669  27.792  1.00  0.00     0.013 C 
HETATM    2  C2  UNL     1      12.849  65.268  28.055  1.00  0.00    -0.089 C 
HETATM    3  C3  UNL     1      14.159  64.837  28.392  1.00  0.00     0.336 C 
ENDROOT
BRANCH   3   4
HETATM    4  N1  UNL     1      14.731  63.705  27.824  1.00  0.00    -0.025 N 
HETATM    5  C16 UNL     1      16.142  63.829  28.451  1.00  0.00     0.273 C 
HETATM    6  C17 UNL     1      16.744  64.779  27.496  1.00  0.00     0.014 C 
HETATM    7  C18 UNL     1      16.187  64.607  26.309  1.00  0.00     0.020 C 
HETATM    8  C19 UNL     1      16.075  64.970  24.907  1.00  0.00     0.195 C 
HETATM    9  C41 UNL     1      15.203  63.521  26.539  1.00  0.00     0.236 C 
HETATM   10  O1  UNL     1      16.576  65.982  24.408  1.00  0.00    -0.289 OA
HETATM   11  C20 UNL     1      15.258  63.899  24.216  1.00  0.00     0.181 C 
HETATM   12  C40 UNL     1      14.451  63.276  25.333  1.00  0.00     0.088 C 
BRANCH   4  13
HETATM   13  C4  UNL     1      14.335  62.460  28.447  1.00  0.00     0.216 C 
BRANCH  13  14
HETATM   14  C5  UNL     1      12.988  62.098  28.710  1.00  0.00    -0.005 A 
HETATM   15  C6  UNL     1      12.068  61.629  27.840  1.00  0.00     0.016 A 
HETATM   16  C7  UNL     1      10.749  61.294  28.186  1.00  0.00     0.033 A 
HETATM   17  C8  UNL     1      10.324  61.435  29.485  1.00  0.00     0.062 A 
HETATM   18  N2  UNL     1       9.186  61.233  30.198  1.00  0.00    -0.296 N 
HETATM   19  C11 UNL     1      11.247  61.912  30.387  1.00  0.00     0.045 A 
HETATM   20  N3  UNL     1       9.392  61.569  31.486  1.00  0.00    -0.280 N 
ATOM     21  H2  UNL     1       8.309  60.882  29.816  1.00  0.00     0.187 HD
HETATM   22  C9  UNL     1       8.472  61.516  32.587  1.00  0.00     0.179 C 
HETATM   23  C10 UNL     1      10.682  61.997  31.622  1.00  0.00     0.132 A 
HETATM   24  N4  UNL     1      11.508  62.473  32.671  1.00  0.00    -0.369 N 
HETATM   25  C14 UNL     1      12.917  62.493  32.474  1.00  0.00     0.128 C 
HETATM   26  C15 UNL     1      10.860  62.916  33.902  1.00  0.00     0.151 C 
HETATM   27  C13 UNL     1      13.417  62.739  31.108  1.00  0.00     0.060 C 
HETATM   28  C12 UNL     1      12.512  62.232  30.050  1.00  0.00    -0.029 A 
ENDBRANCH  13  14
ENDBRANCH   4  13
BRANCH  11  29
HETATM   29  N5  UNL     1      14.436  64.543  23.203  1.00  0.00    -0.337 N 
HETATM   30  C21 UNL     1      13.358  65.395  23.408  1.00  0.00     0.218 C 
HETATM   31  O2  UNL     1      12.990  65.688  24.561  1.00  0.00    -0.274 OA
ATOM     32  H5  UNL     1      14.680  64.348  22.233  1.00  0.00     0.164 HD
BRANCH  30  33
HETATM   33  C22 UNL     1      12.629  65.964  22.256  1.00  0.00     0.104 C 
BRANCH  33  34
HETATM   34  C23 UNL     1      13.462  66.470  21.143  1.00  0.00     0.029 C 
BRANCH  34  35
HETATM   35  C24 UNL     1      12.781  67.312  20.118  1.00  0.00     0.121 C 
BRANCH  35  36
HETATM   36  N6  UNL     1      13.052  66.740  18.801  1.00  0.00    -0.376 N 
ATOM     37  H6  UNL     1      12.809  65.767  18.610  1.00  0.00     0.161 HD
BRANCH  36  38
HETATM   38  C25 UNL     1      13.647  67.527  17.791  1.00  0.00     0.104 C 
HETATM   39  N7  UNL     1      12.953  67.887  16.779  1.00  0.00    -0.385 N 
ATOM     40  H72 UNL     1      11.977  67.595  16.726  1.00  0.00     0.157 HD
ATOM     41  H71 UNL     1      13.383  68.457  16.050  1.00  0.00     0.157 HD
BRANCH  38  42
HETATM   42  C26 UNL     1      15.055  67.949  17.867  1.00  0.00     0.007 A 
HETATM   43  C27 UNL     1      15.440  69.221  17.539  1.00  0.00     0.015 A 
HETATM   44  C28 UNL     1      16.742  69.679  17.591  1.00  0.00     0.001 A 
HETATM   45  C29 UNL     1      17.703  68.785  18.003  1.00  0.00     0.000 A 
HETATM   46  C30 UNL     1      17.372  67.498  18.345  1.00  0.00     0.001 A 
HETATM   47  C31 UNL     1      16.042  67.078  18.276  1.00  0.00     0.015 A 
ENDBRANCH  38  42
ENDBRANCH  36  38
ENDBRANCH  35  36
ENDBRANCH  34  35
ENDBRANCH  33  34
ENDBRANCH  30  33
ENDBRANCH  11  29
BRANCH  11  48
HETATM   48  C32 UNL     1      16.206  62.990  23.561  1.00  0.00     0.254 C 
HETATM   49  O3  UNL     1      15.716  62.233  22.647  1.00  0.00    -0.270 OA
HETATM   50  N8  UNL     1      17.574  62.866  23.832  1.00  0.00    -0.353 N 
ATOM     51  H8  UNL     1      18.005  63.443  24.554  1.00  0.00     0.162 HD
BRANCH  50  52
HETATM   52  C33 UNL     1      18.387  61.908  23.080  1.00  0.00     0.179 C 
BRANCH  52  53
HETATM   53  C34 UNL     1      18.814  60.759  23.895  1.00  0.00     0.028 A 
HETATM   54  C35 UNL     1      19.464  60.962  25.087  1.00  0.00     0.027 A 
HETATM   55  C36 UNL     1      19.863  59.851  25.839  1.00  0.00     0.003 A 
HETATM   56  C37 UNL     1      19.613  58.574  25.399  1.00  0.00     0.017 A 
HETATM   57  C38 UNL     1      18.957  58.431  24.196  1.00  0.00     0.090 A 
HETATM   58  N9  UNL     1      18.569  59.515  23.463  1.00  0.00    -0.363 N 
HETATM   59  C39 UNL     1      17.882  59.252  22.204  1.00  0.00     0.155 C 
ENDBRANCH  52  53
ENDBRANCH  50  52
ENDBRANCH  11  48
ENDBRANCH   3   4
TORSDOF 13
ENDMDL
MODEL 4
REMARK VINA RESULT: -10.283484050      1.176      2.216
REMARK  13 active torsions:
REMARK  status: ('A' for Active; 'I' for Inactive)
REMARK    1  A    between atoms: C3_3  and  N1_4 
REMARK    2  A    between atoms: N1_4  and  C4_5 
REMARK    3  A    between atoms: C4_5  and  C5_6 
REMARK    4  A    between atoms: C20_26  and  N5_27 
REMARK    5  A    between atoms: C20_26  and  C32_46 
REMARK       I    between atoms: N5_27  and  C21_29 
REMARK    6  A    between atoms: C21_29  and  C22_31 
REMARK    7  A    between atoms: C22_31  and  C23_32 
REMARK    8  A    between atoms: C23_32  and  C24_33 
REMARK    9  A    between atoms: C24_33  and  N6_34 
REMARK   10  A    between atoms: N6_34  and  C25_36 
REMARK   11  A    between atoms: C25_36  and  C26_40 
REMARK       I    between atoms: C32_46  and  N8_48 
REMARK   12  A    between atoms: N8_48  and  C33_50 
REMARK   13  A    between atoms: C33_50  and  C34_51 
ROOT
HETATM    1  C1  UNL     1      11.926  65.759  27.433  1.00  0.00     0.013 C 
HETATM    2  C2  UNL     1      13.035  65.434  27.769  1.00  0.00    -0.089 C 
HETATM    3  C3  UNL     1      14.347  65.093  28.191  1.00  0.00     0.336 C 
ENDROOT
BRANCH   3   4
HETATM    4  N1  UNL     1      15.031  64.006  27.662  1.00  0.00    -0.025 N 
HETATM    5  C16 UNL     1      16.376  64.205  28.406  1.00  0.00     0.273 C 
HETATM    6  C17 UNL     1      16.995  65.203  27.512  1.00  0.00     0.014 C 
HETATM    7  C18 UNL     1      16.549  65.013  26.281  1.00  0.00     0.020 C 
HETATM    8  C19 UNL     1      16.532  65.388  24.878  1.00  0.00     0.195 C 
HETATM    9  C41 UNL     1      15.617  63.868  26.420  1.00  0.00     0.236 C 
HETATM   10  O1  UNL     1      17.010  66.435  24.431  1.00  0.00    -0.289 OA
HETATM   11  C20 UNL     1      15.841  64.280  24.113  1.00  0.00     0.181 C 
HETATM   12  C40 UNL     1      14.984  63.595  25.153  1.00  0.00     0.088 C 
BRANCH   4  13
HETATM   13  C4  UNL     1      14.662  62.730  28.239  1.00  0.00     0.216 C 
BRANCH  13  14
HETATM   14  C5  UNL     1      13.321  62.305  28.429  1.00  0.00    -0.005 A 
HETATM   15  C6  UNL     1      12.453  61.850  27.499  1.00  0.00     0.016 A 
HETATM   16  C7  UNL     1      11.137  61.448  27.774  1.00  0.00     0.033 A 
HETATM   17  C8  UNL     1      10.658  61.500  29.061  1.00  0.00     0.062 A 
HETATM   18  N2  UNL     1       9.503  61.217  29.717  1.00  0.00    -0.296 N 
HETATM   19  C11 UNL     1      11.527  61.960  30.023  1.00  0.00     0.045 A 
HETATM   20  N3  UNL     1       9.648  61.487  31.028  1.00  0.00    -0.280 N 
ATOM     21  H2  UNL     1       8.655  60.855  29.281  1.00  0.00     0.187 HD
HETATM   22  C9  UNL     1       8.690  61.339  32.087  1.00  0.00     0.179 C 
HETATM   23  C10 UNL     1      10.913  61.955  31.238  1.00  0.00     0.132 A 
HETATM   24  N4  UNL     1      11.680  62.402  32.343  1.00  0.00    -0.369 N 
HETATM   25  C14 UNL     1      13.094  62.486  32.203  1.00  0.00     0.128 C 
HETATM   26  C15 UNL     1      10.969  62.752  33.569  1.00  0.00     0.151 C 
HETATM   27  C13 UNL     1      13.634  62.826  30.873  1.00  0.00     0.060 C 
HETATM   28  C12 UNL     1      12.790  62.346  29.754  1.00  0.00    -0.029 A 
ENDBRANCH  13  14
ENDBRANCH   4  13
BRANCH  11  29
HETATM   29  N5  UNL     1      15.068  64.887  23.040  1.00  0.00    -0.337 N 
HETATM   30  C21 UNL     1      13.911  65.647  23.160  1.00  0.00     0.218 C 
HETATM   31  O2  UNL     1      13.416  65.879  24.280  1.00  0.00    -0.274 OA
ATOM     32  H5  UNL     1      15.415  64.738  22.093  1.00  0.00     0.164 HD
BRANCH  30  33
HETATM   33  C22 UNL     1      13.249  66.191  21.957  1.00  0.00     0.104 C 
BRANCH  33  34
HETATM   34  C23 UNL     1      14.144  66.650  20.872  1.00  0.00     0.029 C 
BRANCH  34  35
HETATM   35  C24 UNL     1      13.582  66.657  19.491  1.00  0.00     0.121 C 
BRANCH  35  36
HETATM   36  N6  UNL     1      13.049  67.990  19.219  1.00  0.00    -0.376 N 
ATOM     37  H6  UNL     1      13.663  68.803  19.273  1.00  0.00     0.161 HD
BRANCH  36  38
HETATM   38  C25 UNL     1      11.688  68.157  18.880  1.00  0.00     0.104 C 
HETATM   39  N7  UNL     1      11.297  67.902  17.690  1.00  0.00    -0.385 N 
ATOM     40  H72 UNL     1      11.983  67.580  17.008  1.00  0.00     0.157 HD
ATOM     41  H71 UNL     1      10.314  68.023  17.445  1.00  0.00     0.157 HD
BRANCH  38  42
HETATM   42  C26 UNL     1      10.698  68.624  19.865  1.00  0.00     0.007 A 
HETATM   43  C27 UNL     1      10.232  69.911  19.855  1.00  0.00     0.015 A 
HETATM   44  C28 UNL     1       9.302  70.409  20.747  1.00  0.00     0.001 A 
HETATM   45  C29 UNL     1       8.824  69.541  21.702  1.00  0.00     0.000 A 
HETATM   46  C30 UNL     1       9.257  68.240  21.755  1.00  0.00     0.001 A 
HETATM   47  C31 UNL     1      10.198  67.779  20.832  1.00  0.00     0.015 A 
ENDBRANCH  38  42
ENDBRANCH  36  38
ENDBRANCH  35  36
ENDBRANCH  34  35
ENDBRANCH  33  34
ENDBRANCH  30  33
ENDBRANCH  11  29
BRANCH  11  48
HETATM   48  C32 UNL     1      16.893  63.438  23.530  1.00  0.00     0.254 C 
HETATM   49  O3  UNL     1      17.196  63.686  22.308  1.00  0.00    -0.270 OA
HETATM   50  N8  UNL     1      17.588  62.402  24.167  1.00  0.00    -0.353 N 
ATOM     51  H8  UNL     1      17.376  62.166  25.136  1.00  0.00     0.162 HD
BRANCH  50  52
HETATM   52  C33 UNL     1      18.620  61.658  23.443  1.00  0.00     0.179 C 
BRANCH  52  53
HETATM   53  C34 UNL     1      18.959  60.379  24.088  1.00  0.00     0.028 A 
HETATM   54  C35 UNL     1      19.670  60.367  25.263  1.00  0.00     0.027 A 
HETATM   55  C36 UNL     1      19.984  59.137  25.852  1.00  0.00     0.003 A 
HETATM   56  C37 UNL     1      19.590  57.955  25.273  1.00  0.00     0.017 A 
HETATM   57  C38 UNL     1      18.878  58.029  24.095  1.00  0.00     0.090 A 
HETATM   58  N9  UNL     1      18.574  59.229  23.521  1.00  0.00    -0.363 N 
HETATM   59  C39 UNL     1      17.816  59.194  22.275  1.00  0.00     0.155 C 
ENDBRANCH  52  53
ENDBRANCH  50  52
ENDBRANCH  11  48
ENDBRANCH   3   4
TORSDOF 13
ENDMDL
MODEL 5
REMARK VINA RESULT: -10.194839748      1.204      2.512
REMARK  13 active torsions:
REMARK  status: ('A' for Active; 'I' for Inactive)
REMARK    1  A    between atoms: C3_3  and  N1_4 
REMARK    2  A    between atoms: N1_4  and  C4_5 
REMARK    3  A    between atoms: C4_5  and  C5_6 
REMARK    4  A    between atoms: C20_26  and  N5_27 
REMARK    5  A    between atoms: C20_26  and  C32_46 
REMARK       I    between atoms: N5_27  and  C21_29 
REMARK    6  A    between atoms: C21_29  and  C22_31 
REMARK    7  A    between atoms: C22_31  and  C23_32 
REMARK    8  A    between atoms: C23_32  and  C24_33 
REMARK    9  A    between atoms: C24_33  and  N6_34 
REMARK   10  A    between atoms: N6_34  and  C25_36 
REMARK   11  A    between atoms: C25_36  and  C26_40 
REMARK       I    between atoms: C32_46  and  N8_48 
REMARK   12  A    between atoms: N8_48  and  C33_50 
REMARK   13  A    between atoms: C33_50  and  C34_51 
ROOT
HETATM    1  C1  UNL     1      12.058  65.996  27.751  1.00  0.00     0.013 C 
HETATM    2  C2  UNL     1      13.123  65.514  28.036  1.00  0.00    -0.089 C 
HETATM    3  C3  UNL     1      14.388  64.984  28.402  1.00  0.00     0.336 C 
ENDROOT
BRANCH   3   4
HETATM    4  N1  UNL     1      14.925  63.863  27.781  1.00  0.00    -0.025 N 
HETATM    5  C16 UNL     1      16.350  63.934  28.384  1.00  0.00     0.273 C 
HETATM    6  C17 UNL     1      16.953  64.906  27.452  1.00  0.00     0.014 C 
HETATM    7  C18 UNL     1      16.369  64.789  26.271  1.00  0.00     0.020 C 
HETATM    8  C19 UNL     1      16.239  65.205  24.886  1.00  0.00     0.195 C 
HETATM    9  C41 UNL     1      15.367  63.716  26.482  1.00  0.00     0.236 C 
HETATM   10  O1  UNL     1      16.752  66.225  24.413  1.00  0.00    -0.289 OA
HETATM   11  C20 UNL     1      15.385  64.178  24.173  1.00  0.00     0.181 C 
HETATM   12  C40 UNL     1      14.587  63.532  25.282  1.00  0.00     0.088 C 
BRANCH   4  13
HETATM   13  C4  UNL     1      14.514  62.603  28.366  1.00  0.00     0.216 C 
BRANCH  13  14
HETATM   14  C5  UNL     1      13.161  62.240  28.597  1.00  0.00    -0.005 A 
HETATM   15  C6  UNL     1      12.245  61.830  27.693  1.00  0.00     0.016 A 
HETATM   16  C7  UNL     1      10.921  61.488  28.008  1.00  0.00     0.033 A 
HETATM   17  C8  UNL     1      10.485  61.559  29.310  1.00  0.00     0.062 A 
HETATM   18  N2  UNL     1       9.339  61.327  30.000  1.00  0.00    -0.296 N 
HETATM   19  C11 UNL     1      11.404  61.974  30.245  1.00  0.00     0.045 A 
HETATM   20  N3  UNL     1       9.536  61.586  31.307  1.00  0.00    -0.280 N 
ATOM     21  H2  UNL     1       8.462  61.006  29.591  1.00  0.00     0.187 HD
HETATM   22  C9  UNL     1       8.606  61.479  32.395  1.00  0.00     0.179 C 
HETATM   23  C10 UNL     1      10.829  61.993  31.478  1.00  0.00     0.132 A 
HETATM   24  N4  UNL     1      11.649  62.400  32.560  1.00  0.00    -0.369 N 
HETATM   25  C14 UNL     1      13.060  62.418  32.376  1.00  0.00     0.128 C 
HETATM   26  C15 UNL     1      10.994  62.778  33.808  1.00  0.00     0.151 C 
HETATM   27  C13 UNL     1      13.574  62.738  31.031  1.00  0.00     0.060 C 
HETATM   28  C12 UNL     1      12.675  62.302  29.938  1.00  0.00    -0.029 A 
ENDBRANCH  13  14
ENDBRANCH   4  13
BRANCH  11  29
HETATM   29  N5  UNL     1      14.558  64.876  23.201  1.00  0.00    -0.337 N 
HETATM   30  C21 UNL     1      14.959  65.416  21.985  1.00  0.00     0.218 C 
HETATM   31  O2  UNL     1      16.145  65.335  21.614  1.00  0.00    -0.274 OA
ATOM     32  H5  UNL     1      13.573  64.981  23.439  1.00  0.00     0.164 HD
BRANCH  30  33
HETATM   33  C22 UNL     1      13.981  66.098  21.114  1.00  0.00     0.104 C 
BRANCH  33  34
HETATM   34  C23 UNL     1      14.027  67.577  21.114  1.00  0.00     0.029 C 
BRANCH  34  35
HETATM   35  C24 UNL     1      13.352  68.274  19.983  1.00  0.00     0.121 C 
BRANCH  35  36
HETATM   36  N6  UNL     1      12.090  67.589  19.709  1.00  0.00    -0.376 N 
ATOM     37  H6  UNL     1      12.093  66.691  19.226  1.00  0.00     0.161 HD
BRANCH  36  38
HETATM   38  C25 UNL     1      10.865  68.166  20.112  1.00  0.00     0.104 C 
HETATM   39  N7  UNL     1      10.388  69.157  19.460  1.00  0.00    -0.385 N 
ATOM     40  H72 UNL     1      10.908  69.509  18.656  1.00  0.00     0.157 HD
ATOM     41  H71 UNL     1       9.503  69.573  19.750  1.00  0.00     0.157 HD
BRANCH  38  42
HETATM   42  C26 UNL     1      10.115  67.658  21.272  1.00  0.00     0.007 A 
HETATM   43  C27 UNL     1       9.055  68.348  21.796  1.00  0.00     0.015 A 
HETATM   44  C28 UNL     1       8.309  67.926  22.880  1.00  0.00     0.001 A 
HETATM   45  C29 UNL     1       8.670  66.731  23.459  1.00  0.00     0.000 A 
HETATM   46  C30 UNL     1       9.724  65.998  22.972  1.00  0.00     0.001 A 
HETATM   47  C31 UNL     1      10.450  66.464  21.874  1.00  0.00     0.015 A 
ENDBRANCH  38  42
ENDBRANCH  36  38
ENDBRANCH  35  36
ENDBRANCH  34  35
ENDBRANCH  33  34
ENDBRANCH  30  33
ENDBRANCH  11  29
BRANCH  11  48
HETATM   48  C32 UNL     1      16.301  63.274  23.466  1.00  0.00     0.254 C 
HETATM   49  O3  UNL     1      15.747  62.357  22.758  1.00  0.00    -0.270 OA
HETATM   50  N8  UNL     1      17.701  63.310  23.490  1.00  0.00    -0.353 N 
ATOM     51  H8  UNL     1      18.183  64.017  24.044  1.00  0.00     0.162 HD
BRANCH  50  52
HETATM   52  C33 UNL     1      18.472  62.333  22.719  1.00  0.00     0.179 C 
BRANCH  52  53
HETATM   53  C34 UNL     1      18.777  61.114  23.487  1.00  0.00     0.028 A 
HETATM   54  C35 UNL     1      18.449  59.881  22.981  1.00  0.00     0.027 A 
HETATM   55  C36 UNL     1      18.746  58.739  23.735  1.00  0.00     0.003 A 
HETATM   56  C37 UNL     1      19.356  58.841  24.962  1.00  0.00     0.017 A 
HETATM   57  C38 UNL     1      19.663  60.105  25.417  1.00  0.00     0.090 A 
HETATM   58  N9  UNL     1      19.372  61.217  24.682  1.00  0.00    -0.363 N 
HETATM   59  C39 UNL     1      19.740  62.506  25.258  1.00  0.00     0.155 C 
ENDBRANCH  52  53
ENDBRANCH  50  52
ENDBRANCH  11  48
ENDBRANCH   3   4
TORSDOF 13
ENDMDL
