MODEL 1
REMARK VINA RESULT: -9.010608394      0.000      0.000
REMARK  8 active torsions:
REMARK  status: ('A' for Active; 'I' for Inactive)
REMARK    1  A    between atoms: C2_2  and  C3_3 
REMARK    2  A    between atoms: C3_3  and  C4_4 
REMARK    3  A    between atoms: C4_4  and  N1_5 
REMARK    4  A    between atoms: N1_5  and  C5_6 
REMARK    5  A    between atoms: N1_5  and  C9_10 
REMARK    6  A    between atoms: C5_6  and  C6_7 
REMARK    7  A    between atoms: N3_20  and  C15_21 
REMARK    8  A    between atoms: C15_21  and  C16_22 
ROOT
HETATM    1  C9  UNL     1       9.120  -1.948  49.220  1.00  0.00     0.106 A 
HETATM    2  C10 UNL     1       9.984  -1.204  49.991  1.00  0.00     0.058 A 
HETATM    3  C11 UNL     1      11.341  -1.126  49.773  1.00  0.00    -0.015 A 
HETATM    4  C12 UNL     1      11.869  -1.840  48.716  1.00  0.00     0.108 A 
HETATM    5  C13 UNL     1      11.009  -2.588  47.943  1.00  0.00     0.263 A 
HETATM    6  O1  UNL     1      11.464  -3.262  46.955  1.00  0.00    -0.267 OA
HETATM    7  N2  UNL     1       9.691  -2.637  48.188  1.00  0.00    -0.309 N 
ATOM      8  H2  UNL     1       9.096  -3.205  47.585  1.00  0.00     0.170 HD
HETATM    9  C14 UNL     1      13.302  -1.593  48.726  1.00  0.00     0.260 A 
HETATM   10  O2  UNL     1      14.088  -2.086  47.906  1.00  0.00    -0.267 OA
HETATM   11  N3  UNL     1      13.633  -0.724  49.799  1.00  0.00    -0.339 N 
HETATM   12  C24 UNL     1      12.417  -0.370  50.485  1.00  0.00     0.166 A 
ENDROOT
BRANCH   1  13
HETATM   13  N1  UNL     1       7.721  -2.020  49.455  1.00  0.00    -0.367 N 
BRANCH  13  14
HETATM   14  C4  UNL     1       7.048  -3.149  48.795  1.00  0.00     0.124 C 
BRANCH  14  15
HETATM   15  C3  UNL     1       5.973  -3.607  49.755  1.00  0.00     0.019 C 
BRANCH  15  16
HETATM   16  C2  UNL     1       4.657  -3.857  49.030  1.00  0.00    -0.003 C 
HETATM   17  C1  UNL     1       3.608  -2.857  49.406  1.00  0.00     0.005 C 
ENDBRANCH  15  16
ENDBRANCH  14  15
ENDBRANCH  13  14
BRANCH  13  18
HETATM   18  C5  UNL     1       6.979  -1.121  50.270  1.00  0.00     0.128 C 
BRANCH  18  19
HETATM   19  C6  UNL     1       6.631   0.200  49.682  1.00  0.00    -0.005 C 
HETATM   20  C7  UNL     1       6.064   1.042  50.848  1.00  0.00     0.011 C 
HETATM   21  C8  UNL     1       5.521   0.140  48.656  1.00  0.00     0.011 C 
ENDBRANCH  18  19
ENDBRANCH  13  18
ENDBRANCH   1  13
BRANCH  11  22
HETATM   22  C15 UNL     1      14.939  -0.232  50.221  1.00  0.00     0.165 C 
BRANCH  22  23
HETATM   23  C16 UNL     1      15.465  -1.115  51.322  1.00  0.00    -0.039 A 
HETATM   24  C17 UNL     1      15.512  -2.488  51.195  1.00  0.00     0.015 A 
HETATM   25  C18 UNL     1      15.983  -3.326  52.198  1.00  0.00    -0.061 A 
HETATM   26  C19 UNL     1      16.020  -4.813  52.030  1.00  0.00     0.048 C 
HETATM   27  C20 UNL     1      16.425  -2.749  53.376  1.00  0.00     0.013 A 
HETATM   28  C21 UNL     1      16.395  -1.367  53.544  1.00  0.00    -0.061 A 
HETATM   29  C22 UNL     1      16.865  -0.740  54.807  1.00  0.00     0.048 C 
HETATM   30  C23 UNL     1      15.914  -0.585  52.508  1.00  0.00     0.015 A 
ENDBRANCH  22  23
ENDBRANCH  11  22
TORSDOF 8
ENDMDL
MODEL 2
REMARK VINA RESULT: -9.007611608      7.641     10.964
REMARK  8 active torsions:
REMARK  status: ('A' for Active; 'I' for Inactive)
REMARK    1  A    between atoms: C2_2  and  C3_3 
REMARK    2  A    between atoms: C3_3  and  C4_4 
REMARK    3  A    between atoms: C4_4  and  N1_5 
REMARK    4  A    between atoms: N1_5  and  C5_6 
REMARK    5  A    between atoms: N1_5  and  C9_10 
REMARK    6  A    between atoms: C5_6  and  C6_7 
REMARK    7  A    between atoms: N3_20  and  C15_21 
REMARK    8  A    between atoms: C15_21  and  C16_22 
ROOT
HETATM    1  C9  UNL     1       9.825  -5.388  45.253  1.00  0.00     0.106 A 
HETATM    2  C10 UNL     1       9.075  -6.324  44.576  1.00  0.00     0.058 A 
HETATM    3  C11 UNL     1       9.605  -7.285  43.746  1.00  0.00    -0.015 A 
HETATM    4  C12 UNL     1      10.975  -7.311  43.578  1.00  0.00     0.108 A 
HETATM    5  C13 UNL     1      11.731  -6.376  44.251  1.00  0.00     0.263 A 
HETATM    6  O1  UNL     1      13.003  -6.372  44.119  1.00  0.00    -0.267 OA
HETATM    7  N2  UNL     1      11.175  -5.456  45.054  1.00  0.00    -0.309 N 
ATOM      8  H2  UNL     1      11.779  -4.786  45.530  1.00  0.00     0.170 HD
HETATM    9  C14 UNL     1      11.257  -8.397  42.653  1.00  0.00     0.260 A 
HETATM   10  O2  UNL     1      12.399  -8.701  42.280  1.00  0.00    -0.267 OA
HETATM   11  N3  UNL     1      10.044  -9.025  42.263  1.00  0.00    -0.339 N 
HETATM   12  C24 UNL     1       8.959  -8.375  42.952  1.00  0.00     0.166 A 
ENDROOT
BRANCH   1  13
HETATM   13  N1  UNL     1       9.266  -4.402  46.108  1.00  0.00    -0.367 N 
BRANCH  13  14
HETATM   14  C4  UNL     1       8.048  -4.825  46.814  1.00  0.00     0.124 C 
BRANCH  14  15
HETATM   15  C3  UNL     1       7.294  -3.554  47.136  1.00  0.00     0.019 C 
BRANCH  15  16
HETATM   16  C2  UNL     1       6.480  -3.703  48.413  1.00  0.00    -0.003 C 
HETATM   17  C1  UNL     1       7.147  -3.054  49.586  1.00  0.00     0.005 C 
ENDBRANCH  15  16
ENDBRANCH  14  15
ENDBRANCH  13  14
BRANCH  13  18
HETATM   18  C5  UNL     1       9.807  -3.104  46.325  1.00  0.00     0.128 C 
BRANCH  18  19
HETATM   19  C6  UNL     1      10.785  -2.951  47.434  1.00  0.00    -0.005 C 
HETATM   20  C7  UNL     1      10.311  -1.724  48.245  1.00  0.00     0.011 C 
HETATM   21  C8  UNL     1      12.185  -2.610  46.973  1.00  0.00     0.011 C 
ENDBRANCH  18  19
ENDBRANCH  13  18
ENDBRANCH   1  13
BRANCH  11  22
HETATM   22  C15 UNL     1       9.830 -10.125  41.331  1.00  0.00     0.165 C 
BRANCH  22  23
HETATM   23  C16 UNL     1      10.227  -9.681  39.948  1.00  0.00    -0.039 A 
HETATM   24  C17 UNL     1      11.222  -8.748  39.739  1.00  0.00     0.015 A 
HETATM   25  C18 UNL     1      11.601  -8.315  38.474  1.00  0.00    -0.061 A 
HETATM   26  C19 UNL     1      12.683  -7.299  38.281  1.00  0.00     0.048 C 
HETATM   27  C20 UNL     1      10.946  -8.849  37.379  1.00  0.00     0.013 A 
HETATM   28  C21 UNL     1       9.936  -9.794  37.546  1.00  0.00    -0.061 A 
HETATM   29  C22 UNL     1       9.227 -10.371  36.374  1.00  0.00     0.048 C 
HETATM   30  C23 UNL     1       9.605 -10.185  38.832  1.00  0.00     0.015 A 
ENDBRANCH  22  23
ENDBRANCH  11  22
TORSDOF 8
ENDMDL
MODEL 3
REMARK VINA RESULT: -9.001888488      7.509     10.934
REMARK  8 active torsions:
REMARK  status: ('A' for Active; 'I' for Inactive)
REMARK    1  A    between atoms: C2_2  and  C3_3 
REMARK    2  A    between atoms: C3_3  and  C4_4 
REMARK    3  A    between atoms: C4_4  and  N1_5 
REMARK    4  A    between atoms: N1_5  and  C5_6 
REMARK    5  A    between atoms: N1_5  and  C9_10 
REMARK    6  A    between atoms: C5_6  and  C6_7 
REMARK    7  A    between atoms: N3_20  and  C15_21 
REMARK    8  A    between atoms: C15_21  and  C16_22 
ROOT
HETATM    1  C9  UNL     1       9.730  -5.130  45.271  1.00  0.00     0.106 A 
HETATM    2  C10 UNL     1       9.008  -6.093  44.604  1.00  0.00     0.058 A 
HETATM    3  C11 UNL     1       9.570  -7.098  43.851  1.00  0.00    -0.015 A 
HETATM    4  C12 UNL     1      10.947  -7.143  43.757  1.00  0.00     0.108 A 
HETATM    5  C13 UNL     1      11.676  -6.181  44.421  1.00  0.00     0.263 A 
HETATM    6  O1  UNL     1      12.953  -6.193  44.357  1.00  0.00    -0.267 OA
HETATM    7  N2  UNL     1      11.088  -5.217  45.147  1.00  0.00    -0.309 N 
ATOM      8  H2  UNL     1      11.673  -4.529  45.620  1.00  0.00     0.170 HD
HETATM    9  C14 UNL     1      11.265  -8.276  42.904  1.00  0.00     0.260 A 
HETATM   10  O2  UNL     1      12.422  -8.607  42.607  1.00  0.00    -0.267 OA
HETATM   11  N3  UNL     1      10.068  -8.914  42.483  1.00  0.00    -0.339 N 
HETATM   12  C24 UNL     1       8.955  -8.222  43.080  1.00  0.00     0.166 A 
ENDROOT
BRANCH   1  13
HETATM   13  N1  UNL     1       9.138  -4.098  46.045  1.00  0.00    -0.367 N 
BRANCH  13  14
HETATM   14  C4  UNL     1       9.152  -2.772  45.410  1.00  0.00     0.124 C 
BRANCH  14  15
HETATM   15  C3  UNL     1       9.682  -1.818  46.457  1.00  0.00     0.019 C 
BRANCH  15  16
HETATM   16  C2  UNL     1      11.177  -2.010  46.673  1.00  0.00    -0.003 C 
HETATM   17  C1  UNL     1      11.530  -2.092  48.125  1.00  0.00     0.005 C 
ENDBRANCH  15  16
ENDBRANCH  14  15
ENDBRANCH  13  14
BRANCH  13  18
HETATM   18  C5  UNL     1       8.541  -4.273  47.325  1.00  0.00     0.128 C 
BRANCH  18  19
HETATM   19  C6  UNL     1       7.182  -3.703  47.525  1.00  0.00    -0.005 C 
HETATM   20  C7  UNL     1       7.147  -3.205  48.988  1.00  0.00     0.011 C 
HETATM   21  C8  UNL     1       6.069  -4.723  47.424  1.00  0.00     0.011 C 
ENDBRANCH  18  19
ENDBRANCH  13  18
ENDBRANCH   1  13
BRANCH  11  22
HETATM   22  C15 UNL     1       9.892 -10.058  41.597  1.00  0.00     0.165 C 
BRANCH  22  23
HETATM   23  C16 UNL     1      10.230  -9.646  40.188  1.00  0.00    -0.039 A 
HETATM   24  C17 UNL     1      11.238  -8.744  39.915  1.00  0.00     0.015 A 
HETATM   25  C18 UNL     1      11.564  -8.339  38.626  1.00  0.00    -0.061 A 
HETATM   26  C19 UNL     1      12.662  -7.357  38.362  1.00  0.00     0.048 C 
HETATM   27  C20 UNL     1      10.841  -8.871  37.573  1.00  0.00     0.013 A 
HETATM   28  C21 UNL     1       9.816  -9.785  37.806  1.00  0.00    -0.061 A 
HETATM   29  C22 UNL     1       9.033 -10.359  36.680  1.00  0.00     0.048 C 
HETATM   30  C23 UNL     1       9.539 -10.149  39.113  1.00  0.00     0.015 A 
ENDBRANCH  22  23
ENDBRANCH  11  22
TORSDOF 8
ENDMDL
MODEL 4
REMARK VINA RESULT: -8.997222699      2.025      3.523
REMARK  8 active torsions:
REMARK  status: ('A' for Active; 'I' for Inactive)
REMARK    1  A    between atoms: C2_2  and  C3_3 
REMARK    2  A    between atoms: C3_3  and  C4_4 
REMARK    3  A    between atoms: C4_4  and  N1_5 
REMARK    4  A    between atoms: N1_5  and  C5_6 
REMARK    5  A    between atoms: N1_5  and  C9_10 
REMARK    6  A    between atoms: C5_6  and  C6_7 
REMARK    7  A    between atoms: N3_20  and  C15_21 
REMARK    8  A    between atoms: C15_21  and  C16_22 
ROOT
HETATM    1  C9  UNL     1       9.893  -2.499  47.602  1.00  0.00     0.106 A 
HETATM    2  C10 UNL     1      11.262  -2.513  47.462  1.00  0.00     0.058 A 
HETATM    3  C11 UNL     1      12.134  -1.898  48.330  1.00  0.00    -0.015 A 
HETATM    4  C12 UNL     1      11.603  -1.223  49.411  1.00  0.00     0.108 A 
HETATM    5  C13 UNL     1      10.232  -1.204  49.556  1.00  0.00     0.263 A 
HETATM    6  O1  UNL     1       9.706  -0.589  50.546  1.00  0.00    -0.267 OA
HETATM    7  N2  UNL     1       9.416  -1.819  48.686  1.00  0.00    -0.309 N 
ATOM      8  H2  UNL     1       8.409  -1.776  48.839  1.00  0.00     0.170 HD
HETATM    9  C14 UNL     1      12.728  -0.665  50.143  1.00  0.00     0.260 A 
HETATM   10  O2  UNL     1      12.608   0.007  51.177  1.00  0.00    -0.267 OA
HETATM   11  N3  UNL     1      13.943  -1.009  49.494  1.00  0.00    -0.339 N 
HETATM   12  C24 UNL     1      13.627  -1.820  48.346  1.00  0.00     0.166 A 
ENDROOT
BRANCH   1  13
HETATM   13  N1  UNL     1       9.003  -3.138  46.699  1.00  0.00    -0.367 N 
BRANCH  13  14
HETATM   14  C4  UNL     1       7.584  -2.811  46.904  1.00  0.00     0.124 C 
BRANCH  14  15
HETATM   15  C3  UNL     1       6.975  -4.020  47.578  1.00  0.00     0.019 C 
BRANCH  15  16
HETATM   16  C2  UNL     1       6.285  -3.636  48.880  1.00  0.00    -0.003 C 
HETATM   17  C1  UNL     1       4.844  -4.039  48.895  1.00  0.00     0.005 C 
ENDBRANCH  15  16
ENDBRANCH  14  15
ENDBRANCH  13  14
BRANCH  13  18
HETATM   18  C5  UNL     1       9.392  -4.013  45.646  1.00  0.00     0.128 C 
BRANCH  18  19
HETATM   19  C6  UNL     1       9.951  -5.336  46.033  1.00  0.00    -0.005 C 
HETATM   20  C7  UNL     1      10.870  -5.761  44.864  1.00  0.00     0.011 C 
HETATM   21  C8  UNL     1       8.912  -6.431  46.144  1.00  0.00     0.011 C 
ENDBRANCH  18  19
ENDBRANCH  13  18
ENDBRANCH   1  13
BRANCH  11  22
HETATM   22  C15 UNL     1      15.312  -0.644  49.840  1.00  0.00     0.165 C 
BRANCH  22  23
HETATM   23  C16 UNL     1      15.724  -1.398  51.076  1.00  0.00    -0.039 A 
HETATM   24  C17 UNL     1      15.716  -2.777  51.126  1.00  0.00     0.015 A 
HETATM   25  C18 UNL     1      16.082  -3.498  52.256  1.00  0.00    -0.061 A 
HETATM   26  C19 UNL     1      16.062  -4.994  52.279  1.00  0.00     0.048 C 
HETATM   27  C20 UNL     1      16.472  -2.791  53.381  1.00  0.00     0.013 A 
HETATM   28  C21 UNL     1      16.495  -1.398  53.372  1.00  0.00    -0.061 A 
HETATM   29  C22 UNL     1      16.910  -0.634  54.577  1.00  0.00     0.048 C 
HETATM   30  C23 UNL     1      16.119  -0.739  52.215  1.00  0.00     0.015 A 
ENDBRANCH  22  23
ENDBRANCH  11  22
TORSDOF 8
ENDMDL
MODEL 5
REMARK VINA RESULT: -8.982635255      0.026      1.583
REMARK  8 active torsions:
REMARK  status: ('A' for Active; 'I' for Inactive)
REMARK    1  A    between atoms: C2_2  and  C3_3 
REMARK    2  A    between atoms: C3_3  and  C4_4 
REMARK    3  A    between atoms: C4_4  and  N1_5 
REMARK    4  A    between atoms: N1_5  and  C5_6 
REMARK    5  A    between atoms: N1_5  and  C9_10 
REMARK    6  A    between atoms: C5_6  and  C6_7 
REMARK    7  A    between atoms: N3_20  and  C15_21 
REMARK    8  A    between atoms: C15_21  and  C16_22 
ROOT
HETATM    1  C9  UNL     1       9.132  -1.950  49.220  1.00  0.00     0.106 A 
HETATM    2  C10 UNL     1       9.996  -1.211  49.996  1.00  0.00     0.058 A 
HETATM    3  C11 UNL     1      11.353  -1.131  49.779  1.00  0.00    -0.015 A 
HETATM    4  C12 UNL     1      11.882  -1.837  48.718  1.00  0.00     0.108 A 
HETATM    5  C13 UNL     1      11.022  -2.580  47.938  1.00  0.00     0.263 A 
HETATM    6  O1  UNL     1      11.478  -3.245  46.946  1.00  0.00    -0.267 OA
HETATM    7  N2  UNL     1       9.704  -2.631  48.182  1.00  0.00    -0.309 N 
ATOM      8  H2  UNL     1       9.111  -3.195  47.575  1.00  0.00     0.170 HD
HETATM    9  C14 UNL     1      13.314  -1.589  48.730  1.00  0.00     0.260 A 
HETATM   10  O2  UNL     1      14.101  -2.075  47.906  1.00  0.00    -0.267 OA
HETATM   11  N3  UNL     1      13.645  -0.727  49.809  1.00  0.00    -0.339 N 
HETATM   12  C24 UNL     1      12.428  -0.379  50.497  1.00  0.00     0.166 A 
ENDROOT
BRANCH   1  13
HETATM   13  N1  UNL     1       7.734  -2.025  49.453  1.00  0.00    -0.367 N 
BRANCH  13  14
HETATM   14  C4  UNL     1       7.063  -3.154  48.790  1.00  0.00     0.124 C 
BRANCH  14  15
HETATM   15  C3  UNL     1       5.992  -3.620  49.751  1.00  0.00     0.019 C 
BRANCH  15  16
HETATM   16  C2  UNL     1       4.673  -3.864  49.030  1.00  0.00    -0.003 C 
HETATM   17  C1  UNL     1       3.631  -2.858  49.405  1.00  0.00     0.005 C 
ENDBRANCH  15  16
ENDBRANCH  14  15
ENDBRANCH  13  14
BRANCH  13  18
HETATM   18  C5  UNL     1       6.990  -1.129  50.270  1.00  0.00     0.128 C 
BRANCH  18  19
HETATM   19  C6  UNL     1       6.643   0.194  49.686  1.00  0.00    -0.005 C 
HETATM   20  C7  UNL     1       6.075   1.032  50.855  1.00  0.00     0.011 C 
HETATM   21  C8  UNL     1       5.535   0.139  48.657  1.00  0.00     0.011 C 
ENDBRANCH  18  19
ENDBRANCH  13  18
ENDBRANCH   1  13
BRANCH  11  22
HETATM   22  C15 UNL     1      14.950  -0.238  50.235  1.00  0.00     0.165 C 
BRANCH  22  23
HETATM   23  C16 UNL     1      15.462  -1.109  51.352  1.00  0.00    -0.039 A 
HETATM   24  C17 UNL     1      15.909  -0.578  52.545  1.00  0.00     0.015 A 
HETATM   25  C18 UNL     1      16.394  -1.358  53.587  1.00  0.00    -0.061 A 
HETATM   26  C19 UNL     1      16.873  -0.752  54.869  1.00  0.00     0.048 C 
HETATM   27  C20 UNL     1      16.427  -2.731  53.414  1.00  0.00     0.013 A 
HETATM   28  C21 UNL     1      15.984  -3.307  52.225  1.00  0.00    -0.061 A 
HETATM   29  C22 UNL     1      16.018  -4.780  52.031  1.00  0.00     0.048 C 
HETATM   30  C23 UNL     1      15.512  -2.476  51.224  1.00  0.00     0.015 A 
ENDBRANCH  22  23
ENDBRANCH  11  22
TORSDOF 8
ENDMDL
