MODEL 1
REMARK VINA RESULT: -7.401857233      0.000      0.000
REMARK  5 active torsions:
REMARK  status: ('A' for Active; 'I' for Inactive)
REMARK    1  A    between atoms: O1_1  and  C1_3 
REMARK    2  A    between atoms: C1_3  and  C2_4 
REMARK    3  A    between atoms: C6_10  and  C7_11 
REMARK    4  A    between atoms: C7_11  and  S1_12 
REMARK    5  A    between atoms: S1_12  and  C8_13 
ROOT
HETATM    1  C2  UNL     1      18.239   2.229  62.240  1.00  0.00     0.040 A 
HETATM    2  N1  UNL     1      17.441   1.731  63.175  1.00  0.00    -0.367 N 
ATOM      3  H1  UNL     1      16.449   1.615  62.970  1.00  0.00     0.165 HD
HETATM    4  C3  UNL     1      17.918   1.365  64.424  1.00  0.00     0.088 A 
HETATM    5  C4  UNL     1      19.285   1.522  64.734  1.00  0.00     0.018 A 
HETATM    6  C5  UNL     1      20.081   2.033  63.737  1.00  0.00     0.011 A 
HETATM    7  C6  UNL     1      19.611   2.380  62.513  1.00  0.00    -0.024 A 
ENDROOT
BRANCH   7   8
HETATM    8  C7  UNL     1      20.470   2.624  61.317  1.00  0.00     0.120 C 
BRANCH   8   9
HETATM    9  S1  UNL     1      21.372   4.130  61.255  1.00  0.00    -0.125 SA
BRANCH   9  10
HETATM   10  C8  UNL     1      21.250   4.705  59.498  1.00  0.00     0.000 A 
HETATM   11  C9  UNL     1      22.392   4.706  58.790  1.00  0.00     0.018 A 
HETATM   12  C10 UNL     1      22.361   5.056  57.429  1.00  0.00     0.001 A 
HETATM   13  C11 UNL     1      21.129   5.358  56.865  1.00  0.00     0.000 A 
HETATM   14  C12 UNL     1      19.964   5.341  57.628  1.00  0.00     0.001 A 
HETATM   15  C13 UNL     1      20.047   5.019  58.967  1.00  0.00     0.018 A 
ENDBRANCH   9  10
ENDBRANCH   8   9
ENDBRANCH   7   8
BRANCH   1  16
HETATM   16  C1  UNL     1      17.798   2.785  60.929  1.00  0.00     0.221 C 
BRANCH  16  17
HETATM   17  O1  UNL     1      16.595   2.324  60.517  1.00  0.00    -0.395 OA
ATOM     18  H1  UNL     1      16.408   2.502  59.603  1.00  0.00     0.209 HD
ENDBRANCH  16  17
ENDBRANCH   1  16
TORSDOF 5
ENDMDL
MODEL 2
REMARK VINA RESULT: -7.294976390      0.140      1.205
REMARK  5 active torsions:
REMARK  status: ('A' for Active; 'I' for Inactive)
REMARK    1  A    between atoms: O1_1  and  C1_3 
REMARK    2  A    between atoms: C1_3  and  C2_4 
REMARK    3  A    between atoms: C6_10  and  C7_11 
REMARK    4  A    between atoms: C7_11  and  S1_12 
REMARK    5  A    between atoms: S1_12  and  C8_13 
ROOT
HETATM    1  C2  UNL     1      18.211   2.246  62.278  1.00  0.00     0.040 A 
HETATM    2  N1  UNL     1      17.395   1.709  63.174  1.00  0.00    -0.367 N 
ATOM      3  H1  UNL     1      16.419   1.550  62.923  1.00  0.00     0.165 HD
HETATM    4  C3  UNL     1      17.831   1.357  64.443  1.00  0.00     0.088 A 
HETATM    5  C4  UNL     1      19.173   1.571  64.814  1.00  0.00     0.018 A 
HETATM    6  C5  UNL     1      19.990   2.123  63.857  1.00  0.00     0.011 A 
HETATM    7  C6  UNL     1      19.562   2.456  62.615  1.00  0.00    -0.024 A 
ENDROOT
BRANCH   7   8
HETATM    8  C7  UNL     1      20.462   2.745  61.459  1.00  0.00     0.120 C 
BRANCH   8   9
HETATM    9  S1  UNL     1      21.095   4.376  61.307  1.00  0.00    -0.125 SA
BRANCH   9  10
HETATM   10  C8  UNL     1      21.174   4.705  59.486  1.00  0.00     0.000 A 
HETATM   11  C9  UNL     1      20.011   5.006  58.883  1.00  0.00     0.018 A 
HETATM   12  C10 UNL     1      20.007   5.343  57.518  1.00  0.00     0.001 A 
HETATM   13  C11 UNL     1      21.227   5.380  56.856  1.00  0.00     0.000 A 
HETATM   14  C12 UNL     1      22.414   5.068  57.514  1.00  0.00     0.001 A 
HETATM   15  C13 UNL     1      22.366   4.715  58.847  1.00  0.00     0.018 A 
ENDBRANCH   9  10
ENDBRANCH   8   9
ENDBRANCH   7   8
BRANCH   1  16
HETATM   16  C1  UNL     1      17.806   2.790  60.951  1.00  0.00     0.221 C 
BRANCH  16  17
HETATM   17  O1  UNL     1      16.619   2.318  60.506  1.00  0.00    -0.395 OA
ATOM     18  H1  UNL     1      16.209   2.869  59.850  1.00  0.00     0.209 HD
ENDBRANCH  16  17
ENDBRANCH   1  16
TORSDOF 5
ENDMDL
MODEL 3
REMARK VINA RESULT: -6.981117949      1.820      2.511
REMARK  5 active torsions:
REMARK  status: ('A' for Active; 'I' for Inactive)
REMARK    1  A    between atoms: O1_1  and  C1_3 
REMARK    2  A    between atoms: C1_3  and  C2_4 
REMARK    3  A    between atoms: C6_10  and  C7_11 
REMARK    4  A    between atoms: C7_11  and  S1_12 
REMARK    5  A    between atoms: S1_12  and  C8_13 
ROOT
HETATM    1  C2  UNL     1      18.914   1.987  61.163  1.00  0.00     0.040 A 
HETATM    2  N1  UNL     1      19.099   1.024  62.055  1.00  0.00    -0.367 N 
ATOM      3  H1  UNL     1      18.333   0.774  62.681  1.00  0.00     0.165 HD
HETATM    4  C3  UNL     1      20.304   0.347  62.162  1.00  0.00     0.088 A 
HETATM    5  C4  UNL     1      21.378   0.677  61.311  1.00  0.00     0.018 A 
HETATM    6  C5  UNL     1      21.147   1.675  60.395  1.00  0.00     0.011 A 
HETATM    7  C6  UNL     1      19.963   2.327  60.288  1.00  0.00    -0.024 A 
ENDROOT
BRANCH   7   8
HETATM    8  C7  UNL     1      19.564   3.169  59.122  1.00  0.00     0.120 C 
BRANCH   8   9
HETATM    9  S1  UNL     1      20.005   4.869  59.154  1.00  0.00    -0.125 SA
BRANCH   9  10
HETATM   10  C8  UNL     1      21.724   4.943  58.467  1.00  0.00     0.000 A 
HETATM   11  C9  UNL     1      22.724   4.718  59.335  1.00  0.00     0.018 A 
HETATM   12  C10 UNL     1      24.050   4.682  58.869  1.00  0.00     0.001 A 
HETATM   13  C11 UNL     1      24.263   4.852  57.508  1.00  0.00     0.000 A 
HETATM   14  C12 UNL     1      23.202   5.078  56.635  1.00  0.00     0.001 A 
HETATM   15  C13 UNL     1      21.920   5.133  57.142  1.00  0.00     0.018 A 
ENDBRANCH   9  10
ENDBRANCH   8   9
ENDBRANCH   7   8
BRANCH   1  16
HETATM   16  C1  UNL     1      17.714   2.867  61.072  1.00  0.00     0.221 C 
BRANCH  16  17
HETATM   17  O1  UNL     1      16.587   2.218  60.699  1.00  0.00    -0.395 OA
ATOM     18  H1  UNL     1      16.590   1.932  59.793  1.00  0.00     0.209 HD
ENDBRANCH  16  17
ENDBRANCH   1  16
TORSDOF 5
ENDMDL
MODEL 4
REMARK VINA RESULT: -6.799721279      1.234      1.483
REMARK  5 active torsions:
REMARK  status: ('A' for Active; 'I' for Inactive)
REMARK    1  A    between atoms: O1_1  and  C1_3 
REMARK    2  A    between atoms: C1_3  and  C2_4 
REMARK    3  A    between atoms: C6_10  and  C7_11 
REMARK    4  A    between atoms: C7_11  and  S1_12 
REMARK    5  A    between atoms: S1_12  and  C8_13 
ROOT
HETATM    1  C2  UNL     1      18.261   1.896  62.240  1.00  0.00     0.040 A 
HETATM    2  N1  UNL     1      17.458   1.775  63.288  1.00  0.00    -0.367 N 
ATOM      3  H1  UNL     1      16.474   2.027  63.192  1.00  0.00     0.165 HD
HETATM    4  C3  UNL     1      17.918   1.314  64.513  1.00  0.00     0.088 A 
HETATM    5  C4  UNL     1      19.274   0.964  64.672  1.00  0.00     0.018 A 
HETATM    6  C5  UNL     1      20.073   1.096  63.563  1.00  0.00     0.011 A 
HETATM    7  C6  UNL     1      19.616   1.537  62.364  1.00  0.00    -0.024 A 
ENDROOT
BRANCH   7   8
HETATM    8  C7  UNL     1      20.350   1.390  61.073  1.00  0.00     0.120 C 
BRANCH   8   9
HETATM    9  S1  UNL     1      21.926   2.154  60.940  1.00  0.00    -0.125 SA
BRANCH   9  10
HETATM   10  C8  UNL     1      21.886   3.088  59.340  1.00  0.00     0.000 A 
HETATM   11  C9  UNL     1      21.290   2.472  58.304  1.00  0.00     0.018 A 
HETATM   12  C10 UNL     1      21.155   3.152  57.081  1.00  0.00     0.001 A 
HETATM   13  C11 UNL     1      21.621   4.457  57.010  1.00  0.00     0.000 A 
HETATM   14  C12 UNL     1      22.228   5.066  58.106  1.00  0.00     0.001 A 
HETATM   15  C13 UNL     1      22.365   4.351  59.277  1.00  0.00     0.018 A 
ENDBRANCH   9  10
ENDBRANCH   8   9
ENDBRANCH   7   8
BRANCH   1  16
HETATM   16  C1  UNL     1      17.896   2.516  60.935  1.00  0.00     0.221 C 
BRANCH  16  17
HETATM   17  O1  UNL     1      16.596   2.352  60.596  1.00  0.00    -0.395 OA
ATOM     18  H1  UNL     1      16.236   3.074  60.094  1.00  0.00     0.209 HD
ENDBRANCH  16  17
ENDBRANCH   1  16
TORSDOF 5
ENDMDL
MODEL 5
REMARK VINA RESULT: -6.711443391      1.243      1.859
REMARK  5 active torsions:
REMARK  status: ('A' for Active; 'I' for Inactive)
REMARK    1  A    between atoms: O1_1  and  C1_3 
REMARK    2  A    between atoms: C1_3  and  C2_4 
REMARK    3  A    between atoms: C6_10  and  C7_11 
REMARK    4  A    between atoms: C7_11  and  S1_12 
REMARK    5  A    between atoms: S1_12  and  C8_13 
ROOT
HETATM    1  C2  UNL     1      18.473   2.800  61.976  1.00  0.00     0.040 A 
HETATM    2  N1  UNL     1      17.964   2.485  63.159  1.00  0.00    -0.367 N 
ATOM      3  H1  UNL     1      17.015   2.113  63.208  1.00  0.00     0.165 HD
HETATM    4  C3  UNL     1      18.685   2.648  64.332  1.00  0.00     0.088 A 
HETATM    5  C4  UNL     1      19.995   3.165  64.291  1.00  0.00     0.018 A 
HETATM    6  C5  UNL     1      20.491   3.472  63.047  1.00  0.00     0.011 A 
HETATM    7  C6  UNL     1      19.785   3.301  61.901  1.00  0.00    -0.024 A 
ENDROOT
BRANCH   7   8
HETATM    8  C7  UNL     1      20.381   3.309  60.532  1.00  0.00     0.120 C 
BRANCH   8   9
HETATM    9  S1  UNL     1      20.394   4.832  59.658  1.00  0.00    -0.125 SA
BRANCH   9  10
HETATM   10  C8  UNL     1      22.031   4.888  58.793  1.00  0.00     0.000 A 
HETATM   11  C9  UNL     1      23.115   4.647  59.550  1.00  0.00     0.018 A 
HETATM   12  C10 UNL     1      24.383   4.597  58.946  1.00  0.00     0.001 A 
HETATM   13  C11 UNL     1      24.453   4.771  57.571  1.00  0.00     0.000 A 
HETATM   14  C12 UNL     1      23.309   5.013  56.816  1.00  0.00     0.001 A 
HETATM   15  C13 UNL     1      22.088   5.082  57.455  1.00  0.00     0.018 A 
ENDBRANCH   9  10
ENDBRANCH   8   9
ENDBRANCH   7   8
BRANCH   1  16
HETATM   16  C1  UNL     1      17.729   2.800  60.684  1.00  0.00     0.221 C 
BRANCH  16  17
HETATM   17  O1  UNL     1      16.509   2.220  60.755  1.00  0.00    -0.395 OA
ATOM     18  H1  UNL     1      15.793   2.840  60.825  1.00  0.00     0.209 HD
ENDBRANCH  16  17
ENDBRANCH   1  16
TORSDOF 5
ENDMDL
