MODEL 1
REMARK VINA RESULT: -7.446122995      0.000      0.000
REMARK  4 active torsions:
REMARK  status: ('A' for Active; 'I' for Inactive)
REMARK    1  A    between atoms: C7_7  and  C8_8 
REMARK    2  A    between atoms: C8_8  and  N1_9 
REMARK    3  A    between atoms: N1_9  and  C9_12 
REMARK    4  A    between atoms: C9_12  and  C10_13 
ROOT
HETATM    1  N1  UNL     1      18.288   4.093  61.516  1.00  0.00    -0.066 N 
ATOM      2  H11 UNL     1      17.784   4.737  60.906  1.00  0.00     0.277 HD
ATOM      3  H12 UNL     1      17.874   4.361  62.408  1.00  0.00     0.277 HD
ENDROOT
BRANCH   1   4
HETATM    4  C8  UNL     1      19.711   4.354  61.496  1.00  0.00     0.271 C 
BRANCH   4   5
HETATM    5  C7  UNL     1      20.097   4.647  60.091  1.00  0.00    -0.032 A 
HETATM    6  C6  UNL     1      21.425   4.634  59.670  1.00  0.00     0.015 A 
HETATM    7  C4  UNL     1      21.720   4.914  58.357  1.00  0.00    -0.061 A 
HETATM    8  C3  UNL     1      20.723   5.212  57.427  1.00  0.00     0.013 A 
HETATM    9  C5  UNL     1      23.152   4.897  57.916  1.00  0.00     0.048 C 
HETATM   10  C2  UNL     1      19.408   5.224  57.844  1.00  0.00    -0.061 A 
HETATM   11  C1  UNL     1      18.339   5.541  56.861  1.00  0.00     0.048 C 
HETATM   12  C14 UNL     1      19.127   4.944  59.156  1.00  0.00     0.015 A 
ENDBRANCH   4   5
ENDBRANCH   1   4
BRANCH   1  13
HETATM   13  C9  UNL     1      17.989   2.713  61.187  1.00  0.00     0.291 C 
BRANCH  13  14
HETATM   14  C10 UNL     1      18.273   1.877  62.373  1.00  0.00     0.060 A 
HETATM   15  C11 UNL     1      19.243   0.916  62.532  1.00  0.00     0.063 A 
HETATM   16  C12 UNL     1      19.108   0.407  63.830  1.00  0.00     0.074 A 
HETATM   17  C13 UNL     1      19.957  -0.658  64.430  1.00  0.00     0.079 C 
HETATM   18  O1  UNL     1      18.113   1.057  64.359  1.00  0.00    -0.243 OA
HETATM   19  N2  UNL     1      17.603   1.922  63.537  1.00  0.00    -0.264 N 
ATOM     20  H2  UNL     1      16.817   2.539  63.742  1.00  0.00     0.194 HD
ENDBRANCH  13  14
ENDBRANCH   1  13
TORSDOF 4
ENDMDL
MODEL 2
REMARK VINA RESULT: -7.393853637      0.048      2.059
REMARK  4 active torsions:
REMARK  status: ('A' for Active; 'I' for Inactive)
REMARK    1  A    between atoms: C7_7  and  C8_8 
REMARK    2  A    between atoms: C8_8  and  N1_9 
REMARK    3  A    between atoms: N1_9  and  C9_12 
REMARK    4  A    between atoms: C9_12  and  C10_13 
ROOT
HETATM    1  N1  UNL     1      18.295   4.095  61.533  1.00  0.00    -0.066 N 
ATOM      2  H11 UNL     1      17.776   4.751  60.950  1.00  0.00     0.277 HD
ATOM      3  H12 UNL     1      17.916   4.356  62.443  1.00  0.00     0.277 HD
ENDROOT
BRANCH   1   4
HETATM    4  C8  UNL     1      19.719   4.343  61.465  1.00  0.00     0.271 C 
BRANCH   4   5
HETATM    5  C7  UNL     1      20.058   4.648  60.050  1.00  0.00    -0.032 A 
HETATM    6  C6  UNL     1      19.082   4.959  59.106  1.00  0.00     0.015 A 
HETATM    7  C4  UNL     1      19.457   5.232  57.812  1.00  0.00    -0.061 A 
HETATM    8  C3  UNL     1      20.794   5.206  57.413  1.00  0.00     0.013 A 
HETATM    9  C5  UNL     1      18.398   5.566  56.805  1.00  0.00     0.048 C 
HETATM   10  C2  UNL     1      21.760   4.898  58.348  1.00  0.00    -0.061 A 
HETATM   11  C1  UNL     1      23.187   4.868  57.933  1.00  0.00     0.048 C 
HETATM   12  C14 UNL     1      21.374   4.628  59.636  1.00  0.00     0.015 A 
ENDBRANCH   4   5
ENDBRANCH   1   4
BRANCH   1  13
HETATM   13  C9  UNL     1      17.971   2.722  61.199  1.00  0.00     0.291 C 
BRANCH  13  14
HETATM   14  C10 UNL     1      18.262   1.873  62.375  1.00  0.00     0.060 A 
HETATM   15  C11 UNL     1      19.228   0.905  62.515  1.00  0.00     0.063 A 
HETATM   16  C12 UNL     1      19.103   0.385  63.810  1.00  0.00     0.074 A 
HETATM   17  C13 UNL     1      19.952  -0.690  64.391  1.00  0.00     0.079 C 
HETATM   18  O1  UNL     1      18.117   1.035  64.354  1.00  0.00    -0.243 OA
HETATM   19  N2  UNL     1      17.604   1.910  63.545  1.00  0.00    -0.264 N 
ATOM     20  H2  UNL     1      16.823   2.530  63.763  1.00  0.00     0.194 HD
ENDBRANCH  13  14
ENDBRANCH   1  13
TORSDOF 4
ENDMDL
MODEL 3
REMARK VINA RESULT: -7.264667576      2.058      3.129
REMARK  4 active torsions:
REMARK  status: ('A' for Active; 'I' for Inactive)
REMARK    1  A    between atoms: C7_7  and  C8_8 
REMARK    2  A    between atoms: C8_8  and  N1_9 
REMARK    3  A    between atoms: N1_9  and  C9_12 
REMARK    4  A    between atoms: C9_12  and  C10_13 
ROOT
HETATM    1  N1  UNL     1      22.356   3.101  61.521  1.00  0.00    -0.066 N 
ATOM      2  H11 UNL     1      23.173   2.786  60.998  1.00  0.00     0.277 HD
ATOM      3  H12 UNL     1      21.641   2.547  61.049  1.00  0.00     0.277 HD
ENDROOT
BRANCH   1   4
HETATM    4  C8  UNL     1      22.129   4.518  61.340  1.00  0.00     0.271 C 
BRANCH   4   5
HETATM    5  C7  UNL     1      21.760   4.738  59.916  1.00  0.00    -0.032 A 
HETATM    6  C6  UNL     1      20.435   4.868  59.506  1.00  0.00     0.015 A 
HETATM    7  C4  UNL     1      20.157   5.069  58.175  1.00  0.00    -0.061 A 
HETATM    8  C3  UNL     1      21.168   5.145  57.216  1.00  0.00     0.013 A 
HETATM    9  C5  UNL     1      18.728   5.209  57.746  1.00  0.00     0.048 C 
HETATM   10  C2  UNL     1      22.480   5.016  57.622  1.00  0.00    -0.061 A 
HETATM   11  C1  UNL     1      23.563   5.096  56.608  1.00  0.00     0.048 C 
HETATM   12  C14 UNL     1      22.744   4.816  58.952  1.00  0.00     0.015 A 
ENDBRANCH   4   5
ENDBRANCH   1   4
BRANCH   1  13
HETATM   13  C9  UNL     1      22.459   2.747  62.923  1.00  0.00     0.291 C 
BRANCH  13  14
HETATM   14  C10 UNL     1      21.095   2.665  63.487  1.00  0.00     0.060 A 
HETATM   15  C11 UNL     1      20.047   1.871  63.085  1.00  0.00     0.063 A 
HETATM   16  C12 UNL     1      18.968   2.155  63.932  1.00  0.00     0.074 A 
HETATM   17  C13 UNL     1      17.624   1.522  63.856  1.00  0.00     0.079 C 
HETATM   18  O1  UNL     1      19.402   3.061  64.759  1.00  0.00    -0.243 OA
HETATM   19  N2  UNL     1      20.638   3.380  64.528  1.00  0.00    -0.264 N 
ATOM     20  H2  UNL     1      21.179   4.067  65.055  1.00  0.00     0.194 HD
ENDBRANCH  13  14
ENDBRANCH   1  13
TORSDOF 4
ENDMDL
MODEL 4
REMARK VINA RESULT: -7.249800754      1.168      1.281
REMARK  4 active torsions:
REMARK  status: ('A' for Active; 'I' for Inactive)
REMARK    1  A    between atoms: C7_7  and  C8_8 
REMARK    2  A    between atoms: C8_8  and  N1_9 
REMARK    3  A    between atoms: N1_9  and  C9_12 
REMARK    4  A    between atoms: C9_12  and  C10_13 
ROOT
HETATM    1  N1  UNL     1      19.378   3.171  61.748  1.00  0.00    -0.066 N 
ATOM      2  H11 UNL     1      19.887   2.300  61.597  1.00  0.00     0.277 HD
ATOM      3  H12 UNL     1      18.752   3.131  60.943  1.00  0.00     0.277 HD
ENDROOT
BRANCH   1   4
HETATM    4  C8  UNL     1      20.258   4.317  61.673  1.00  0.00     0.271 C 
BRANCH   4   5
HETATM    5  C7  UNL     1      20.492   4.612  60.235  1.00  0.00    -0.032 A 
HETATM    6  C6  UNL     1      21.771   4.644  59.684  1.00  0.00     0.015 A 
HETATM    7  C4  UNL     1      21.924   4.925  58.347  1.00  0.00    -0.061 A 
HETATM    8  C3  UNL     1      20.829   5.181  57.520  1.00  0.00     0.013 A 
HETATM    9  C5  UNL     1      23.305   4.955  57.766  1.00  0.00     0.048 C 
HETATM   10  C2  UNL     1      19.563   5.149  58.065  1.00  0.00    -0.061 A 
HETATM   11  C1  UNL     1      18.391   5.420  57.192  1.00  0.00     0.048 C 
HETATM   12  C14 UNL     1      19.424   4.868  59.400  1.00  0.00     0.015 A 
ENDBRANCH   4   5
ENDBRANCH   1   4
BRANCH   1  13
HETATM   13  C9  UNL     1      18.638   3.140  62.995  1.00  0.00     0.291 C 
BRANCH  13  14
HETATM   14  C10 UNL     1      19.126   2.000  63.801  1.00  0.00     0.060 A 
HETATM   15  C11 UNL     1      20.322   1.870  64.466  1.00  0.00     0.063 A 
HETATM   16  C12 UNL     1      20.314   0.613  65.082  1.00  0.00     0.074 A 
HETATM   17  C13 UNL     1      21.416   0.054  65.910  1.00  0.00     0.079 C 
HETATM   18  O1  UNL     1      19.170   0.078  64.772  1.00  0.00    -0.243 OA
HETATM   19  N2  UNL     1      18.452   0.860  64.025  1.00  0.00    -0.264 N 
ATOM     20  H2  UNL     1      17.522   0.644  63.666  1.00  0.00     0.194 HD
ENDBRANCH  13  14
ENDBRANCH   1  13
TORSDOF 4
ENDMDL
MODEL 5
REMARK VINA RESULT: -7.234847748      2.078      2.475
REMARK  4 active torsions:
REMARK  status: ('A' for Active; 'I' for Inactive)
REMARK    1  A    between atoms: C7_7  and  C8_8 
REMARK    2  A    between atoms: C8_8  and  N1_9 
REMARK    3  A    between atoms: N1_9  and  C9_12 
REMARK    4  A    between atoms: C9_12  and  C10_13 
ROOT
HETATM    1  N1  UNL     1      22.407   3.061  61.553  1.00  0.00    -0.066 N 
ATOM      2  H11 UNL     1      23.235   2.751  61.045  1.00  0.00     0.277 HD
ATOM      3  H12 UNL     1      21.704   2.507  61.064  1.00  0.00     0.277 HD
ENDROOT
BRANCH   1   4
HETATM    4  C8  UNL     1      22.179   4.479  61.372  1.00  0.00     0.271 C 
BRANCH   4   5
HETATM    5  C7  UNL     1      21.866   4.706  59.937  1.00  0.00    -0.032 A 
HETATM    6  C6  UNL     1      22.861   4.797  58.967  1.00  0.00     0.015 A 
HETATM    7  C4  UNL     1      22.508   5.009  57.655  1.00  0.00    -0.061 A 
HETATM    8  C3  UNL     1      21.175   5.138  57.264  1.00  0.00     0.013 A 
HETATM    9  C5  UNL     1      23.589   5.104  56.620  1.00  0.00     0.048 C 
HETATM   10  C2  UNL     1      20.190   5.049  58.225  1.00  0.00    -0.061 A 
HETATM   11  C1  UNL     1      18.767   5.185  57.818  1.00  0.00     0.048 C 
HETATM   12  C14 UNL     1      20.554   4.837  59.529  1.00  0.00     0.015 A 
ENDBRANCH   4   5
ENDBRANCH   1   4
BRANCH   1  13
HETATM   13  C9  UNL     1      22.483   2.701  62.955  1.00  0.00     0.291 C 
BRANCH  13  14
HETATM   14  C10 UNL     1      21.110   2.646  63.500  1.00  0.00     0.060 A 
HETATM   15  C11 UNL     1      20.074   1.820  63.133  1.00  0.00     0.063 A 
HETATM   16  C12 UNL     1      18.979   2.151  63.941  1.00  0.00     0.074 A 
HETATM   17  C13 UNL     1      17.641   1.504  63.883  1.00  0.00     0.079 C 
HETATM   18  O1  UNL     1      19.392   3.112  64.714  1.00  0.00    -0.243 OA
HETATM   19  N2  UNL     1      20.630   3.425  64.484  1.00  0.00    -0.264 N 
ATOM     20  H2  UNL     1      21.157   4.149  64.973  1.00  0.00     0.194 HD
ENDBRANCH  13  14
ENDBRANCH   1  13
TORSDOF 4
ENDMDL
