MODEL 1
REMARK VINA RESULT: -6.669317040      0.000      0.000
REMARK  4 active torsions:
REMARK  status: ('A' for Active; 'I' for Inactive)
REMARK    1  A    between atoms: C2_2  and  C3_3 
REMARK    2  A    between atoms: C3_3  and  C4_4 
REMARK    3  A    between atoms: C5_5  and  N1_6 
REMARK    4  A    between atoms: C12_13  and  O1_14 
ROOT
HETATM    1  N1  UNL     1      22.113  -0.218  65.594  1.00  0.00    -0.279 N 
HETATM    2  C6  UNL     1      22.883  -0.353  64.503  1.00  0.00     0.118 A 
HETATM    3  C7  UNL     1      22.199   0.072  63.384  1.00  0.00     0.051 A 
HETATM    4  C8  UNL     1      20.967   0.475  63.847  1.00  0.00     0.060 A 
HETATM    5  C9  UNL     1      19.899   1.003  63.028  1.00  0.00    -0.008 A 
HETATM    6  C10 UNL     1      18.704   1.375  63.619  1.00  0.00     0.016 A 
HETATM    7  C11 UNL     1      17.652   1.884  62.885  1.00  0.00     0.037 A 
HETATM    8  C12 UNL     1      17.872   2.000  61.508  1.00  0.00     0.065 A 
HETATM    9  C13 UNL     1      19.049   1.634  60.923  1.00  0.00     0.037 A 
HETATM   10  C14 UNL     1      20.083   1.129  61.675  1.00  0.00     0.016 A 
HETATM   11  N2  UNL     1      20.965   0.281  65.190  1.00  0.00    -0.294 N 
ATOM     12  H2  UNL     1      20.178   0.494  65.804  1.00  0.00     0.187 HD
ENDROOT
BRANCH   1  13
HETATM   13  C5  UNL     1      22.443  -0.539  66.945  1.00  0.00     0.111 C 
HETATM   14  C4  UNL     1      23.579  -1.096  67.263  1.00  0.00    -0.007 C 
BRANCH  14  15
HETATM   15  C3  UNL     1      23.938  -1.434  68.652  1.00  0.00     0.028 C 
BRANCH  15  16
HETATM   16  C2  UNL     1      24.794  -2.681  68.663  1.00  0.00    -0.001 C 
HETATM   17  C1  UNL     1      25.294  -3.030  67.280  1.00  0.00     0.005 C 
ENDBRANCH  15  16
ENDBRANCH  14  15
ENDBRANCH   1  13
BRANCH   8  18
HETATM   18  O1  UNL     1      16.825   2.509  60.766  1.00  0.00    -0.361 OA
ATOM     19  H1  UNL     1      16.892   2.408  59.824  1.00  0.00     0.217 HD
ENDBRANCH   8  18
TORSDOF 4
ENDMDL
MODEL 2
REMARK VINA RESULT: -6.495708071      0.909      1.043
REMARK  4 active torsions:
REMARK  status: ('A' for Active; 'I' for Inactive)
REMARK    1  A    between atoms: C2_2  and  C3_3 
REMARK    2  A    between atoms: C3_3  and  C4_4 
REMARK    3  A    between atoms: C5_5  and  N1_6 
REMARK    4  A    between atoms: C12_13  and  O1_14 
ROOT
HETATM    1  N1  UNL     1      22.901   0.311  64.607  1.00  0.00    -0.279 N 
HETATM    2  C6  UNL     1      23.539   0.480  63.439  1.00  0.00     0.118 A 
HETATM    3  C7  UNL     1      22.651   0.887  62.466  1.00  0.00     0.051 A 
HETATM    4  C8  UNL     1      21.431   0.959  63.101  1.00  0.00     0.060 A 
HETATM    5  C9  UNL     1      20.186   1.347  62.475  1.00  0.00    -0.008 A 
HETATM    6  C10 UNL     1      19.025   1.380  63.228  1.00  0.00     0.016 A 
HETATM    7  C11 UNL     1      17.810   1.742  62.683  1.00  0.00     0.037 A 
HETATM    8  C12 UNL     1      17.829   2.073  61.323  1.00  0.00     0.065 A 
HETATM    9  C13 UNL     1      18.972   2.042  60.580  1.00  0.00     0.037 A 
HETATM   10  C14 UNL     1      20.171   1.678  61.145  1.00  0.00     0.016 A 
HETATM   11  N2  UNL     1      21.635   0.602  64.394  1.00  0.00    -0.294 N 
ATOM     12  H2  UNL     1      20.905   0.564  65.105  1.00  0.00     0.187 HD
ENDROOT
BRANCH   1  13
HETATM   13  C5  UNL     1      23.453  -0.099  65.856  1.00  0.00     0.111 C 
HETATM   14  C4  UNL     1      22.739  -0.716  66.757  1.00  0.00    -0.007 C 
BRANCH  14  15
HETATM   15  C3  UNL     1      23.292  -1.149  68.052  1.00  0.00     0.028 C 
BRANCH  15  16
HETATM   16  C2  UNL     1      24.649  -1.781  67.836  1.00  0.00    -0.001 C 
HETATM   17  C1  UNL     1      24.963  -2.810  68.898  1.00  0.00     0.005 C 
ENDBRANCH  15  16
ENDBRANCH  14  15
ENDBRANCH   1  13
BRANCH   8  18
HETATM   18  O1  UNL     1      16.618   2.438  60.770  1.00  0.00    -0.361 OA
ATOM     19  H1  UNL     1      16.543   3.341  60.486  1.00  0.00     0.217 HD
ENDBRANCH   8  18
TORSDOF 4
ENDMDL
MODEL 3
REMARK VINA RESULT: -6.478101219      3.375      4.883
REMARK  4 active torsions:
REMARK  status: ('A' for Active; 'I' for Inactive)
REMARK    1  A    between atoms: C2_2  and  C3_3 
REMARK    2  A    between atoms: C3_3  and  C4_4 
REMARK    3  A    between atoms: C5_5  and  N1_6 
REMARK    4  A    between atoms: C12_13  and  O1_14 
ROOT
HETATM    1  N1  UNL     1      19.707   2.743  63.510  1.00  0.00    -0.279 N 
HETATM    2  C6  UNL     1      18.427   2.909  63.143  1.00  0.00     0.118 A 
HETATM    3  C7  UNL     1      18.361   3.440  61.872  1.00  0.00     0.051 A 
HETATM    4  C8  UNL     1      19.672   3.592  61.479  1.00  0.00     0.060 A 
HETATM    5  C9  UNL     1      20.105   4.120  60.204  1.00  0.00    -0.008 A 
HETATM    6  C10 UNL     1      21.458   4.220  59.930  1.00  0.00     0.016 A 
HETATM    7  C11 UNL     1      21.927   4.718  58.731  1.00  0.00     0.037 A 
HETATM    8  C12 UNL     1      20.947   5.112  57.812  1.00  0.00     0.065 A 
HETATM    9  C13 UNL     1      19.613   5.013  58.080  1.00  0.00     0.037 A 
HETATM   10  C14 UNL     1      19.170   4.515  59.282  1.00  0.00     0.016 A 
HETATM   11  N2  UNL     1      20.447   3.156  62.503  1.00  0.00    -0.294 N 
ATOM     12  H2  UNL     1      21.467   3.149  62.493  1.00  0.00     0.187 HD
ENDROOT
BRANCH   1  13
HETATM   13  C5  UNL     1      20.205   2.222  64.741  1.00  0.00     0.111 C 
HETATM   14  C4  UNL     1      20.563   0.974  64.867  1.00  0.00    -0.007 C 
BRANCH  14  15
HETATM   15  C3  UNL     1      21.080   0.419  66.130  1.00  0.00     0.028 C 
BRANCH  15  16
HETATM   16  C2  UNL     1      22.263  -0.480  65.840  1.00  0.00    -0.001 C 
HETATM   17  C1  UNL     1      22.973  -0.897  67.107  1.00  0.00     0.005 C 
ENDBRANCH  15  16
ENDBRANCH  14  15
ENDBRANCH   1  13
BRANCH   8  18
HETATM   18  O1  UNL     1      21.407   5.609  56.609  1.00  0.00    -0.361 OA
ATOM     19  H1  UNL     1      21.418   6.555  56.525  1.00  0.00     0.217 HD
ENDBRANCH   8  18
TORSDOF 4
ENDMDL
MODEL 4
REMARK VINA RESULT: -6.388828153      4.796      6.656
REMARK  4 active torsions:
REMARK  status: ('A' for Active; 'I' for Inactive)
REMARK    1  A    between atoms: C2_2  and  C3_3 
REMARK    2  A    between atoms: C3_3  and  C4_4 
REMARK    3  A    between atoms: C5_5  and  N1_6 
REMARK    4  A    between atoms: C12_13  and  O1_14 
ROOT
HETATM    1  N1  UNL     1      20.238   3.746  62.001  1.00  0.00    -0.279 N 
HETATM    2  C6  UNL     1      19.158   4.106  61.291  1.00  0.00     0.118 A 
HETATM    3  C7  UNL     1      19.531   4.499  60.023  1.00  0.00     0.051 A 
HETATM    4  C8  UNL     1      20.901   4.360  59.993  1.00  0.00     0.060 A 
HETATM    5  C9  UNL     1      21.745   4.657  58.857  1.00  0.00    -0.008 A 
HETATM    6  C10 UNL     1      23.113   4.473  58.957  1.00  0.00     0.016 A 
HETATM    7  C11 UNL     1      23.966   4.741  57.905  1.00  0.00     0.037 A 
HETATM    8  C12 UNL     1      23.358   5.208  56.734  1.00  0.00     0.065 A 
HETATM    9  C13 UNL     1      22.010   5.390  56.633  1.00  0.00     0.037 A 
HETATM   10  C14 UNL     1      21.180   5.117  57.695  1.00  0.00     0.016 A 
HETATM   11  N2  UNL     1      21.280   3.902  61.212  1.00  0.00    -0.294 N 
ATOM     12  H2  UNL     1      22.244   3.704  61.481  1.00  0.00     0.187 HD
ENDROOT
BRANCH   1  13
HETATM   13  C5  UNL     1      20.286   3.279  63.348  1.00  0.00     0.111 C 
HETATM   14  C4  UNL     1      20.600   2.047  63.640  1.00  0.00    -0.007 C 
BRANCH  14  15
HETATM   15  C3  UNL     1      20.656   1.546  65.025  1.00  0.00     0.028 C 
BRANCH  15  16
HETATM   16  C2  UNL     1      20.253   0.088  65.051  1.00  0.00    -0.001 C 
HETATM   17  C1  UNL     1      18.908  -0.134  64.399  1.00  0.00     0.005 C 
ENDBRANCH  15  16
ENDBRANCH  14  15
ENDBRANCH   1  13
BRANCH   8  18
HETATM   18  O1  UNL     1      24.203   5.478  55.676  1.00  0.00    -0.361 OA
ATOM     19  H1  UNL     1      24.898   6.102  55.845  1.00  0.00     0.217 HD
ENDBRANCH   8  18
TORSDOF 4
ENDMDL
MODEL 5
REMARK VINA RESULT: -6.386180420      1.369      1.374
REMARK  4 active torsions:
REMARK  status: ('A' for Active; 'I' for Inactive)
REMARK    1  A    between atoms: C2_2  and  C3_3 
REMARK    2  A    between atoms: C3_3  and  C4_4 
REMARK    3  A    between atoms: C5_5  and  N1_6 
REMARK    4  A    between atoms: C12_13  and  O1_14 
ROOT
HETATM    1  N1  UNL     1      22.621  -0.184  66.190  1.00  0.00    -0.279 N 
HETATM    2  C6  UNL     1      23.548   0.427  65.436  1.00  0.00     0.118 A 
HETATM    3  C7  UNL     1      22.942   1.259  64.519  1.00  0.00     0.051 A 
HETATM    4  C8  UNL     1      21.592   1.126  64.751  1.00  0.00     0.060 A 
HETATM    5  C9  UNL     1      20.548   1.815  64.023  1.00  0.00    -0.008 A 
HETATM    6  C10 UNL     1      19.223   1.594  64.357  1.00  0.00     0.016 A 
HETATM    7  C11 UNL     1      18.187   2.223  63.696  1.00  0.00     0.037 A 
HETATM    8  C12 UNL     1      18.564   3.099  62.671  1.00  0.00     0.065 A 
HETATM    9  C13 UNL     1      19.869   3.318  62.341  1.00  0.00     0.037 A 
HETATM   10  C14 UNL     1      20.884   2.679  63.013  1.00  0.00     0.016 A 
HETATM   11  N2  UNL     1      21.448   0.244  65.771  1.00  0.00    -0.294 N 
ATOM     12  H2  UNL     1      20.552  -0.049  66.161  1.00  0.00     0.187 HD
ENDROOT
BRANCH   1  13
HETATM   13  C5  UNL     1      22.828  -1.117  67.248  1.00  0.00     0.111 C 
HETATM   14  C4  UNL     1      24.002  -1.301  67.786  1.00  0.00    -0.007 C 
BRANCH  14  15
HETATM   15  C3  UNL     1      24.235  -2.260  68.881  1.00  0.00     0.028 C 
BRANCH  15  16
HETATM   16  C2  UNL     1      25.529  -3.004  68.633  1.00  0.00    -0.001 C 
HETATM   17  C1  UNL     1      25.475  -3.813  67.358  1.00  0.00     0.005 C 
ENDBRANCH  15  16
ENDBRANCH  14  15
ENDBRANCH   1  13
BRANCH   8  18
HETATM   18  O1  UNL     1      17.535   3.733  62.006  1.00  0.00    -0.361 OA
ATOM     19  H1  UNL     1      17.787   4.433  61.416  1.00  0.00     0.217 HD
ENDBRANCH   8  18
TORSDOF 4
ENDMDL
