MODEL 1
REMARK VINA RESULT: -5.651539756      0.000      0.000
REMARK  5 active torsions:
REMARK  status: ('A' for Active; 'I' for Inactive)
REMARK    1  A    between atoms: N1_1  and  C1_4 
REMARK    2  A    between atoms: C2_9  and  O1_10 
REMARK    3  A    between atoms: O1_10  and  C3_11 
REMARK    4  A    between atoms: C3_11  and  C4_12 
REMARK    5  A    between atoms: C4_12  and  N4_13 
ROOT
HETATM    1  C1  UNL     1      16.757   6.530 -12.755  1.00  0.00     0.693 A 
HETATM    2  N2  UNL     1      15.669   6.151 -12.067  1.00  0.00    -0.129 N 
ATOM      3  H2  UNL     1      14.714   6.123 -12.422  1.00  0.00     0.205 HD
HETATM    4  N3  UNL     1      16.055   5.821 -10.849  1.00  0.00    -0.250 N 
ATOM      5  H3  UNL     1      15.436   5.494 -10.107  1.00  0.00     0.191 HD
HETATM    6  C2  UNL     1      17.393   5.982 -10.731  1.00  0.00     0.253 A 
HETATM    7  N5  UNL     1      17.833   6.424 -11.921  1.00  0.00    -0.153 N 
ATOM      8  H5  UNL     1      18.800   6.643 -12.160  1.00  0.00     0.188 HD
ENDROOT
BRANCH   6   9
HETATM    9  O1  UNL     1      18.175   5.742  -9.611  1.00  0.00    -0.319 OA
BRANCH   9  10
HETATM   10  C3  UNL     1      17.703   6.201  -8.348  1.00  0.00     0.206 C 
BRANCH  10  11
HETATM   11  C4  UNL     1      17.889   7.683  -8.194  1.00  0.00     0.256 C 
BRANCH  11  12
HETATM   12  N4  UNL     1      16.586   8.309  -8.310  1.00  0.00    -0.077 N 
ATOM     13  H43 UNL     1      16.093   8.043  -9.163  1.00  0.00     0.274 HD
ATOM     14  H42 UNL     1      15.908   7.941  -7.643  1.00  0.00     0.274 HD
ATOM     15  H41 UNL     1      16.715   9.318  -8.226  1.00  0.00     0.274 HD
ENDBRANCH  11  12
ENDBRANCH  10  11
ENDBRANCH   9  10
ENDBRANCH   6   9
BRANCH   1  16
HETATM   16  N1  UNL     1      16.792   6.925 -13.983  1.00  0.00    -0.233 N 
ATOM     17  H12 UNL     1      16.610   6.343 -14.800  1.00  0.00     0.174 HD
ATOM     18  H11 UNL     1      17.004   7.866 -14.314  1.00  0.00     0.174 HD
ENDBRANCH   1  16
TORSDOF 5
ENDMDL
MODEL 2
REMARK VINA RESULT: -5.472493974      1.553      4.420
REMARK  5 active torsions:
REMARK  status: ('A' for Active; 'I' for Inactive)
REMARK    1  A    between atoms: N1_1  and  C1_4 
REMARK    2  A    between atoms: C2_9  and  O1_10 
REMARK    3  A    between atoms: O1_10  and  C3_11 
REMARK    4  A    between atoms: C3_11  and  C4_12 
REMARK    5  A    between atoms: C4_12  and  N4_13 
ROOT
HETATM    1  C1  UNL     1      16.828   8.438  -8.092  1.00  0.00     0.693 A 
HETATM    2  N2  UNL     1      17.944   7.845  -7.643  1.00  0.00    -0.129 N 
ATOM      3  H2  UNL     1      18.421   8.049  -6.765  1.00  0.00     0.205 HD
HETATM    4  N3  UNL     1      18.317   6.952  -8.539  1.00  0.00    -0.250 N 
ATOM      5  H3  UNL     1      19.137   6.349  -8.460  1.00  0.00     0.191 HD
HETATM    6  C2  UNL     1      17.450   6.953  -9.578  1.00  0.00     0.253 A 
HETATM    7  N5  UNL     1      16.519   7.881  -9.299  1.00  0.00    -0.153 N 
ATOM      8  H5  UNL     1      15.723   8.127  -9.887  1.00  0.00     0.188 HD
ENDROOT
BRANCH   6   9
HETATM    9  O1  UNL     1      17.496   6.160 -10.714  1.00  0.00    -0.319 OA
BRANCH   9  10
HETATM   10  C3  UNL     1      16.279   5.910 -11.412  1.00  0.00     0.206 C 
BRANCH  10  11
HETATM   11  C4  UNL     1      16.514   5.717 -12.882  1.00  0.00     0.256 C 
BRANCH  11  12
HETATM   12  N4  UNL     1      17.273   6.855 -13.364  1.00  0.00    -0.077 N 
ATOM     13  H43 UNL     1      16.692   7.676 -13.532  1.00  0.00     0.274 HD
ATOM     14  H42 UNL     1      17.876   7.261 -12.648  1.00  0.00     0.274 HD
ATOM     15  H41 UNL     1      17.789   6.558 -14.193  1.00  0.00     0.274 HD
ENDBRANCH  11  12
ENDBRANCH  10  11
ENDBRANCH   9  10
ENDBRANCH   6   9
BRANCH   1  16
HETATM   16  N1  UNL     1      16.158   9.368  -7.498  1.00  0.00    -0.233 N 
ATOM     17  H12 UNL     1      15.488   9.228  -6.743  1.00  0.00     0.174 HD
ATOM     18  H11 UNL     1      16.198  10.368  -7.695  1.00  0.00     0.174 HD
ENDBRANCH   1  16
TORSDOF 5
ENDMDL
MODEL 3
REMARK VINA RESULT: -5.461452480      1.248      1.906
REMARK  5 active torsions:
REMARK  status: ('A' for Active; 'I' for Inactive)
REMARK    1  A    between atoms: N1_1  and  C1_4 
REMARK    2  A    between atoms: C2_9  and  O1_10 
REMARK    3  A    between atoms: O1_10  and  C3_11 
REMARK    4  A    between atoms: C3_11  and  C4_12 
REMARK    5  A    between atoms: C4_12  and  N4_13 
ROOT
HETATM    1  C1  UNL     1      17.630   6.732 -13.721  1.00  0.00     0.693 A 
HETATM    2  N2  UNL     1      18.947   6.495 -13.812  1.00  0.00    -0.129 N 
ATOM      3  H2  UNL     1      19.521   6.603 -14.648  1.00  0.00     0.205 HD
HETATM    4  N3  UNL     1      19.370   6.096 -12.627  1.00  0.00    -0.250 N 
ATOM      5  H3  UNL     1      20.333   5.845 -12.403  1.00  0.00     0.191 HD
HETATM    6  C2  UNL     1      18.336   6.069 -11.755  1.00  0.00     0.253 A 
HETATM    7  N5  UNL     1      17.248   6.467 -12.437  1.00  0.00    -0.153 N 
ATOM      8  H5  UNL     1      16.304   6.554 -12.062  1.00  0.00     0.188 HD
ENDROOT
BRANCH   6   9
HETATM    9  O1  UNL     1      18.371   5.706 -10.417  1.00  0.00    -0.319 OA
BRANCH   9  10
HETATM   10  C3  UNL     1      17.271   6.073  -9.590  1.00  0.00     0.206 C 
BRANCH  10  11
HETATM   11  C4  UNL     1      17.597   7.260  -8.730  1.00  0.00     0.256 C 
BRANCH  11  12
HETATM   12  N4  UNL     1      16.573   8.263  -8.949  1.00  0.00    -0.077 N 
ATOM     13  H43 UNL     1      15.630   7.906  -8.792  1.00  0.00     0.274 HD
ATOM     14  H42 UNL     1      16.565   8.985  -8.229  1.00  0.00     0.274 HD
ATOM     15  H41 UNL     1      16.702   8.642  -9.887  1.00  0.00     0.274 HD
ENDBRANCH  11  12
ENDBRANCH  10  11
ENDBRANCH   9  10
ENDBRANCH   6   9
BRANCH   1  16
HETATM   16  N1  UNL     1      16.854   7.138 -14.668  1.00  0.00    -0.233 N 
ATOM     17  H12 UNL     1      16.178   7.898 -14.598  1.00  0.00     0.174 HD
ATOM     18  H11 UNL     1      16.802   6.763 -15.616  1.00  0.00     0.174 HD
ENDBRANCH   1  16
TORSDOF 5
ENDMDL
MODEL 4
REMARK VINA RESULT: -5.458980461      1.251      1.846
REMARK  5 active torsions:
REMARK  status: ('A' for Active; 'I' for Inactive)
REMARK    1  A    between atoms: N1_1  and  C1_4 
REMARK    2  A    between atoms: C2_9  and  O1_10 
REMARK    3  A    between atoms: O1_10  and  C3_11 
REMARK    4  A    between atoms: C3_11  and  C4_12 
REMARK    5  A    between atoms: C4_12  and  N4_13 
ROOT
HETATM    1  C1  UNL     1      16.187   5.838 -11.455  1.00  0.00     0.693 A 
HETATM    2  N2  UNL     1      17.142   6.463 -12.160  1.00  0.00    -0.129 N 
ATOM      3  H2  UNL     1      17.165   6.572 -13.174  1.00  0.00     0.205 HD
HETATM    4  N3  UNL     1      18.046   6.910 -11.311  1.00  0.00    -0.250 N 
ATOM      5  H3  UNL     1      18.888   7.426 -11.569  1.00  0.00     0.191 HD
HETATM    6  C2  UNL     1      17.692   6.583 -10.047  1.00  0.00     0.253 A 
HETATM    7  N5  UNL     1      16.530   5.913 -10.135  1.00  0.00    -0.153 N 
ATOM      8  H5  UNL     1      15.998   5.528  -9.355  1.00  0.00     0.188 HD
ENDROOT
BRANCH   6   9
HETATM    9  O1  UNL     1      18.378   6.872  -8.877  1.00  0.00    -0.319 OA
BRANCH   9  10
HETATM   10  C3  UNL     1      17.688   7.571  -7.846  1.00  0.00     0.206 C 
BRANCH  10  11
HETATM   11  C4  UNL     1      16.895   8.723  -8.393  1.00  0.00     0.256 C 
BRANCH  11  12
HETATM   12  N4  UNL     1      16.021   9.202  -7.339  1.00  0.00    -0.077 N 
ATOM     13  H43 UNL     1      15.510  10.045  -7.601  1.00  0.00     0.274 HD
ATOM     14  H42 UNL     1      15.215   8.596  -7.187  1.00  0.00     0.274 HD
ATOM     15  H41 UNL     1      16.585   9.326  -6.498  1.00  0.00     0.274 HD
ENDBRANCH  11  12
ENDBRANCH  10  11
ENDBRANCH   9  10
ENDBRANCH   6   9
BRANCH   1  16
HETATM   16  N1  UNL     1      15.131   5.266 -11.927  1.00  0.00    -0.233 N 
ATOM     17  H12 UNL     1      15.066   4.295 -12.230  1.00  0.00     0.174 HD
ATOM     18  H11 UNL     1      14.215   5.696 -12.064  1.00  0.00     0.174 HD
ENDBRANCH   1  16
TORSDOF 5
ENDMDL
MODEL 5
REMARK VINA RESULT: -5.430280901      1.792      4.375
REMARK  5 active torsions:
REMARK  status: ('A' for Active; 'I' for Inactive)
REMARK    1  A    between atoms: N1_1  and  C1_4 
REMARK    2  A    between atoms: C2_9  and  O1_10 
REMARK    3  A    between atoms: O1_10  and  C3_11 
REMARK    4  A    between atoms: C3_11  and  C4_12 
REMARK    5  A    between atoms: C4_12  and  N4_13 
ROOT
HETATM    1  C1  UNL     1      17.688   6.119  -8.549  1.00  0.00     0.693 A 
HETATM    2  N2  UNL     1      17.201   7.366  -8.474  1.00  0.00    -0.129 N 
ATOM      3  H2  UNL     1      17.310   8.008  -7.689  1.00  0.00     0.205 HD
HETATM    4  N3  UNL     1      16.554   7.617  -9.597  1.00  0.00    -0.250 N 
ATOM      5  H3  UNL     1      16.080   8.493  -9.817  1.00  0.00     0.191 HD
HETATM    6  C2  UNL     1      16.612   6.538 -10.412  1.00  0.00     0.253 A 
HETATM    7  N5  UNL     1      17.320   5.601  -9.758  1.00  0.00    -0.153 N 
ATOM      8  H5  UNL     1      17.544   4.668 -10.104  1.00  0.00     0.188 HD
ENDROOT
BRANCH   6   9
HETATM    9  O1  UNL     1      16.057   6.406 -11.675  1.00  0.00    -0.319 OA
BRANCH   9  10
HETATM   10  C3  UNL     1      16.802   5.707 -12.669  1.00  0.00     0.206 C 
BRANCH  10  11
HETATM   11  C4  UNL     1      17.655   6.641 -13.478  1.00  0.00     0.256 C 
BRANCH  11  12
HETATM   12  N4  UNL     1      16.883   7.063 -14.631  1.00  0.00    -0.077 N 
ATOM     13  H43 UNL     1      16.034   6.511 -14.762  1.00  0.00     0.274 HD
ATOM     14  H42 UNL     1      16.435   7.970 -14.496  1.00  0.00     0.274 HD
ATOM     15  H41 UNL     1      17.498   7.043 -15.444  1.00  0.00     0.274 HD
ENDBRANCH  11  12
ENDBRANCH  10  11
ENDBRANCH   9  10
ENDBRANCH   6   9
BRANCH   1  16
HETATM   16  N1  UNL     1      18.379   5.507  -7.648  1.00  0.00    -0.233 N 
ATOM     17  H12 UNL     1      18.877   4.626  -7.776  1.00  0.00     0.174 HD
ATOM     18  H11 UNL     1      18.529   5.810  -6.685  1.00  0.00     0.174 HD
ENDBRANCH   1  16
TORSDOF 5
ENDMDL
