MODEL 1
REMARK VINA RESULT: -6.258119609      0.000      0.000
REMARK  6 active torsions:
REMARK  status: ('A' for Active; 'I' for Inactive)
REMARK    1  A    between atoms: N1_1  and  C1_5 
REMARK    2  A    between atoms: C1_5  and  C2_6 
REMARK    3  A    between atoms: C2_6  and  N2_7 
REMARK    4  A    between atoms: N2_7  and  C3_9 
REMARK    5  A    between atoms: C4_12  and  N4_13 
REMARK    6  A    between atoms: N4_13  and  N5_15 
ROOT
HETATM    1  C3  UNL     1      16.781   6.179 -10.534  1.00  0.00     0.707 A 
HETATM    2  N3  UNL     1      17.554   6.758 -11.467  1.00  0.00    -0.018 N 
ATOM      3  H3  UNL     1      18.395   7.310 -11.295  1.00  0.00     0.203 HD
HETATM    4  C4  UNL     1      17.023   6.482 -12.661  1.00  0.00     0.726 A 
HETATM    5  N6  UNL     1      15.928   5.732 -12.430  1.00  0.00    -0.116 N 
ATOM      6  H6  UNL     1      15.312   5.367 -13.155  1.00  0.00     0.206 HD
HETATM    7  N7  UNL     1      15.764   5.536 -11.134  1.00  0.00    -0.117 N 
ATOM      8  H7  UNL     1      15.019   5.007 -10.681  1.00  0.00     0.206 HD
ENDROOT
BRANCH   1   9
HETATM    9  N2  UNL     1      16.992   6.225  -9.117  1.00  0.00    -0.223 N 
ATOM     10  H2  UNL     1      16.398   5.672  -8.499  1.00  0.00     0.177 HD
BRANCH   9  11
HETATM   11  C2  UNL     1      18.040   7.049  -8.556  1.00  0.00     0.165 C 
BRANCH  11  12
HETATM   12  C1  UNL     1      17.411   8.162  -7.761  1.00  0.00     0.249 C 
BRANCH  12  13
HETATM   13  N1  UNL     1      16.498   8.864  -8.663  1.00  0.00    -0.078 N 
ATOM     14  H13 UNL     1      16.979   9.450  -9.345  1.00  0.00     0.274 HD
ATOM     15  H12 UNL     1      16.037   8.244  -9.329  1.00  0.00     0.274 HD
ATOM     16  H11 UNL     1      15.843   9.383  -8.077  1.00  0.00     0.274 HD
ENDBRANCH  12  13
ENDBRANCH  11  12
ENDBRANCH   9  11
ENDBRANCH   1   9
BRANCH   4  17
HETATM   17  N4  UNL     1      17.495   6.873 -13.786  1.00  0.00    -0.137 N 
ATOM     18  H4  UNL     1      18.506   6.959 -13.888  1.00  0.00     0.205 HD
BRANCH  17  19
HETATM   19  N5  UNL     1      16.685   7.187 -14.880  1.00  0.00    -0.331 N 
ATOM     20  H52 UNL     1      15.703   6.912 -14.833  1.00  0.00     0.177 HD
ATOM     21  H51 UNL     1      17.034   7.671 -15.707  1.00  0.00     0.177 HD
ENDBRANCH  17  19
ENDBRANCH   4  17
TORSDOF 6
ENDMDL
MODEL 2
REMARK VINA RESULT: -5.981494327      1.028      1.425
REMARK  6 active torsions:
REMARK  status: ('A' for Active; 'I' for Inactive)
REMARK    1  A    between atoms: N1_1  and  C1_5 
REMARK    2  A    between atoms: C1_5  and  C2_6 
REMARK    3  A    between atoms: C2_6  and  N2_7 
REMARK    4  A    between atoms: N2_7  and  C3_9 
REMARK    5  A    between atoms: C4_12  and  N4_13 
REMARK    6  A    between atoms: N4_13  and  N5_15 
ROOT
HETATM    1  C3  UNL     1      17.498   6.088 -10.959  1.00  0.00     0.707 A 
HETATM    2  N3  UNL     1      17.042   6.730 -12.047  1.00  0.00    -0.018 N 
ATOM      3  H3  UNL     1      16.177   7.266 -12.112  1.00  0.00     0.203 HD
HETATM    4  C4  UNL     1      17.927   6.540 -13.029  1.00  0.00     0.726 A 
HETATM    5  N6  UNL     1      18.913   5.779 -12.515  1.00  0.00    -0.116 N 
ATOM      6  H6  UNL     1      19.736   5.468 -13.032  1.00  0.00     0.206 HD
HETATM    7  N7  UNL     1      18.667   5.493 -11.249  1.00  0.00    -0.117 N 
ATOM      8  H7  UNL     1      19.246   4.935 -10.621  1.00  0.00     0.206 HD
ENDROOT
BRANCH   1   9
HETATM    9  N2  UNL     1      16.853   6.034  -9.680  1.00  0.00    -0.223 N 
ATOM     10  H2  UNL     1      15.842   5.911  -9.628  1.00  0.00     0.177 HD
BRANCH   9  11
HETATM   11  C2  UNL     1      17.623   6.153  -8.462  1.00  0.00     0.165 C 
BRANCH  11  12
HETATM   12  C1  UNL     1      17.844   7.614  -8.166  1.00  0.00     0.249 C 
BRANCH  12  13
HETATM   13  N1  UNL     1      16.578   8.296  -8.436  1.00  0.00    -0.078 N 
ATOM     14  H13 UNL     1      15.941   8.290  -7.640  1.00  0.00     0.274 HD
ATOM     15  H12 UNL     1      16.677   9.309  -8.513  1.00  0.00     0.274 HD
ATOM     16  H11 UNL     1      16.182   7.866  -9.271  1.00  0.00     0.274 HD
ENDBRANCH  12  13
ENDBRANCH  11  12
ENDBRANCH   9  11
ENDBRANCH   1   9
BRANCH   4  17
HETATM   17  N4  UNL     1      17.823   7.008 -14.217  1.00  0.00    -0.137 N 
ATOM     18  H4  UNL     1      18.671   7.297 -14.703  1.00  0.00     0.205 HD
BRANCH  17  19
HETATM   19  N5  UNL     1      16.599   7.139 -14.875  1.00  0.00    -0.331 N 
ATOM     20  H52 UNL     1      15.751   7.009 -14.323  1.00  0.00     0.177 HD
ATOM     21  H51 UNL     1      16.525   7.356 -15.869  1.00  0.00     0.177 HD
ENDBRANCH  17  19
ENDBRANCH   4  17
TORSDOF 6
ENDMDL
MODEL 3
REMARK VINA RESULT: -5.933472026      1.019      4.680
REMARK  6 active torsions:
REMARK  status: ('A' for Active; 'I' for Inactive)
REMARK    1  A    between atoms: N1_1  and  C1_5 
REMARK    2  A    between atoms: C1_5  and  C2_6 
REMARK    3  A    between atoms: C2_6  and  N2_7 
REMARK    4  A    between atoms: N2_7  and  C3_9 
REMARK    5  A    between atoms: C4_12  and  N4_13 
REMARK    6  A    between atoms: N4_13  and  N5_15 
ROOT
HETATM    1  C3  UNL     1      16.678   6.328 -10.307  1.00  0.00     0.707 A 
HETATM    2  N3  UNL     1      16.416   7.488  -9.684  1.00  0.00    -0.018 N 
ATOM      3  H3  UNL     1      15.738   8.191  -9.979  1.00  0.00     0.203 HD
HETATM    4  C4  UNL     1      17.203   7.556  -8.608  1.00  0.00     0.726 A 
HETATM    5  N6  UNL     1      17.935   6.426  -8.595  1.00  0.00    -0.116 N 
ATOM      6  H6  UNL     1      18.631   6.192  -7.887  1.00  0.00     0.206 HD
HETATM    7  N7  UNL     1      17.627   5.662  -9.628  1.00  0.00    -0.117 N 
ATOM      8  H7  UNL     1      18.028   4.753  -9.863  1.00  0.00     0.206 HD
ENDROOT
BRANCH   1   9
HETATM    9  N2  UNL     1      16.053   5.856 -11.508  1.00  0.00    -0.223 N 
ATOM     10  H2  UNL     1      15.035   5.837 -11.575  1.00  0.00     0.177 HD
BRANCH   9  11
HETATM   11  C2  UNL     1      16.852   5.405 -12.626  1.00  0.00     0.165 C 
BRANCH  11  12
HETATM   12  C1  UNL     1      17.681   6.558 -13.127  1.00  0.00     0.249 C 
BRANCH  12  13
HETATM   13  N1  UNL     1      16.983   7.109 -14.288  1.00  0.00    -0.078 N 
ATOM     14  H13 UNL     1      17.518   7.032 -15.153  1.00  0.00     0.274 HD
ATOM     15  H12 UNL     1      16.184   6.546 -14.581  1.00  0.00     0.274 HD
ATOM     16  H11 UNL     1      16.733   8.071 -14.055  1.00  0.00     0.274 HD
ENDBRANCH  12  13
ENDBRANCH  11  12
ENDBRANCH   9  11
ENDBRANCH   1   9
BRANCH   4  17
HETATM   17  N4  UNL     1      17.228   8.526  -7.771  1.00  0.00    -0.137 N 
ATOM     18  H4  UNL     1      18.121   8.790  -7.355  1.00  0.00     0.205 HD
BRANCH  17  19
HETATM   19  N5  UNL     1      16.084   9.239  -7.404  1.00  0.00    -0.331 N 
ATOM     20  H52 UNL     1      15.430   9.493  -8.143  1.00  0.00     0.177 HD
ATOM     21  H51 UNL     1      15.885   9.508  -6.440  1.00  0.00     0.177 HD
ENDBRANCH  17  19
ENDBRANCH   4  17
TORSDOF 6
ENDMDL
MODEL 4
REMARK VINA RESULT: -5.924663305      1.443      4.841
REMARK  6 active torsions:
REMARK  status: ('A' for Active; 'I' for Inactive)
REMARK    1  A    between atoms: N1_1  and  C1_5 
REMARK    2  A    between atoms: C1_5  and  C2_6 
REMARK    3  A    between atoms: C2_6  and  N2_7 
REMARK    4  A    between atoms: N2_7  and  C3_9 
REMARK    5  A    between atoms: C4_12  and  N4_13 
REMARK    6  A    between atoms: N4_13  and  N5_15 
ROOT
HETATM    1  C3  UNL     1      16.646   6.531 -10.360  1.00  0.00     0.707 A 
HETATM    2  N3  UNL     1      17.366   5.615  -9.692  1.00  0.00    -0.018 N 
ATOM      3  H3  UNL     1      17.619   4.686 -10.028  1.00  0.00     0.203 HD
HETATM    4  C4  UNL     1      17.689   6.140  -8.507  1.00  0.00     0.726 A 
HETATM    5  N6  UNL     1      17.157   7.376  -8.477  1.00  0.00    -0.116 N 
ATOM      6  H6  UNL     1      17.238   8.025  -7.694  1.00  0.00     0.206 HD
HETATM    7  N7  UNL     1      16.515   7.633  -9.603  1.00  0.00    -0.117 N 
ATOM      8  H7  UNL     1      16.020   8.492  -9.847  1.00  0.00     0.206 HD
ENDROOT
BRANCH   1   9
HETATM    9  N2  UNL     1      16.098   6.377 -11.675  1.00  0.00    -0.223 N 
ATOM     10  H2  UNL     1      15.185   6.776 -11.892  1.00  0.00     0.177 HD
BRANCH   9  11
HETATM   11  C2  UNL     1      16.828   5.661 -12.698  1.00  0.00     0.165 C 
BRANCH  11  12
HETATM   12  C1  UNL     1      17.626   6.649 -13.508  1.00  0.00     0.249 C 
BRANCH  12  13
HETATM   13  N1  UNL     1      16.789   7.040 -14.642  1.00  0.00    -0.078 N 
ATOM     14  H13 UNL     1      17.216   7.758 -15.228  1.00  0.00     0.274 HD
ATOM     15  H12 UNL     1      16.718   6.316 -15.357  1.00  0.00     0.274 HD
ATOM     16  H11 UNL     1      15.885   7.319 -14.261  1.00  0.00     0.274 HD
ENDBRANCH  12  13
ENDBRANCH  11  12
ENDBRANCH   9  11
ENDBRANCH   1   9
BRANCH   4  17
HETATM   17  N4  UNL     1      18.376   5.549  -7.601  1.00  0.00    -0.137 N 
ATOM     18  H4  UNL     1      18.676   6.086  -6.788  1.00  0.00     0.205 HD
BRANCH  17  19
HETATM   19  N5  UNL     1      18.734   4.201  -7.679  1.00  0.00    -0.331 N 
ATOM     20  H52 UNL     1      18.446   3.685  -8.511  1.00  0.00     0.177 HD
ATOM     21  H51 UNL     1      19.261   3.725  -6.947  1.00  0.00     0.177 HD
ENDBRANCH  17  19
ENDBRANCH   4  17
TORSDOF 6
ENDMDL
MODEL 5
REMARK VINA RESULT: -5.758416406      1.423      4.651
REMARK  6 active torsions:
REMARK  status: ('A' for Active; 'I' for Inactive)
REMARK    1  A    between atoms: N1_1  and  C1_5 
REMARK    2  A    between atoms: C1_5  and  C2_6 
REMARK    3  A    between atoms: C2_6  and  N2_7 
REMARK    4  A    between atoms: N2_7  and  C3_9 
REMARK    5  A    between atoms: C4_12  and  N4_13 
REMARK    6  A    between atoms: N4_13  and  N5_15 
ROOT
HETATM    1  C3  UNL     1      17.819   6.189 -10.499  1.00  0.00     0.707 A 
HETATM    2  N3  UNL     1      17.330   7.435 -10.401  1.00  0.00    -0.018 N 
ATOM      3  H3  UNL     1      17.236   8.108 -11.161  1.00  0.00     0.203 HD
HETATM    4  C4  UNL     1      16.989   7.636  -9.125  1.00  0.00     0.726 A 
HETATM    5  N6  UNL     1      17.278   6.497  -8.466  1.00  0.00    -0.116 N 
ATOM      6  H6  UNL     1      17.126   6.348  -7.469  1.00  0.00     0.206 HD
HETATM    7  N7  UNL     1      17.788   5.600  -9.292  1.00  0.00    -0.117 N 
ATOM      8  H7  UNL     1      18.095   4.655  -9.060  1.00  0.00     0.206 HD
ENDROOT
BRANCH   1   9
HETATM    9  N2  UNL     1      18.303   5.565 -11.696  1.00  0.00    -0.223 N 
ATOM     10  H2  UNL     1      18.678   4.618 -11.657  1.00  0.00     0.177 HD
BRANCH   9  11
HETATM   11  C2  UNL     1      18.262   6.268 -12.960  1.00  0.00     0.165 C 
BRANCH  11  12
HETATM   12  C1  UNL     1      16.841   6.289 -13.459  1.00  0.00     0.249 C 
BRANCH  12  13
HETATM   13  N1  UNL     1      16.836   7.080 -14.689  1.00  0.00    -0.078 N 
ATOM     14  H13 UNL     1      16.099   7.785 -14.711  1.00  0.00     0.274 HD
ATOM     15  H12 UNL     1      17.628   7.720 -14.759  1.00  0.00     0.274 HD
ATOM     16  H11 UNL     1      16.783   6.420 -15.466  1.00  0.00     0.274 HD
ENDBRANCH  12  13
ENDBRANCH  11  12
ENDBRANCH   9  11
ENDBRANCH   1   9
BRANCH   4  17
HETATM   17  N4  UNL     1      16.485   8.717  -8.657  1.00  0.00    -0.137 N 
ATOM     18  H4  UNL     1      16.362   9.510  -9.286  1.00  0.00     0.205 HD
BRANCH  17  19
HETATM   19  N5  UNL     1      16.097   8.857  -7.323  1.00  0.00    -0.331 N 
ATOM     20  H52 UNL     1      15.104   8.995  -7.133  1.00  0.00     0.177 HD
ATOM     21  H51 UNL     1      16.759   8.827  -6.548  1.00  0.00     0.177 HD
ENDBRANCH  17  19
ENDBRANCH   4  17
TORSDOF 6
ENDMDL
