MODEL 1
REMARK VINA RESULT: -5.863639723      0.000      0.000
REMARK  6 active torsions:
REMARK  status: ('A' for Active; 'I' for Inactive)
REMARK    1  A    between atoms: N1_1  and  C1_5 
REMARK    2  A    between atoms: C1_5  and  C2_6 
REMARK    3  A    between atoms: C2_6  and  N2_7 
REMARK    4  A    between atoms: C2_6  and  C3_11 
REMARK    5  A    between atoms: C3_11  and  C4_12 
REMARK    6  A    between atoms: C5_17  and  N5_18 
ROOT
HETATM    1  C4  UNL     1      17.590   6.087 -11.176  1.00  0.00     0.305 C 
HETATM    2  N3  UNL     1      16.175   6.313 -11.078  1.00  0.00    -0.307 N 
ATOM      3  H3  UNL     1      15.653   6.381 -10.205  1.00  0.00     0.182 HD
HETATM    4  N4  UNL     1      15.675   6.414 -12.229  1.00  0.00    -0.286 N 
ATOM      5  H4  UNL     1      14.687   6.576 -12.425  1.00  0.00     0.184 HD
HETATM    6  C5  UNL     1      16.699   6.267 -13.226  1.00  0.00     0.499 C 
HETATM    7  N6  UNL     1      17.880   6.712 -12.467  1.00  0.00    -0.006 N 
ATOM      8  H61 UNL     1      18.787   6.488 -12.879  1.00  0.00     0.284 HD
ATOM      9  H62 UNL     1      18.048   7.717 -12.449  1.00  0.00     0.284 HD
ENDROOT
BRANCH   1  10
HETATM   10  C3  UNL     1      18.359   6.747 -10.054  1.00  0.00     0.090 C 
BRANCH  10  11
HETATM   11  C2  UNL     1      17.517   6.611  -8.803  1.00  0.00     0.212 C 
BRANCH  11  12
HETATM   12  C1  UNL     1      17.407   7.923  -8.058  1.00  0.00     0.262 C 
BRANCH  12  13
HETATM   13  N1  UNL     1      16.481   8.802  -8.705  1.00  0.00    -0.077 N 
ATOM     14  H13 UNL     1      16.870   9.194  -9.563  1.00  0.00     0.274 HD
ATOM     15  H12 UNL     1      15.697   8.291  -9.112  1.00  0.00     0.274 HD
ATOM     16  H11 UNL     1      16.165   9.532  -8.067  1.00  0.00     0.274 HD
ENDBRANCH  12  13
ENDBRANCH  11  12
BRANCH  11  17
HETATM   17  N2  UNL     1      18.104   5.584  -7.991  1.00  0.00    -0.073 N 
ATOM     18  H23 UNL     1      18.830   5.963  -7.382  1.00  0.00     0.274 HD
ATOM     19  H22 UNL     1      17.452   5.256  -7.279  1.00  0.00     0.274 HD
ATOM     20  H21 UNL     1      18.458   4.812  -8.554  1.00  0.00     0.274 HD
ENDBRANCH  11  17
ENDBRANCH  10  11
ENDBRANCH   1  10
BRANCH   6  21
HETATM   21  N5  UNL     1      16.475   7.054 -14.396  1.00  0.00    -0.031 N 
ATOM     22  H53 UNL     1      15.532   7.441 -14.395  1.00  0.00     0.279 HD
ATOM     23  H52 UNL     1      17.015   7.919 -14.357  1.00  0.00     0.279 HD
ATOM     24  H51 UNL     1      16.658   6.554 -15.265  1.00  0.00     0.279 HD
ENDBRANCH   6  21
TORSDOF 6
ENDMDL
MODEL 2
REMARK VINA RESULT: -5.476095338      1.013      1.865
REMARK  6 active torsions:
REMARK  status: ('A' for Active; 'I' for Inactive)
REMARK    1  A    between atoms: N1_1  and  C1_5 
REMARK    2  A    between atoms: C1_5  and  C2_6 
REMARK    3  A    between atoms: C2_6  and  N2_7 
REMARK    4  A    between atoms: C2_6  and  C3_11 
REMARK    5  A    between atoms: C3_11  and  C4_12 
REMARK    6  A    between atoms: C5_17  and  N5_18 
ROOT
HETATM    1  C4  UNL     1      17.148   5.702 -11.151  1.00  0.00     0.305 C 
HETATM    2  N3  UNL     1      16.088   5.329 -12.044  1.00  0.00    -0.307 N 
ATOM      3  H3  UNL     1      15.233   4.845 -11.769  1.00  0.00     0.182 HD
HETATM    4  N4  UNL     1      16.369   5.686 -13.219  1.00  0.00    -0.286 N 
ATOM      5  H4  UNL     1      15.776   5.534 -14.035  1.00  0.00     0.184 HD
HETATM    6  C5  UNL     1      17.649   6.339 -13.241  1.00  0.00     0.499 C 
HETATM    7  N6  UNL     1      17.718   6.848 -11.861  1.00  0.00    -0.006 N 
ATOM      8  H61 UNL     1      18.636   7.160 -11.545  1.00  0.00     0.284 HD
ATOM      9  H62 UNL     1      17.267   7.747 -11.693  1.00  0.00     0.284 HD
ENDROOT
BRANCH   1  10
HETATM   10  C3  UNL     1      16.638   6.095  -9.783  1.00  0.00     0.090 C 
BRANCH  10  11
HETATM   11  C2  UNL     1      17.403   7.332  -9.365  1.00  0.00     0.212 C 
BRANCH  11  12
HETATM   12  C1  UNL     1      18.268   7.072  -8.151  1.00  0.00     0.262 C 
BRANCH  12  13
HETATM   13  N1  UNL     1      18.154   5.710  -7.725  1.00  0.00    -0.077 N 
ATOM     14  H13 UNL     1      17.268   5.537  -7.251  1.00  0.00     0.274 HD
ATOM     15  H12 UNL     1      18.032   5.077  -8.516  1.00  0.00     0.274 HD
ATOM     16  H11 UNL     1      18.950   5.442  -7.147  1.00  0.00     0.274 HD
ENDBRANCH  12  13
ENDBRANCH  11  12
BRANCH  11  17
HETATM   17  N2  UNL     1      16.449   8.376  -9.126  1.00  0.00    -0.073 N 
ATOM     18  H23 UNL     1      15.971   8.245  -8.235  1.00  0.00     0.274 HD
ATOM     19  H22 UNL     1      16.911   9.264  -8.931  1.00  0.00     0.274 HD
ATOM     20  H21 UNL     1      15.784   8.466  -9.894  1.00  0.00     0.274 HD
ENDBRANCH  11  17
ENDBRANCH  10  11
ENDBRANCH   1  10
BRANCH   6  21
HETATM   21  N5  UNL     1      17.742   7.382 -14.212  1.00  0.00    -0.031 N 
ATOM     22  H53 UNL     1      18.077   7.016 -15.103  1.00  0.00     0.279 HD
ATOM     23  H52 UNL     1      16.813   7.695 -14.494  1.00  0.00     0.279 HD
ATOM     24  H51 UNL     1      18.311   8.172 -13.909  1.00  0.00     0.279 HD
ENDBRANCH   6  21
TORSDOF 6
ENDMDL
MODEL 3
REMARK VINA RESULT: -5.256075361      1.185      4.472
REMARK  6 active torsions:
REMARK  status: ('A' for Active; 'I' for Inactive)
REMARK    1  A    between atoms: N1_1  and  C1_5 
REMARK    2  A    between atoms: C1_5  and  C2_6 
REMARK    3  A    between atoms: C2_6  and  N2_7 
REMARK    4  A    between atoms: C2_6  and  C3_11 
REMARK    5  A    between atoms: C3_11  and  C4_12 
REMARK    6  A    between atoms: C5_17  and  N5_18 
ROOT
HETATM    1  C4  UNL     1      17.208   6.065 -10.284  1.00  0.00     0.305 C 
HETATM    2  N3  UNL     1      17.921   5.329  -9.278  1.00  0.00    -0.307 N 
ATOM      3  H3  UNL     1      18.328   4.403  -9.408  1.00  0.00     0.182 HD
HETATM    4  N4  UNL     1      17.971   5.997  -8.211  1.00  0.00    -0.286 N 
ATOM      5  H4  UNL     1      18.423   5.690  -7.350  1.00  0.00     0.184 HD
HETATM    6  C5  UNL     1      17.297   7.253  -8.385  1.00  0.00     0.499 C 
HETATM    7  N6  UNL     1      17.441   7.439  -9.838  1.00  0.00    -0.006 N 
ATOM      8  H61 UNL     1      16.846   8.153 -10.259  1.00  0.00     0.284 HD
ATOM      9  H62 UNL     1      18.312   7.869 -10.150  1.00  0.00     0.284 HD
ENDROOT
BRANCH   1  10
HETATM   10  C3  UNL     1      17.761   5.830 -11.671  1.00  0.00     0.090 C 
BRANCH  10  11
HETATM   11  C2  UNL     1      16.585   5.500 -12.565  1.00  0.00     0.212 C 
BRANCH  11  12
HETATM   12  C1  UNL     1      16.499   6.441 -13.747  1.00  0.00     0.262 C 
BRANCH  12  13
HETATM   13  N1  UNL     1      17.731   7.146 -13.929  1.00  0.00    -0.077 N 
ATOM     14  H13 UNL     1      17.574   8.111 -14.221  1.00  0.00     0.274 HD
ATOM     15  H12 UNL     1      18.197   7.327 -13.040  1.00  0.00     0.274 HD
ATOM     16  H11 UNL     1      18.341   6.650 -14.579  1.00  0.00     0.274 HD
ENDBRANCH  12  13
ENDBRANCH  11  12
BRANCH  11  17
HETATM   17  N2  UNL     1      15.398   5.545 -11.760  1.00  0.00    -0.073 N 
ATOM     18  H23 UNL     1      15.625   5.624 -10.769  1.00  0.00     0.274 HD
ATOM     19  H22 UNL     1      14.901   6.427 -11.882  1.00  0.00     0.274 HD
ATOM     20  H21 UNL     1      14.788   4.748 -11.939  1.00  0.00     0.274 HD
ENDBRANCH  11  17
ENDBRANCH  10  11
ENDBRANCH   1  10
BRANCH   6  21
HETATM   21  N5  UNL     1      17.878   8.322  -7.638  1.00  0.00    -0.031 N 
ATOM     22  H53 UNL     1      17.951   9.163  -8.210  1.00  0.00     0.279 HD
ATOM     23  H52 UNL     1      17.230   8.657  -6.924  1.00  0.00     0.279 HD
ATOM     24  H51 UNL     1      18.780   8.088  -7.225  1.00  0.00     0.279 HD
ENDBRANCH   6  21
TORSDOF 6
ENDMDL
MODEL 4
REMARK VINA RESULT: -5.226799322      1.351      2.439
REMARK  6 active torsions:
REMARK  status: ('A' for Active; 'I' for Inactive)
REMARK    1  A    between atoms: N1_1  and  C1_5 
REMARK    2  A    between atoms: C1_5  and  C2_6 
REMARK    3  A    between atoms: C2_6  and  N2_7 
REMARK    4  A    between atoms: C2_6  and  C3_11 
REMARK    5  A    between atoms: C3_11  and  C4_12 
REMARK    6  A    between atoms: C5_17  and  N5_18 
ROOT
HETATM    1  C4  UNL     1      17.206   5.648 -11.253  1.00  0.00     0.305 C 
HETATM    2  N3  UNL     1      17.004   6.729 -12.176  1.00  0.00    -0.307 N 
ATOM      3  H3  UNL     1      16.205   7.363 -12.169  1.00  0.00     0.182 HD
HETATM    4  N4  UNL     1      17.957   6.779 -12.998  1.00  0.00    -0.286 N 
ATOM      5  H4  UNL     1      18.044   7.459 -13.753  1.00  0.00     0.184 HD
HETATM    6  C5  UNL     1      18.905   5.737 -12.715  1.00  0.00     0.499 C 
HETATM    7  N6  UNL     1      18.666   5.536 -11.276  1.00  0.00    -0.006 N 
ATOM      8  H61 UNL     1      19.056   4.685 -10.872  1.00  0.00     0.284 HD
ATOM      9  H62 UNL     1      19.171   6.160 -10.647  1.00  0.00     0.284 HD
ENDROOT
BRANCH   1  10
HETATM   10  C3  UNL     1      16.696   5.970  -9.867  1.00  0.00     0.090 C 
BRANCH  10  11
HETATM   11  C2  UNL     1      17.429   7.210  -9.404  1.00  0.00     0.212 C 
BRANCH  11  12
HETATM   12  C1  UNL     1      18.202   6.959  -8.128  1.00  0.00     0.262 C 
BRANCH  12  13
HETATM   13  N1  UNL     1      18.131   5.580  -7.750  1.00  0.00    -0.077 N 
ATOM     14  H13 UNL     1      18.430   5.438  -6.786  1.00  0.00     0.274 HD
ATOM     15  H12 UNL     1      17.165   5.263  -7.661  1.00  0.00     0.274 HD
ATOM     16  H11 UNL     1      18.660   4.997  -8.399  1.00  0.00     0.274 HD
ENDBRANCH  12  13
ENDBRANCH  11  12
BRANCH  11  17
HETATM   17  N2  UNL     1      16.460   8.256  -9.243  1.00  0.00    -0.073 N 
ATOM     18  H23 UNL     1      15.678   8.140  -9.888  1.00  0.00     0.274 HD
ATOM     19  H22 UNL     1      15.956   8.162  -8.361  1.00  0.00     0.274 HD
ATOM     20  H21 UNL     1      16.881   9.180  -9.332  1.00  0.00     0.274 HD
ENDBRANCH  11  17
ENDBRANCH  10  11
ENDBRANCH   1  10
BRANCH   6  21
HETATM   21  N5  UNL     1      20.256   6.101 -12.998  1.00  0.00    -0.031 N 
ATOM     22  H53 UNL     1      20.822   5.272 -13.180  1.00  0.00     0.279 HD
ATOM     23  H52 UNL     1      20.323   6.557 -13.908  1.00  0.00     0.279 HD
ATOM     24  H51 UNL     1      20.684   6.677 -12.273  1.00  0.00     0.279 HD
ENDBRANCH   6  21
TORSDOF 6
ENDMDL
MODEL 5
REMARK VINA RESULT: -5.210887850      1.495      4.663
REMARK  6 active torsions:
REMARK  status: ('A' for Active; 'I' for Inactive)
REMARK    1  A    between atoms: N1_1  and  C1_5 
REMARK    2  A    between atoms: C1_5  and  C2_6 
REMARK    3  A    between atoms: C2_6  and  N2_7 
REMARK    4  A    between atoms: C2_6  and  C3_11 
REMARK    5  A    between atoms: C3_11  and  C4_12 
REMARK    6  A    between atoms: C5_17  and  N5_18 
ROOT
HETATM    1  C4  UNL     1      16.983   6.681 -10.588  1.00  0.00     0.305 C 
HETATM    2  N3  UNL     1      16.432   7.557  -9.593  1.00  0.00    -0.307 N 
ATOM      3  H3  UNL     1      15.687   8.234  -9.757  1.00  0.00     0.182 HD
HETATM    4  N4  UNL     1      17.004   7.367  -8.487  1.00  0.00    -0.286 N 
ATOM      5  H4  UNL     1      16.791   7.867  -7.625  1.00  0.00     0.184 HD
HETATM    6  C5  UNL     1      18.001   6.341  -8.620  1.00  0.00     0.499 C 
HETATM    7  N6  UNL     1      17.454   5.575  -9.752  1.00  0.00    -0.006 N 
ATOM      8  H61 UNL     1      18.094   4.918 -10.198  1.00  0.00     0.284 HD
ATOM      9  H62 UNL     1      16.761   4.865  -9.518  1.00  0.00     0.284 HD
ENDROOT
BRANCH   1  10
HETATM   10  C3  UNL     1      15.946   6.218 -11.587  1.00  0.00     0.090 C 
BRANCH  10  11
HETATM   11  C2  UNL     1      16.692   5.528 -12.709  1.00  0.00     0.212 C 
BRANCH  11  12
HETATM   12  C1  UNL     1      17.450   6.516 -13.568  1.00  0.00     0.262 C 
BRANCH  12  13
HETATM   13  N1  UNL     1      16.623   7.013 -14.625  1.00  0.00    -0.077 N 
ATOM     14  H13 UNL     1      16.160   6.257 -15.128  1.00  0.00     0.274 HD
ATOM     15  H12 UNL     1      15.795   7.489 -14.265  1.00  0.00     0.274 HD
ATOM     16  H11 UNL     1      17.157   7.613 -15.254  1.00  0.00     0.274 HD
ENDBRANCH  12  13
ENDBRANCH  11  12
BRANCH  11  17
HETATM   17  N2  UNL     1      15.737   4.779 -13.474  1.00  0.00    -0.073 N 
ATOM     18  H23 UNL     1      15.458   3.927 -12.987  1.00  0.00     0.274 HD
ATOM     19  H22 UNL     1      14.833   5.251 -13.503  1.00  0.00     0.274 HD
ATOM     20  H21 UNL     1      16.079   4.575 -14.412  1.00  0.00     0.274 HD
ENDBRANCH  11  17
ENDBRANCH  10  11
ENDBRANCH   1  10
BRANCH   6  21
HETATM   21  N5  UNL     1      18.159   5.542  -7.447  1.00  0.00    -0.031 N 
ATOM     22  H53 UNL     1      18.849   4.808  -7.602  1.00  0.00     0.279 HD
ATOM     23  H52 UNL     1      18.633   6.069  -6.713  1.00  0.00     0.279 HD
ATOM     24  H51 UNL     1      17.285   5.148  -7.101  1.00  0.00     0.279 HD
ENDBRANCH   6  21
TORSDOF 6
ENDMDL
