MODEL 1
REMARK VINA RESULT: -6.212899078      0.000      0.000
REMARK  5 active torsions:
REMARK  status: ('A' for Active; 'I' for Inactive)
REMARK    1  A    between atoms: N1_1  and  C1_4 
REMARK    2  A    between atoms: C3_10  and  N4_11 
REMARK    3  A    between atoms: N4_11  and  N5_13 
REMARK    4  A    between atoms: N5_13  and  C4_15 
REMARK    5  A    between atoms: C4_15  and  N6_16 
ROOT
HETATM    1  C1  UNL     1      17.227   6.457 -13.243  1.00  0.00     0.691 A 
HETATM    2  N2  UNL     1      16.276   5.555 -13.543  1.00  0.00    -0.187 N 
ATOM      3  H2  UNL     1      16.168   5.248 -14.510  1.00  0.00     0.185 HD
HETATM    4  C2  UNL     1      15.464   5.049 -12.598  1.00  0.00     0.215 A 
HETATM    5  N3  UNL     1      15.609   5.458 -11.311  1.00  0.00    -0.185 N 
ATOM      6  H3  UNL     1      14.999   5.079 -10.587  1.00  0.00     0.185 HD
HETATM    7  C3  UNL     1      16.548   6.354 -10.988  1.00  0.00     0.712 A 
HETATM    8  N7  UNL     1      17.340   6.838 -11.951  1.00  0.00    -0.021 N 
ATOM      9  H7  UNL     1      18.056   7.521 -11.701  1.00  0.00     0.203 HD
ENDROOT
BRANCH   7  10
HETATM   10  N4  UNL     1      16.679   6.735  -9.771  1.00  0.00    -0.134 N 
ATOM     11  H4  UNL     1      16.932   6.029  -9.080  1.00  0.00     0.205 HD
BRANCH  10  12
HETATM   12  N5  UNL     1      16.503   8.028  -9.330  1.00  0.00    -0.297 N 
ATOM     13  H5  UNL     1      16.004   8.699  -9.914  1.00  0.00     0.182 HD
BRANCH  12  14
HETATM   14  C4  UNL     1      17.022   8.439  -8.040  1.00  0.00     0.369 C 
BRANCH  14  15
HETATM   15  N6  UNL     1      16.040   9.238  -7.342  1.00  0.00    -0.062 N 
ATOM     16  H63 UNL     1      15.619   9.942  -7.948  1.00  0.00     0.276 HD
ATOM     17  H62 UNL     1      15.198   8.704  -7.126  1.00  0.00     0.276 HD
ATOM     18  H61 UNL     1      16.455   9.652  -6.507  1.00  0.00     0.276 HD
ENDBRANCH  14  15
ENDBRANCH  12  14
ENDBRANCH  10  12
ENDBRANCH   7  10
BRANCH   1  19
HETATM   19  N1  UNL     1      18.005   6.938 -14.165  1.00  0.00    -0.234 N 
ATOM     20  H12 UNL     1      18.727   7.626 -13.950  1.00  0.00     0.174 HD
ATOM     21  H11 UNL     1      17.915   6.637 -15.135  1.00  0.00     0.174 HD
ENDBRANCH   1  19
TORSDOF 5
ENDMDL
MODEL 2
REMARK VINA RESULT: -6.151551008      1.278      1.942
REMARK  5 active torsions:
REMARK  status: ('A' for Active; 'I' for Inactive)
REMARK    1  A    between atoms: N1_1  and  C1_4 
REMARK    2  A    between atoms: C3_10  and  N4_11 
REMARK    3  A    between atoms: N4_11  and  N5_13 
REMARK    4  A    between atoms: N5_13  and  C4_15 
REMARK    5  A    between atoms: C4_15  and  N6_16 
ROOT
HETATM    1  C1  UNL     1      17.265   6.683 -13.646  1.00  0.00     0.691 A 
HETATM    2  N2  UNL     1      18.583   6.414 -13.613  1.00  0.00    -0.187 N 
ATOM      3  H2  UNL     1      19.133   6.512 -14.466  1.00  0.00     0.185 HD
HETATM    4  C2  UNL     1      19.190   6.017 -12.481  1.00  0.00     0.215 A 
HETATM    5  N3  UNL     1      18.457   5.886 -11.346  1.00  0.00    -0.185 N 
ATOM      6  H3  UNL     1      18.908   5.586 -10.482  1.00  0.00     0.185 HD
HETATM    7  C3  UNL     1      17.145   6.148 -11.354  1.00  0.00     0.712 A 
HETATM    8  N7  UNL     1      16.570   6.541 -12.496  1.00  0.00    -0.021 N 
ATOM      9  H7  UNL     1      15.569   6.742 -12.498  1.00  0.00     0.203 HD
ENDROOT
BRANCH   7  10
HETATM   10  N4  UNL     1      16.459   6.023 -10.278  1.00  0.00    -0.134 N 
ATOM     11  H4  UNL     1      15.479   5.757 -10.371  1.00  0.00     0.205 HD
BRANCH  10  12
HETATM   12  N5  UNL     1      16.951   6.221  -9.007  1.00  0.00    -0.297 N 
ATOM     13  H5  UNL     1      16.942   5.453  -8.335  1.00  0.00     0.182 HD
BRANCH  12  14
HETATM   14  C4  UNL     1      17.481   7.513  -8.620  1.00  0.00     0.369 C 
BRANCH  14  15
HETATM   15  N6  UNL     1      16.461   8.529  -8.756  1.00  0.00    -0.062 N 
ATOM     16  H63 UNL     1      16.847   9.471  -8.681  1.00  0.00     0.276 HD
ATOM     17  H62 UNL     1      16.107   8.588  -9.711  1.00  0.00     0.276 HD
ATOM     18  H61 UNL     1      15.714   8.368  -8.080  1.00  0.00     0.276 HD
ENDBRANCH  14  15
ENDBRANCH  12  14
ENDBRANCH  10  12
ENDBRANCH   7  10
BRANCH   1  19
HETATM   19  N1  UNL     1      16.690   7.066 -14.747  1.00  0.00    -0.234 N 
ATOM     20  H12 UNL     1      16.613   6.446 -15.553  1.00  0.00     0.174 HD
ATOM     21  H11 UNL     1      16.297   8.003 -14.833  1.00  0.00     0.174 HD
ENDBRANCH   1  19
TORSDOF 5
ENDMDL
MODEL 3
REMARK VINA RESULT: -6.072164549      1.409      4.802
REMARK  5 active torsions:
REMARK  status: ('A' for Active; 'I' for Inactive)
REMARK    1  A    between atoms: N1_1  and  C1_4 
REMARK    2  A    between atoms: C3_10  and  N4_11 
REMARK    3  A    between atoms: N4_11  and  N5_13 
REMARK    4  A    between atoms: N5_13  and  C4_15 
REMARK    5  A    between atoms: C4_15  and  N6_16 
ROOT
HETATM    1  C1  UNL     1      16.904   7.941  -8.628  1.00  0.00     0.691 A 
HETATM    2  N2  UNL     1      17.715   7.195  -7.857  1.00  0.00    -0.187 N 
ATOM      3  H2  UNL     1      18.018   7.558  -6.954  1.00  0.00     0.185 HD
HETATM    4  C2  UNL     1      18.137   5.980  -8.252  1.00  0.00     0.215 A 
HETATM    5  N3  UNL     1      17.733   5.497  -9.455  1.00  0.00    -0.185 N 
ATOM      6  H3  UNL     1      18.047   4.577  -9.763  1.00  0.00     0.185 HD
HETATM    7  C3  UNL     1      16.927   6.221 -10.239  1.00  0.00     0.712 A 
HETATM    8  N7  UNL     1      16.525   7.426  -9.818  1.00  0.00    -0.021 N 
ATOM      9  H7  UNL     1      15.909   7.975 -10.418  1.00  0.00     0.203 HD
ENDROOT
BRANCH   7  10
HETATM   10  N4  UNL     1      16.550   5.758 -11.373  1.00  0.00    -0.134 N 
ATOM     11  H4  UNL     1      16.407   4.752 -11.449  1.00  0.00     0.205 HD
BRANCH  10  12
HETATM   12  N5  UNL     1      16.324   6.522 -12.496  1.00  0.00    -0.297 N 
ATOM     13  H5  UNL     1      15.463   7.063 -12.577  1.00  0.00     0.182 HD
BRANCH  12  14
HETATM   14  C4  UNL     1      17.304   6.562 -13.564  1.00  0.00     0.369 C 
BRANCH  14  15
HETATM   15  N6  UNL     1      16.721   7.145 -14.752  1.00  0.00    -0.062 N 
ATOM     16  H63 UNL     1      15.822   6.720 -14.984  1.00  0.00     0.276 HD
ATOM     17  H62 UNL     1      16.398   8.098 -14.589  1.00  0.00     0.276 HD
ATOM     18  H61 UNL     1      17.380   7.091 -15.528  1.00  0.00     0.276 HD
ENDBRANCH  14  15
ENDBRANCH  12  14
ENDBRANCH  10  12
ENDBRANCH   7  10
BRANCH   1  19
HETATM   19  N1  UNL     1      16.504   9.114  -8.235  1.00  0.00    -0.234 N 
ATOM     20  H12 UNL     1      16.429   9.898  -8.883  1.00  0.00     0.174 HD
ATOM     21  H11 UNL     1      16.251   9.281  -7.261  1.00  0.00     0.174 HD
ENDBRANCH   1  19
TORSDOF 5
ENDMDL
MODEL 4
REMARK VINA RESULT: -5.886542803      1.082      2.037
REMARK  5 active torsions:
REMARK  status: ('A' for Active; 'I' for Inactive)
REMARK    1  A    between atoms: N1_1  and  C1_4 
REMARK    2  A    between atoms: C3_10  and  N4_11 
REMARK    3  A    between atoms: N4_11  and  N5_13 
REMARK    4  A    between atoms: N5_13  and  C4_15 
REMARK    5  A    between atoms: C4_15  and  N6_16 
ROOT
HETATM    1  C1  UNL     1      16.122   5.400 -12.351  1.00  0.00     0.691 A 
HETATM    2  N2  UNL     1      17.192   5.854 -13.027  1.00  0.00    -0.187 N 
ATOM      3  H2  UNL     1      17.265   5.667 -14.027  1.00  0.00     0.185 HD
HETATM    4  C2  UNL     1      18.168   6.547 -12.415  1.00  0.00     0.215 A 
HETATM    5  N3  UNL     1      18.069   6.795 -11.084  1.00  0.00    -0.185 N 
ATOM      6  H3  UNL     1      18.804   7.321 -10.610  1.00  0.00     0.185 HD
HETATM    7  C3  UNL     1      17.014   6.354 -10.389  1.00  0.00     0.712 A 
HETATM    8  N7  UNL     1      16.060   5.667 -11.027  1.00  0.00    -0.021 N 
ATOM      9  H7  UNL     1      15.256   5.333 -10.495  1.00  0.00     0.203 HD
ENDROOT
BRANCH   7  10
HETATM   10  N4  UNL     1      16.928   6.592  -9.133  1.00  0.00    -0.134 N 
ATOM     11  H4  UNL     1      16.077   6.299  -8.653  1.00  0.00     0.205 HD
BRANCH  10  12
HETATM   12  N5  UNL     1      17.902   7.215  -8.384  1.00  0.00    -0.297 N 
ATOM     13  H5  UNL     1      18.866   6.883  -8.428  1.00  0.00     0.182 HD
BRANCH  12  14
HETATM   14  C4  UNL     1      17.565   8.340  -7.534  1.00  0.00     0.369 C 
BRANCH  14  15
HETATM   15  N6  UNL     1      16.291   8.897  -7.930  1.00  0.00    -0.062 N 
ATOM     16  H63 UNL     1      15.634   8.942  -7.151  1.00  0.00     0.276 HD
ATOM     17  H62 UNL     1      16.357   9.895  -8.128  1.00  0.00     0.276 HD
ATOM     18  H61 UNL     1      15.911   8.375  -8.720  1.00  0.00     0.276 HD
ENDBRANCH  14  15
ENDBRANCH  12  14
ENDBRANCH  10  12
ENDBRANCH   7  10
BRANCH   1  19
HETATM   19  N1  UNL     1      15.186   4.731 -12.955  1.00  0.00    -0.234 N 
ATOM     20  H12 UNL     1      15.259   4.481 -13.941  1.00  0.00     0.174 HD
ATOM     21  H11 UNL     1      14.348   4.435 -12.454  1.00  0.00     0.174 HD
ENDBRANCH   1  19
TORSDOF 5
ENDMDL
MODEL 5
REMARK VINA RESULT: -5.860382905      0.969      1.265
REMARK  5 active torsions:
REMARK  status: ('A' for Active; 'I' for Inactive)
REMARK    1  A    between atoms: N1_1  and  C1_4 
REMARK    2  A    between atoms: C3_10  and  N4_11 
REMARK    3  A    between atoms: N4_11  and  N5_13 
REMARK    4  A    between atoms: N5_13  and  C4_15 
REMARK    5  A    between atoms: C4_15  and  N6_16 
ROOT
HETATM    1  C1  UNL     1      17.195   6.445 -13.244  1.00  0.00     0.691 A 
HETATM    2  N2  UNL     1      16.268   5.573 -13.679  1.00  0.00    -0.187 N 
ATOM      3  H2  UNL     1      16.213   5.360 -14.675  1.00  0.00     0.185 HD
HETATM    4  C2  UNL     1      15.413   4.975 -12.832  1.00  0.00     0.215 A 
HETATM    5  N3  UNL     1      15.487   5.258 -11.506  1.00  0.00    -0.185 N 
ATOM      6  H3  UNL     1      14.843   4.809 -10.855  1.00  0.00     0.185 HD
HETATM    7  C3  UNL     1      16.400   6.122 -11.049  1.00  0.00     0.712 A 
HETATM    8  N7  UNL     1      17.237   6.701 -11.917  1.00  0.00    -0.021 N 
ATOM      9  H7  UNL     1      17.932   7.359 -11.565  1.00  0.00     0.203 HD
ENDROOT
BRANCH   7  10
HETATM   10  N4  UNL     1      16.463   6.384  -9.796  1.00  0.00    -0.134 N 
ATOM     11  H4  UNL     1      16.085   5.693  -9.148  1.00  0.00     0.205 HD
BRANCH  10  12
HETATM   12  N5  UNL     1      17.006   7.532  -9.261  1.00  0.00    -0.297 N 
ATOM     13  H5  UNL     1      16.748   8.441  -9.644  1.00  0.00     0.182 HD
BRANCH  12  14
HETATM   14  C4  UNL     1      17.940   7.453  -8.155  1.00  0.00     0.369 C 
BRANCH  14  15
HETATM   15  N6  UNL     1      18.175   6.072  -7.800  1.00  0.00    -0.062 N 
ATOM     16  H63 UNL     1      17.810   5.429  -8.504  1.00  0.00     0.276 HD
ATOM     17  H62 UNL     1      19.162   5.823  -7.869  1.00  0.00     0.276 HD
ATOM     18  H61 UNL     1      17.795   5.879  -6.873  1.00  0.00     0.276 HD
ENDBRANCH  14  15
ENDBRANCH  12  14
ENDBRANCH  10  12
ENDBRANCH   7  10
BRANCH   1  19
HETATM   19  N1  UNL     1      18.016   7.016 -14.073  1.00  0.00    -0.234 N 
ATOM     20  H12 UNL     1      18.512   6.482 -14.787  1.00  0.00     0.174 HD
ATOM     21  H11 UNL     1      18.186   8.021 -14.033  1.00  0.00     0.174 HD
ENDBRANCH   1  19
TORSDOF 5
ENDMDL
