MODEL 1
REMARK VINA RESULT: -5.261094607      0.000      0.000
REMARK  4 active torsions:
REMARK  status: ('A' for Active; 'I' for Inactive)
REMARK    1  A    between atoms: O1_2  and  C2_3 
REMARK    2  A    between atoms: C2_3  and  C3_4 
REMARK    3  A    between atoms: C3_4  and  O2_5 
REMARK    4  A    between atoms: O2_5  and  C4_6 
ROOT
HETATM    1  C4  UNL     1      16.833   5.836 -12.162  1.00  0.00     0.345 C 
HETATM    2  N1  UNL     1      17.970   6.697 -12.381  1.00  0.00    -0.078 NA
HETATM    3  N2  UNL     1      17.932   6.877 -13.770  1.00  0.00    -0.017 NA
HETATM    4  N3  UNL     1      16.638   6.654 -14.190  1.00  0.00    -0.017 NA
HETATM    5  N4  UNL     1      15.845   6.499 -13.027  1.00  0.00    -0.078 NA
ENDROOT
BRANCH   1   6
HETATM    6  O2  UNL     1      16.426   5.746 -10.866  1.00  0.00    -0.351 OA
BRANCH   6   7
HETATM    7  C3  UNL     1      17.237   6.420  -9.972  1.00  0.00     0.197 C 
BRANCH   7   8
HETATM    8  C2  UNL     1      17.924   5.475  -9.005  1.00  0.00     0.193 C 
BRANCH   8   9
HETATM    9  O1  UNL     1      18.302   6.236  -7.902  1.00  0.00    -0.394 OA
HETATM   10  C1  UNL     1      17.958   7.579  -8.065  1.00  0.00     0.201 C 
ENDBRANCH   8   9
ENDBRANCH   7   8
ENDBRANCH   6   7
ENDBRANCH   1   6
TORSDOF 4
ENDMDL
MODEL 2
REMARK VINA RESULT: -5.208167790      1.045      1.436
REMARK  4 active torsions:
REMARK  status: ('A' for Active; 'I' for Inactive)
REMARK    1  A    between atoms: O1_2  and  C2_3 
REMARK    2  A    between atoms: C2_3  and  C3_4 
REMARK    3  A    between atoms: C3_4  and  O2_5 
REMARK    4  A    between atoms: O2_5  and  C4_6 
ROOT
HETATM    1  C4  UNL     1      16.265   5.738 -11.954  1.00  0.00     0.345 C 
HETATM    2  N1  UNL     1      16.379   6.487 -13.182  1.00  0.00    -0.078 NA
HETATM    3  N2  UNL     1      15.942   5.555 -14.131  1.00  0.00    -0.017 NA
HETATM    4  N3  UNL     1      15.140   4.638 -13.485  1.00  0.00    -0.017 NA
HETATM    5  N4  UNL     1      14.951   5.110 -12.164  1.00  0.00    -0.078 NA
ENDROOT
BRANCH   1   6
HETATM    6  O2  UNL     1      16.318   6.488 -10.820  1.00  0.00    -0.351 OA
BRANCH   6   7
HETATM    7  C3  UNL     1      17.571   6.545 -10.240  1.00  0.00     0.197 C 
BRANCH   7   8
HETATM    8  C2  UNL     1      17.687   5.618  -9.046  1.00  0.00     0.193 C 
BRANCH   8   9
HETATM    9  O1  UNL     1      18.389   6.314  -8.065  1.00  0.00    -0.394 OA
HETATM   10  C1  UNL     1      17.943   7.632  -7.955  1.00  0.00     0.201 C 
ENDBRANCH   8   9
ENDBRANCH   7   8
ENDBRANCH   6   7
ENDBRANCH   1   6
TORSDOF 4
ENDMDL
MODEL 3
REMARK VINA RESULT: -5.135590217      3.097      4.388
REMARK  4 active torsions:
REMARK  status: ('A' for Active; 'I' for Inactive)
REMARK    1  A    between atoms: O1_2  and  C2_3 
REMARK    2  A    between atoms: C2_3  and  C3_4 
REMARK    3  A    between atoms: C3_4  and  O2_5 
REMARK    4  A    between atoms: O2_5  and  C4_6 
ROOT
HETATM    1  C4  UNL     1      16.902   6.152  -9.645  1.00  0.00     0.345 C 
HETATM    2  N1  UNL     1      17.318   7.476  -9.252  1.00  0.00    -0.078 NA
HETATM    3  N2  UNL     1      17.989   7.223  -8.049  1.00  0.00    -0.017 NA
HETATM    4  N3  UNL     1      18.409   5.910  -8.068  1.00  0.00    -0.017 NA
HETATM    5  N4  UNL     1      18.138   5.406  -9.362  1.00  0.00    -0.078 NA
ENDROOT
BRANCH   1   6
HETATM    6  O2  UNL     1      16.500   6.040 -10.940  1.00  0.00    -0.351 OA
BRANCH   6   7
HETATM    7  C3  UNL     1      17.506   5.669 -11.812  1.00  0.00     0.197 C 
BRANCH   7   8
HETATM    8  C2  UNL     1      17.422   6.420 -13.128  1.00  0.00     0.193 C 
BRANCH   8   9
HETATM    9  O1  UNL     1      18.727   6.758 -13.480  1.00  0.00    -0.394 OA
HETATM   10  C1  UNL     1      19.660   6.002 -12.769  1.00  0.00     0.201 C 
ENDBRANCH   8   9
ENDBRANCH   7   8
ENDBRANCH   6   7
ENDBRANCH   1   6
TORSDOF 4
ENDMDL
MODEL 4
REMARK VINA RESULT: -5.029035542      3.224      4.740
REMARK  4 active torsions:
REMARK  status: ('A' for Active; 'I' for Inactive)
REMARK    1  A    between atoms: O1_2  and  C2_3 
REMARK    2  A    between atoms: C2_3  and  C3_4 
REMARK    3  A    between atoms: C3_4  and  O2_5 
REMARK    4  A    between atoms: O2_5  and  C4_6 
ROOT
HETATM    1  C4  UNL     1      17.282   6.098  -9.653  1.00  0.00     0.345 C 
HETATM    2  N1  UNL     1      17.714   7.296  -8.977  1.00  0.00    -0.078 NA
HETATM    3  N2  UNL     1      18.093   6.800  -7.723  1.00  0.00    -0.017 NA
HETATM    4  N3  UNL     1      18.399   5.463  -7.873  1.00  0.00    -0.017 NA
HETATM    5  N4  UNL     1      18.365   5.183  -9.260  1.00  0.00    -0.078 NA
ENDROOT
BRANCH   1   6
HETATM    6  O2  UNL     1      17.154   6.218 -11.003  1.00  0.00    -0.351 OA
BRANCH   6   7
HETATM    7  C3  UNL     1      16.000   5.654 -11.513  1.00  0.00     0.197 C 
BRANCH   7   8
HETATM    8  C2  UNL     1      16.134   5.321 -12.986  1.00  0.00     0.193 C 
BRANCH   8   9
HETATM    9  O1  UNL     1      16.054   6.527 -13.678  1.00  0.00    -0.394 OA
HETATM   10  C1  UNL     1      17.261   6.837 -14.307  1.00  0.00     0.201 C 
ENDBRANCH   8   9
ENDBRANCH   7   8
ENDBRANCH   6   7
ENDBRANCH   1   6
TORSDOF 4
ENDMDL
MODEL 5
REMARK VINA RESULT: -5.003718769      3.146      4.488
REMARK  4 active torsions:
REMARK  status: ('A' for Active; 'I' for Inactive)
REMARK    1  A    between atoms: O1_2  and  C2_3 
REMARK    2  A    between atoms: C2_3  and  C3_4 
REMARK    3  A    between atoms: C3_4  and  O2_5 
REMARK    4  A    between atoms: O2_5  and  C4_6 
ROOT
HETATM    1  C4  UNL     1      17.486   6.414  -9.992  1.00  0.00     0.345 C 
HETATM    2  N1  UNL     1      17.843   5.432  -8.998  1.00  0.00    -0.078 NA
HETATM    3  N2  UNL     1      18.506   6.213  -8.043  1.00  0.00    -0.017 NA
HETATM    4  N3  UNL     1      18.064   7.513  -8.181  1.00  0.00    -0.017 NA
HETATM    5  N4  UNL     1      17.002   7.493  -9.116  1.00  0.00    -0.078 NA
ENDROOT
BRANCH   1   6
HETATM    6  O2  UNL     1      16.552   6.004 -10.892  1.00  0.00    -0.351 OA
BRANCH   6   7
HETATM    7  C3  UNL     1      17.061   5.726 -12.146  1.00  0.00     0.197 C 
BRANCH   7   8
HETATM    8  C2  UNL     1      18.336   6.500 -12.425  1.00  0.00     0.193 C 
BRANCH   8   9
HETATM    9  O1  UNL     1      18.266   6.922 -13.751  1.00  0.00    -0.394 OA
HETATM   10  C1  UNL     1      16.971   6.801 -14.258  1.00  0.00     0.201 C 
ENDBRANCH   8   9
ENDBRANCH   7   8
ENDBRANCH   6   7
ENDBRANCH   1   6
TORSDOF 4
ENDMDL
