MODEL 1
REMARK VINA RESULT: -6.974838549      0.000      0.000
REMARK  10 active torsions:
REMARK  status: ('A' for Active; 'I' for Inactive)
REMARK    1  A    between atoms: O1_2  and  C2_3 
REMARK    2  A    between atoms: C2_3  and  C3_5 
REMARK    3  A    between atoms: C4_6  and  N1_7 
REMARK       I    between atoms: N1_7  and  C5_9 
REMARK    4  A    between atoms: N4_17  and  N5_18 
REMARK    5  A    between atoms: N6_20  and  C8_22 
REMARK    6  A    between atoms: N9_29  and  C10_30 
REMARK    7  A    between atoms: C10_30  and  O4_31 
REMARK    8  A    between atoms: C11_33  and  O5_34 
REMARK    9  A    between atoms: C13_37  and  C14_38 
REMARK   10  A    between atoms: C14_38  and  O6_39 
ROOT
HETATM    1  C3  UNL     1       1.005  11.778  52.973  1.00  0.00     0.134 C 
HETATM    2  C4  UNL     1       2.149  11.665  52.271  1.00  0.00     0.098 C 
HETATM    3  C7  UNL     1       2.630  12.824  51.487  1.00  0.00     0.107 A 
HETATM    4  N2  UNL     1       3.738  13.070  50.755  1.00  0.00    -0.280 N 
ATOM      5  H2  UNL     1       4.475  12.388  50.580  1.00  0.00     0.188 HD
HETATM    6  N3  UNL     1       3.744  14.301  50.297  1.00  0.00    -0.219 N 
ATOM      7  H3  UNL     1       4.480  14.709  49.720  1.00  0.00     0.210 HD
HETATM    8  N4  UNL     1       2.654  14.931  50.693  1.00  0.00    -0.167 N 
HETATM    9  C12 UNL     1       1.948  14.013  51.439  1.00  0.00     0.110 A 
HETATM   10  C13 UNL     1       0.641  14.142  52.085  1.00  0.00     0.162 C 
HETATM   11  N10 UNL     1       0.425  13.098  53.017  1.00  0.00    -0.371 N 
ATOM     12  H10 UNL     1      -0.203  13.299  53.795  1.00  0.00     0.160 HD
ENDROOT
BRANCH   8  13
HETATM   13  N5  UNL     1       2.293  16.254  50.423  1.00  0.00    -0.218 N 
HETATM   14  N6  UNL     1       2.274  17.154  51.332  1.00  0.00    -0.265 N 
ATOM     15  H6  UNL     1       2.523  16.946  52.299  1.00  0.00     0.190 HD
ATOM     16  H5  UNL     1       2.035  16.511  49.469  1.00  0.00     0.210 HD
BRANCH  14  17
HETATM   17  C8  UNL     1       1.886  18.466  50.921  1.00  0.00     0.188 A 
HETATM   18  N7  UNL     1       2.672  19.420  50.370  1.00  0.00    -0.171 N 
HETATM   19  C9  UNL     1       1.917  20.507  50.132  1.00  0.00     0.683 A 
ATOM     20  H7  UNL     1       3.668  19.330  50.171  1.00  0.00     0.186 HD
HETATM   21  N8  UNL     1       2.331  21.611  49.611  1.00  0.00    -0.234 N 
HETATM   22  N9  UNL     1       0.658  20.235  50.532  1.00  0.00    -0.137 N 
ATOM     23  H82 UNL     1       3.283  21.816  49.308  1.00  0.00     0.174 HD
ATOM     24  H81 UNL     1       1.758  22.435  49.430  1.00  0.00     0.174 HD
HETATM   25  C11 UNL     1       0.622  18.979  51.022  1.00  0.00     0.206 A 
BRANCH  22  26
HETATM   26  C10 UNL     1      -0.494  21.097  50.473  1.00  0.00     0.316 C 
BRANCH  26  27
HETATM   27  O4  UNL     1      -1.171  21.026  51.695  1.00  0.00    -0.381 OA
ATOM     28  H4  UNL     1      -0.592  21.333  52.382  1.00  0.00     0.211 HD
ENDBRANCH  26  27
ENDBRANCH  22  26
BRANCH  25  29
HETATM   29  O5  UNL     1      -0.502  18.316  51.542  1.00  0.00    -0.343 OA
ATOM     30  H5  UNL     1      -0.737  18.247  52.459  1.00  0.00     0.219 HD
ENDBRANCH  25  29
ENDBRANCH  14  17
ENDBRANCH   8  13
BRANCH  10  31
HETATM   31  C14 UNL     1      -0.472  14.057  51.032  1.00  0.00     0.195 C 
BRANCH  31  32
HETATM   32  O6  UNL     1      -0.775  15.258  50.451  1.00  0.00    -0.398 OA
ATOM     33  H6  UNL     1      -0.662  15.267  49.508  1.00  0.00     0.209 HD
ENDBRANCH  31  32
ENDBRANCH  10  31
BRANCH   2  34
HETATM   34  N1  UNL     1       2.801  10.437  52.254  1.00  0.00    -0.323 N 
HETATM   35  C5  UNL     1       4.150  10.107  52.458  1.00  0.00     0.218 C 
HETATM   36  C6  UNL     1       4.513   8.610  52.361  1.00  0.00     0.117 C 
HETATM   37  O3  UNL     1       5.112  10.838  52.709  1.00  0.00    -0.274 OA
ATOM     38  H1  UNL     1       2.195   9.639  52.061  1.00  0.00     0.169 HD
ENDBRANCH   2  34
BRANCH   1  39
HETATM   39  C2  UNL     1       0.353  10.743  53.726  1.00  0.00     0.311 C 
HETATM   40  O2  UNL     1       1.108   9.972  54.436  1.00  0.00    -0.258 OA
BRANCH  39  41
HETATM   41  O1  UNL     1      -0.965  10.398  53.843  1.00  0.00    -0.321 OA
HETATM   42  C1  UNL     1      -1.982  10.740  52.922  1.00  0.00     0.213 C 
ENDBRANCH  39  41
ENDBRANCH   1  39
TORSDOF 10
ENDMDL
MODEL 2
REMARK VINA RESULT: -6.866937960      2.493      4.069
REMARK  10 active torsions:
REMARK  status: ('A' for Active; 'I' for Inactive)
REMARK    1  A    between atoms: O1_2  and  C2_3 
REMARK    2  A    between atoms: C2_3  and  C3_5 
REMARK    3  A    between atoms: C4_6  and  N1_7 
REMARK       I    between atoms: N1_7  and  C5_9 
REMARK    4  A    between atoms: N4_17  and  N5_18 
REMARK    5  A    between atoms: N6_20  and  C8_22 
REMARK    6  A    between atoms: N9_29  and  C10_30 
REMARK    7  A    between atoms: C10_30  and  O4_31 
REMARK    8  A    between atoms: C11_33  and  O5_34 
REMARK    9  A    between atoms: C13_37  and  C14_38 
REMARK   10  A    between atoms: C14_38  and  O6_39 
ROOT
HETATM    1  C3  UNL     1       0.365  10.878  52.125  1.00  0.00     0.134 C 
HETATM    2  C4  UNL     1      -0.770  11.193  51.472  1.00  0.00     0.098 C 
HETATM    3  C7  UNL     1      -0.921  12.551  50.904  1.00  0.00     0.107 A 
HETATM    4  N2  UNL     1      -1.865  13.156  50.150  1.00  0.00    -0.280 N 
ATOM      5  H2  UNL     1      -2.742  12.719  49.866  1.00  0.00     0.188 HD
HETATM    6  N3  UNL     1      -1.510  14.379  49.830  1.00  0.00    -0.219 N 
ATOM      7  H3  UNL     1      -2.065  15.023  49.267  1.00  0.00     0.210 HD
HETATM    8  N4  UNL     1      -0.326  14.651  50.348  1.00  0.00    -0.167 N 
HETATM    9  C12 UNL     1       0.050  13.511  51.024  1.00  0.00     0.110 A 
HETATM   10  C13 UNL     1       1.246  13.255  51.829  1.00  0.00     0.162 C 
HETATM   11  N10 UNL     1       1.411  11.870  52.075  1.00  0.00    -0.371 N 
ATOM     12  H10 UNL     1       2.364  11.542  52.231  1.00  0.00     0.160 HD
ENDROOT
BRANCH   8  13
HETATM   13  N5  UNL     1       0.399  15.840  50.230  1.00  0.00    -0.218 N 
HETATM   14  N6  UNL     1       0.260  16.807  51.056  1.00  0.00    -0.265 N 
ATOM     15  H6  UNL     1      -0.389  16.754  51.841  1.00  0.00     0.190 HD
ATOM     16  H5  UNL     1       1.062  15.939  49.460  1.00  0.00     0.210 HD
BRANCH  14  17
HETATM   17  C8  UNL     1       1.063  17.965  50.821  1.00  0.00     0.188 A 
HETATM   18  N7  UNL     1       0.635  19.220  50.553  1.00  0.00    -0.171 N 
HETATM   19  C9  UNL     1       1.711  20.011  50.397  1.00  0.00     0.683 A 
ATOM     20  H7  UNL     1      -0.339  19.516  50.481  1.00  0.00     0.186 HD
HETATM   21  N8  UNL     1       1.684  21.273  50.131  1.00  0.00    -0.234 N 
HETATM   22  N9  UNL     1       2.814  19.253  50.566  1.00  0.00    -0.137 N 
ATOM     23  H82 UNL     1       0.851  21.846  50.003  1.00  0.00     0.174 HD
ATOM     24  H81 UNL     1       2.501  21.873  50.013  1.00  0.00     0.174 HD
HETATM   25  C11 UNL     1       2.431  17.987  50.828  1.00  0.00     0.206 A 
BRANCH  22  26
HETATM   26  C10 UNL     1       4.190  19.668  50.492  1.00  0.00     0.316 C 
BRANCH  26  27
HETATM   27  O4  UNL     1       4.359  20.463  49.353  1.00  0.00    -0.381 OA
ATOM     28  H4  UNL     1       5.288  20.558  49.182  1.00  0.00     0.211 HD
ENDBRANCH  26  27
ENDBRANCH  22  26
BRANCH  25  29
HETATM   29  O5  UNL     1       3.276  16.891  51.065  1.00  0.00    -0.343 OA
ATOM     30  H5  UNL     1       4.193  16.828  50.825  1.00  0.00     0.219 HD
ENDBRANCH  25  29
ENDBRANCH  14  17
ENDBRANCH   8  13
BRANCH  10  31
HETATM   31  C14 UNL     1       1.117  13.951  53.190  1.00  0.00     0.195 C 
BRANCH  31  32
HETATM   32  O6  UNL     1       1.517  15.260  53.180  1.00  0.00    -0.398 OA
ATOM     33  H6  UNL     1       0.824  15.875  53.390  1.00  0.00     0.209 HD
ENDBRANCH  31  32
ENDBRANCH  10  31
BRANCH   2  34
HETATM   34  N1  UNL     1      -1.789  10.249  51.416  1.00  0.00    -0.323 N 
HETATM   35  C5  UNL     1      -3.174  10.374  51.610  1.00  0.00     0.218 C 
HETATM   36  C6  UNL     1      -4.007   9.083  51.465  1.00  0.00     0.117 C 
HETATM   37  O3  UNL     1      -3.845  11.373  51.882  1.00  0.00    -0.274 OA
ATOM     38  H1  UNL     1      -1.476   9.303  51.196  1.00  0.00     0.169 HD
ENDBRANCH   2  34
BRANCH   1  39
HETATM   39  C2  UNL     1       0.654   9.645  52.800  1.00  0.00     0.311 C 
HETATM   40  O2  UNL     1       0.083   9.455  53.943  1.00  0.00    -0.258 OA
BRANCH  39  41
HETATM   41  O1  UNL     1       1.450   8.586  52.457  1.00  0.00    -0.321 OA
HETATM   42  C1  UNL     1       2.840   8.500  52.698  1.00  0.00     0.213 C 
ENDBRANCH  39  41
ENDBRANCH   1  39
TORSDOF 10
ENDMDL
MODEL 3
REMARK VINA RESULT: -6.828808276      3.860      8.601
REMARK  10 active torsions:
REMARK  status: ('A' for Active; 'I' for Inactive)
REMARK    1  A    between atoms: O1_2  and  C2_3 
REMARK    2  A    between atoms: C2_3  and  C3_5 
REMARK    3  A    between atoms: C4_6  and  N1_7 
REMARK       I    between atoms: N1_7  and  C5_9 
REMARK    4  A    between atoms: N4_17  and  N5_18 
REMARK    5  A    between atoms: N6_20  and  C8_22 
REMARK    6  A    between atoms: N9_29  and  C10_30 
REMARK    7  A    between atoms: C10_30  and  O4_31 
REMARK    8  A    between atoms: C11_33  and  O5_34 
REMARK    9  A    between atoms: C13_37  and  C14_38 
REMARK   10  A    between atoms: C14_38  and  O6_39 
ROOT
HETATM    1  C3  UNL     1       2.587  11.708  52.083  1.00  0.00     0.134 C 
HETATM    2  C4  UNL     1       1.918  12.759  51.572  1.00  0.00     0.098 C 
HETATM    3  C7  UNL     1       0.440  12.715  51.517  1.00  0.00     0.107 A 
HETATM    4  N2  UNL     1      -0.514  13.598  51.148  1.00  0.00    -0.280 N 
ATOM      5  H2  UNL     1      -0.325  14.523  50.764  1.00  0.00     0.188 HD
HETATM    6  N3  UNL     1      -1.718  13.110  51.347  1.00  0.00    -0.219 N 
ATOM      7  H3  UNL     1      -2.589  13.598  51.142  1.00  0.00     0.210 HD
HETATM    8  N4  UNL     1      -1.630  11.893  51.851  1.00  0.00    -0.167 N 
HETATM    9  C12 UNL     1      -0.280  11.636  51.960  1.00  0.00     0.110 A 
HETATM   10  C13 UNL     1       0.406  10.424  52.410  1.00  0.00     0.162 C 
HETATM   11  N10 UNL     1       1.771  10.679  52.683  1.00  0.00    -0.371 N 
ATOM     12  H10 UNL     1       2.223  10.077  53.371  1.00  0.00     0.160 HD
ENDROOT
BRANCH   8  13
HETATM   13  N5  UNL     1      -2.681  11.045  52.209  1.00  0.00    -0.218 N 
HETATM   14  N6  UNL     1      -3.440  11.286  53.211  1.00  0.00    -0.265 N 
ATOM     15  H6  UNL     1      -3.311  12.112  53.796  1.00  0.00     0.190 HD
ATOM     16  H5  UNL     1      -2.849  10.206  51.654  1.00  0.00     0.210 HD
BRANCH  14  17
HETATM   17  C8  UNL     1      -4.477  10.338  53.466  1.00  0.00     0.188 A 
HETATM   18  N7  UNL     1      -4.960   9.954  54.671  1.00  0.00    -0.171 N 
HETATM   19  C9  UNL     1      -5.929   9.044  54.469  1.00  0.00     0.683 A 
ATOM     20  H7  UNL     1      -4.643  10.297  55.578  1.00  0.00     0.186 HD
HETATM   21  N8  UNL     1      -6.614   8.458  55.390  1.00  0.00    -0.234 N 
HETATM   22  N9  UNL     1      -6.054   8.856  53.139  1.00  0.00    -0.137 N 
ATOM     23  H82 UNL     1      -6.520   8.600  56.396  1.00  0.00     0.174 HD
ATOM     24  H81 UNL     1      -7.349   7.767  55.237  1.00  0.00     0.174 HD
HETATM   25  C11 UNL     1      -5.164   9.647  52.506  1.00  0.00     0.206 A 
BRANCH  22  26
HETATM   26  C10 UNL     1      -6.963   7.976  52.452  1.00  0.00     0.316 C 
BRANCH  26  27
HETATM   27  O4  UNL     1      -8.273   8.388  52.718  1.00  0.00    -0.381 OA
ATOM     28  H4  UNL     1      -8.629   8.794  51.937  1.00  0.00     0.211 HD
ENDBRANCH  26  27
ENDBRANCH  22  26
BRANCH  25  29
HETATM   29  O5  UNL     1      -4.974   9.748  51.118  1.00  0.00    -0.343 OA
ATOM     30  H5  UNL     1      -4.584   9.088  50.557  1.00  0.00     0.219 HD
ENDBRANCH  25  29
ENDBRANCH  14  17
ENDBRANCH   8  13
BRANCH  10  31
HETATM   31  C14 UNL     1       0.349   9.355  51.310  1.00  0.00     0.195 C 
BRANCH  31  32
HETATM   32  O6  UNL     1       0.729   8.110  51.731  1.00  0.00    -0.398 OA
ATOM     33  H6  UNL     1       1.633   7.897  51.532  1.00  0.00     0.209 HD
ENDBRANCH  31  32
ENDBRANCH  10  31
BRANCH   2  34
HETATM   34  N1  UNL     1       2.648  13.821  51.050  1.00  0.00    -0.323 N 
HETATM   35  C5  UNL     1       2.532  15.206  51.249  1.00  0.00     0.218 C 
HETATM   36  C6  UNL     1       3.537  16.096  50.487  1.00  0.00     0.117 C 
HETATM   37  O3  UNL     1       1.738  15.838  51.952  1.00  0.00    -0.274 OA
ATOM     38  H1  UNL     1       3.397  13.547  50.413  1.00  0.00     0.169 HD
ENDBRANCH   2  34
BRANCH   1  39
HETATM   39  C2  UNL     1       4.012  11.545  52.149  1.00  0.00     0.311 C 
HETATM   40  O2  UNL     1       4.455  10.555  52.850  1.00  0.00    -0.258 OA
BRANCH  39  41
HETATM   41  O1  UNL     1       5.035  12.261  51.592  1.00  0.00    -0.321 OA
HETATM   42  C1  UNL     1       6.409  11.955  51.722  1.00  0.00     0.213 C 
ENDBRANCH  39  41
ENDBRANCH   1  39
TORSDOF 10
ENDMDL
MODEL 4
REMARK VINA RESULT: -6.784637135      3.642      8.538
REMARK  10 active torsions:
REMARK  status: ('A' for Active; 'I' for Inactive)
REMARK    1  A    between atoms: O1_2  and  C2_3 
REMARK    2  A    between atoms: C2_3  and  C3_5 
REMARK    3  A    between atoms: C4_6  and  N1_7 
REMARK       I    between atoms: N1_7  and  C5_9 
REMARK    4  A    between atoms: N4_17  and  N5_18 
REMARK    5  A    between atoms: N6_20  and  C8_22 
REMARK    6  A    between atoms: N9_29  and  C10_30 
REMARK    7  A    between atoms: C10_30  and  O4_31 
REMARK    8  A    between atoms: C11_33  and  O5_34 
REMARK    9  A    between atoms: C13_37  and  C14_38 
REMARK   10  A    between atoms: C14_38  and  O6_39 
ROOT
HETATM    1  C3  UNL     1       2.925  11.725  52.138  1.00  0.00     0.134 C 
HETATM    2  C4  UNL     1       2.238  12.741  51.580  1.00  0.00     0.098 C 
HETATM    3  C7  UNL     1       0.759  12.718  51.622  1.00  0.00     0.107 A 
HETATM    4  N2  UNL     1      -0.206  13.582  51.239  1.00  0.00    -0.280 N 
ATOM      5  H2  UNL     1      -0.030  14.468  50.765  1.00  0.00     0.188 HD
HETATM    6  N3  UNL     1      -1.400  13.135  51.555  1.00  0.00    -0.219 N 
ATOM      7  H3  UNL     1      -2.277  13.619  51.364  1.00  0.00     0.210 HD
HETATM    8  N4  UNL     1      -1.295  11.965  52.156  1.00  0.00    -0.167 N 
HETATM    9  C12 UNL     1       0.055  11.695  52.202  1.00  0.00     0.110 A 
HETATM   10  C13 UNL     1       0.754  10.513  52.711  1.00  0.00     0.162 C 
HETATM   11  N10 UNL     1       2.137  10.767  52.875  1.00  0.00    -0.371 N 
ATOM     12  H10 UNL     1       2.625  10.219  53.583  1.00  0.00     0.160 HD
ENDROOT
BRANCH   8  13
HETATM   13  N5  UNL     1      -2.331  11.169  52.652  1.00  0.00    -0.218 N 
HETATM   14  N6  UNL     1      -3.413  10.973  51.996  1.00  0.00    -0.265 N 
ATOM     15  H6  UNL     1      -3.568  11.391  51.079  1.00  0.00     0.190 HD
ATOM     16  H5  UNL     1      -2.222  10.730  53.567  1.00  0.00     0.210 HD
BRANCH  14  17
HETATM   17  C8  UNL     1      -4.391  10.139  52.618  1.00  0.00     0.188 A 
HETATM   18  N7  UNL     1      -5.212   9.246  52.017  1.00  0.00    -0.171 N 
HETATM   19  C9  UNL     1      -5.978   8.671  52.960  1.00  0.00     0.683 A 
ATOM     20  H7  UNL     1      -5.243   9.045  51.017  1.00  0.00     0.186 HD
HETATM   21  N8  UNL     1      -6.876   7.770  52.752  1.00  0.00    -0.234 N 
HETATM   22  N9  UNL     1      -5.639   9.202  54.153  1.00  0.00    -0.137 N 
ATOM     23  H82 UNL     1      -7.133   7.369  51.850  1.00  0.00     0.174 HD
ATOM     24  H81 UNL     1      -7.458   7.334  53.468  1.00  0.00     0.174 HD
HETATM   25  C11 UNL     1      -4.661  10.110  53.959  1.00  0.00     0.206 A 
BRANCH  22  26
HETATM   26  C10 UNL     1      -6.191   8.893  55.446  1.00  0.00     0.316 C 
BRANCH  26  27
HETATM   27  O4  UNL     1      -5.795   7.599  55.805  1.00  0.00    -0.381 OA
ATOM     28  H4  UNL     1      -4.861   7.516  55.662  1.00  0.00     0.211 HD
ENDBRANCH  26  27
ENDBRANCH  22  26
BRANCH  25  29
HETATM   29  O5  UNL     1      -4.033  10.885  54.948  1.00  0.00    -0.343 OA
ATOM     30  H5  UNL     1      -4.354  11.705  55.305  1.00  0.00     0.219 HD
ENDBRANCH  25  29
ENDBRANCH  14  17
ENDBRANCH   8  13
BRANCH  10  31
HETATM   31  C14 UNL     1       0.613   9.355  51.715  1.00  0.00     0.195 C 
BRANCH  31  32
HETATM   32  O6  UNL     1       1.211   8.195  52.129  1.00  0.00    -0.398 OA
ATOM     33  H6  UNL     1       2.107   8.309  52.420  1.00  0.00     0.209 HD
ENDBRANCH  31  32
ENDBRANCH  10  31
BRANCH   2  34
HETATM   34  N1  UNL     1       2.946  13.740  50.923  1.00  0.00    -0.323 N 
HETATM   35  C5  UNL     1       2.862  15.139  51.010  1.00  0.00     0.218 C 
HETATM   36  C6  UNL     1       3.826  15.942  50.111  1.00  0.00     0.117 C 
HETATM   37  O3  UNL     1       2.126  15.843  51.707  1.00  0.00    -0.274 OA
ATOM     38  H1  UNL     1       3.646  13.399  50.264  1.00  0.00     0.169 HD
ENDBRANCH   2  34
BRANCH   1  39
HETATM   39  C2  UNL     1       4.349  11.543  52.128  1.00  0.00     0.311 C 
HETATM   40  O2  UNL     1       4.814  10.536  52.789  1.00  0.00    -0.258 OA
BRANCH  39  41
HETATM   41  O1  UNL     1       5.352  12.256  51.531  1.00  0.00    -0.321 OA
HETATM   42  C1  UNL     1       6.735  12.037  51.727  1.00  0.00     0.213 C 
ENDBRANCH  39  41
ENDBRANCH   1  39
TORSDOF 10
ENDMDL
MODEL 5
REMARK VINA RESULT: -6.759047999      2.448      3.685
REMARK  10 active torsions:
REMARK  status: ('A' for Active; 'I' for Inactive)
REMARK    1  A    between atoms: O1_2  and  C2_3 
REMARK    2  A    between atoms: C2_3  and  C3_5 
REMARK    3  A    between atoms: C4_6  and  N1_7 
REMARK       I    between atoms: N1_7  and  C5_9 
REMARK    4  A    between atoms: N4_17  and  N5_18 
REMARK    5  A    between atoms: N6_20  and  C8_22 
REMARK    6  A    between atoms: N9_29  and  C10_30 
REMARK    7  A    between atoms: C10_30  and  O4_31 
REMARK    8  A    between atoms: C11_33  and  O5_34 
REMARK    9  A    between atoms: C13_37  and  C14_38 
REMARK   10  A    between atoms: C14_38  and  O6_39 
ROOT
HETATM    1  C3  UNL     1       3.079  12.083  50.350  1.00  0.00     0.134 C 
HETATM    2  C4  UNL     1       2.611  12.033  51.612  1.00  0.00     0.098 C 
HETATM    3  C7  UNL     1       2.102  13.272  52.241  1.00  0.00     0.107 A 
HETATM    4  N2  UNL     1       1.512  13.553  53.424  1.00  0.00    -0.280 N 
ATOM      5  H2  UNL     1       1.353  12.870  54.164  1.00  0.00     0.188 HD
HETATM    6  N3  UNL     1       1.170  14.819  53.498  1.00  0.00    -0.219 N 
ATOM      7  H3  UNL     1       0.711  15.256  54.296  1.00  0.00     0.210 HD
HETATM    8  N4  UNL     1       1.511  15.440  52.384  1.00  0.00    -0.167 N 
HETATM    9  C12 UNL     1       2.097  14.479  51.591  1.00  0.00     0.110 A 
HETATM   10  C13 UNL     1       2.708  14.607  50.266  1.00  0.00     0.162 C 
HETATM   11  N10 UNL     1       2.895  13.339  49.664  1.00  0.00    -0.371 N 
ATOM     12  H10 UNL     1       2.899  13.311  48.644  1.00  0.00     0.160 HD
ENDROOT
BRANCH   8  13
HETATM   13  N5  UNL     1       1.312  16.787  52.069  1.00  0.00    -0.218 N 
HETATM   14  N6  UNL     1       0.333  17.179  51.343  1.00  0.00    -0.265 N 
ATOM     15  H6  UNL     1      -0.348  16.524  50.961  1.00  0.00     0.190 HD
ATOM     16  H5  UNL     1       1.968  17.481  52.429  1.00  0.00     0.210 HD
BRANCH  14  17
HETATM   17  C8  UNL     1       0.247  18.584  51.098  1.00  0.00     0.188 A 
HETATM   18  N7  UNL     1      -0.865  19.355  51.122  1.00  0.00    -0.171 N 
HETATM   19  C9  UNL     1      -0.511  20.620  50.836  1.00  0.00     0.683 A 
ATOM     20  H7  UNL     1      -1.812  19.031  51.322  1.00  0.00     0.186 HD
HETATM   21  N8  UNL     1      -1.312  21.628  50.770  1.00  0.00    -0.234 N 
HETATM   22  N9  UNL     1       0.822  20.644  50.633  1.00  0.00    -0.137 N 
ATOM     23  H82 UNL     1      -2.320  21.611  50.923  1.00  0.00     0.174 HD
ATOM     24  H81 UNL     1      -1.043  22.588  50.553  1.00  0.00     0.174 HD
HETATM   25  C11 UNL     1       1.305  19.395  50.791  1.00  0.00     0.206 A 
BRANCH  22  26
HETATM   26  C10 UNL     1       1.646  21.777  50.302  1.00  0.00     0.316 C 
BRANCH  26  27
HETATM   27  O4  UNL     1       2.614  21.373  49.376  1.00  0.00    -0.381 OA
ATOM     28  H4  UNL     1       3.416  21.852  49.546  1.00  0.00     0.211 HD
ENDBRANCH  26  27
ENDBRANCH  22  26
BRANCH  25  29
HETATM   29  O5  UNL     1       2.646  18.995  50.664  1.00  0.00    -0.343 OA
ATOM     30  H5  UNL     1       3.028  18.198  51.013  1.00  0.00     0.219 HD
ENDBRANCH  25  29
ENDBRANCH  14  17
ENDBRANCH   8  13
BRANCH  10  31
HETATM   31  C14 UNL     1       4.088  15.265  50.390  1.00  0.00     0.195 C 
BRANCH  31  32
HETATM   32  O6  UNL     1       4.041  16.570  50.800  1.00  0.00    -0.398 OA
ATOM     33  H6  UNL     1       3.379  17.088  50.357  1.00  0.00     0.209 HD
ENDBRANCH  31  32
ENDBRANCH  10  31
BRANCH   2  34
HETATM   34  N1  UNL     1       2.687  10.829  52.302  1.00  0.00    -0.323 N 
HETATM   35  C5  UNL     1       1.963   9.635  52.155  1.00  0.00     0.218 C 
HETATM   36  C6  UNL     1       2.329   8.486  53.118  1.00  0.00     0.117 C 
HETATM   37  O3  UNL     1       1.062   9.351  51.360  1.00  0.00    -0.274 OA
ATOM     38  H1  UNL     1       3.389  10.809  53.041  1.00  0.00     0.169 HD
ENDBRANCH   2  34
BRANCH   1  39
HETATM   39  C2  UNL     1       3.675  11.006  49.611  1.00  0.00     0.311 C 
HETATM   40  O2  UNL     1       4.789  10.533  50.062  1.00  0.00    -0.258 OA
BRANCH  39  41
HETATM   41  O1  UNL     1       3.279  10.356  48.475  1.00  0.00    -0.321 OA
HETATM   42  C1  UNL     1       3.845  10.539  47.192  1.00  0.00     0.213 C 
ENDBRANCH  39  41
ENDBRANCH   1  39
TORSDOF 10
ENDMDL
