MODEL 1
REMARK VINA RESULT: -6.990483879      0.000      0.000
REMARK  15 active torsions:
REMARK  status: ('A' for Active; 'I' for Inactive)
REMARK    1  A    between atoms: O1_2  and  C2_3 
REMARK    2  A    between atoms: C2_3  and  C3_5 
REMARK    3  A    between atoms: C3_5  and  O3_6 
REMARK    4  A    between atoms: C3_5  and  C4_8 
REMARK    5  A    between atoms: C3_5  and  C6_14 
REMARK    6  A    between atoms: C5_9  and  N1_10 
REMARK    7  A    between atoms: N1_10  and  O4_12 
REMARK    8  A    between atoms: C6_14  and  N2_15 
REMARK    9  A    between atoms: C7_16  and  O5_17 
REMARK   10  A    between atoms: C8_19  and  N3_20 
REMARK   11  A    between atoms: N3_20  and  O6_22 
REMARK   12  A    between atoms: N4_24  and  C9_25 
REMARK   13  A    between atoms: C10_28  and  N6_29 
REMARK   14  A    between atoms: C11_34  and  N8_35 
REMARK   15  A    between atoms: C12_38  and  N9_39 
ROOT
HETATM    1  N2  UNL     1       0.557  14.215  51.631  1.00  0.00    -0.272 N 
HETATM    2  C7  UNL     1       1.454  14.573  52.553  1.00  0.00     0.194 A 
HETATM    3  C8  UNL     1       1.674  15.933  52.471  1.00  0.00     0.189 A 
HETATM    4  N4  UNL     1       0.907  16.394  51.496  1.00  0.00    -0.226 N 
HETATM    5  C13 UNL     1       0.227  15.343  50.985  1.00  0.00     0.338 A 
HETATM    6  O9  UNL     1      -0.596  15.489  50.022  1.00  0.00    -0.246 OA
ENDROOT
BRANCH   4   7
HETATM    7  C9  UNL     1       0.812  17.762  51.058  1.00  0.00     0.170 A 
HETATM    8  N5  UNL     1      -0.222  18.554  51.387  1.00  0.00    -0.173 N 
HETATM    9  C10 UNL     1      -0.286  19.852  50.959  1.00  0.00     0.679 A 
ATOM     10  H5  UNL     1      -0.974  18.180  51.967  1.00  0.00     0.186 HD
HETATM   11  N7  UNL     1       0.690  20.375  50.192  1.00  0.00    -0.175 N 
HETATM   12  C11 UNL     1       1.744  19.625  49.835  1.00  0.00     0.152 A 
ATOM     13  H7  UNL     1       0.627  21.344  49.881  1.00  0.00     0.186 HD
HETATM   14  C12 UNL     1       1.810  18.301  50.273  1.00  0.00     0.191 A 
BRANCH   9  15
HETATM   15  N6  UNL     1      -1.276  20.588  51.280  1.00  0.00    -0.234 N 
ATOM     16  H62 UNL     1      -1.856  20.982  50.540  1.00  0.00     0.174 HD
ATOM     17  H61 UNL     1      -1.481  20.778  52.261  1.00  0.00     0.174 HD
ENDBRANCH   9  15
BRANCH  12  18
HETATM   18  N8  UNL     1       2.694  20.098  49.101  1.00  0.00    -0.383 N 
ATOM     19  H82 UNL     1       2.486  20.411  48.153  1.00  0.00     0.157 HD
ATOM     20  H81 UNL     1       3.652  20.168  49.445  1.00  0.00     0.157 HD
ENDBRANCH  12  18
BRANCH  14  21
HETATM   21  N9  UNL     1       2.922  17.496  49.904  1.00  0.00    -0.108 N 
HETATM   22  O7  UNL     1       2.812  16.805  48.874  1.00  0.00    -0.531 OA
HETATM   23  O8  UNL     1       4.074  17.457  50.620  1.00  0.00    -0.531 OA
ENDBRANCH  14  21
ENDBRANCH   4   7
BRANCH   3  24
HETATM   24  N3  UNL     1       2.562  16.721  53.280  1.00  0.00    -0.249 N 
ATOM     25  H3  UNL     1       3.332  17.235  52.852  1.00  0.00     0.196 HD
BRANCH  24  26
HETATM   26  O6  UNL     1       2.379  16.769  54.514  1.00  0.00    -0.288 OA
ATOM     27  H6  UNL     1       3.048  17.155  55.066  1.00  0.00     0.244 HD
ENDBRANCH  24  26
ENDBRANCH   3  24
BRANCH   2  28
HETATM   28  O5  UNL     1       2.122  13.784  53.495  1.00  0.00    -0.343 OA
ATOM     29  H5  UNL     1       2.132  13.855  54.443  1.00  0.00     0.219 HD
ENDBRANCH   2  28
BRANCH   1  30
HETATM   30  C6  UNL     1       0.047  12.907  51.390  1.00  0.00     0.198 C 
BRANCH  30  31
HETATM   31  C3  UNL     1      -0.618  12.239  52.535  1.00  0.00     0.228 C 
BRANCH  31  32
HETATM   32  C2  UNL     1      -2.001  11.862  52.063  1.00  0.00     0.307 C 
HETATM   33  O2  UNL     1      -2.202  11.460  50.889  1.00  0.00    -0.261 OA
BRANCH  32  34
HETATM   34  O1  UNL     1      -3.112  11.939  52.891  1.00  0.00    -0.323 OA
HETATM   35  C1  UNL     1      -3.549  10.851  53.687  1.00  0.00     0.213 C 
ENDBRANCH  32  34
ENDBRANCH  31  32
BRANCH  31  36
HETATM   36  O3  UNL     1      -0.781  13.073  53.643  1.00  0.00    -0.367 OA
ATOM     37  H3  UNL     1      -0.208  13.819  53.512  1.00  0.00     0.212 HD
ENDBRANCH  31  36
BRANCH  31  38
HETATM   38  C4  UNL     1       0.060  11.044  53.020  1.00  0.00    -0.031 C 
HETATM   39  C5  UNL     1       0.611  10.054  53.445  1.00  0.00     0.035 C 
BRANCH  39  40
HETATM   40  N1  UNL     1       1.238   8.913  53.959  1.00  0.00    -0.226 N 
ATOM     41  H1  UNL     1       1.448   8.871  54.956  1.00  0.00     0.204 HD
BRANCH  40  42
HETATM   42  O4  UNL     1       1.574   7.859  53.166  1.00  0.00    -0.282 OA
ATOM     43  H4  UNL     1       2.212   7.209  53.439  1.00  0.00     0.245 HD
ENDBRANCH  40  42
ENDBRANCH  39  40
ENDBRANCH  31  38
ENDBRANCH  30  31
ENDBRANCH   1  30
TORSDOF 15
ENDMDL
MODEL 2
REMARK VINA RESULT: -6.844097825      2.280      3.469
REMARK  15 active torsions:
REMARK  status: ('A' for Active; 'I' for Inactive)
REMARK    1  A    between atoms: O1_2  and  C2_3 
REMARK    2  A    between atoms: C2_3  and  C3_5 
REMARK    3  A    between atoms: C3_5  and  O3_6 
REMARK    4  A    between atoms: C3_5  and  C4_8 
REMARK    5  A    between atoms: C3_5  and  C6_14 
REMARK    6  A    between atoms: C5_9  and  N1_10 
REMARK    7  A    between atoms: N1_10  and  O4_12 
REMARK    8  A    between atoms: C6_14  and  N2_15 
REMARK    9  A    between atoms: C7_16  and  O5_17 
REMARK   10  A    between atoms: C8_19  and  N3_20 
REMARK   11  A    between atoms: N3_20  and  O6_22 
REMARK   12  A    between atoms: N4_24  and  C9_25 
REMARK   13  A    between atoms: C10_28  and  N6_29 
REMARK   14  A    between atoms: C11_34  and  N8_35 
REMARK   15  A    between atoms: C12_38  and  N9_39 
ROOT
HETATM    1  N2  UNL     1       1.230  14.418  51.682  1.00  0.00    -0.272 N 
HETATM    2  C7  UNL     1       2.491  14.117  51.364  1.00  0.00     0.194 A 
HETATM    3  C8  UNL     1       2.971  15.052  50.470  1.00  0.00     0.189 A 
HETATM    4  N4  UNL     1       1.994  15.918  50.248  1.00  0.00    -0.226 N 
HETATM    5  C13 UNL     1       0.933  15.528  50.990  1.00  0.00     0.338 A 
HETATM    6  O9  UNL     1      -0.162  16.180  50.977  1.00  0.00    -0.246 OA
ENDROOT
BRANCH   4   7
HETATM    7  C9  UNL     1       2.050  17.064  49.381  1.00  0.00     0.170 A 
HETATM    8  N5  UNL     1       1.776  16.989  48.067  1.00  0.00    -0.173 N 
HETATM    9  C10 UNL     1       1.834  18.096  47.265  1.00  0.00     0.679 A 
ATOM     10  H5  UNL     1       1.519  16.089  47.661  1.00  0.00     0.186 HD
HETATM   11  N7  UNL     1       2.169  19.298  47.772  1.00  0.00    -0.175 N 
HETATM   12  C11 UNL     1       2.453  19.426  49.077  1.00  0.00     0.152 A 
ATOM     13  H7  UNL     1       2.208  20.114  47.161  1.00  0.00     0.186 HD
HETATM   14  C12 UNL     1       2.393  18.297  49.896  1.00  0.00     0.191 A 
BRANCH   9  15
HETATM   15  N6  UNL     1       1.571  18.005  46.021  1.00  0.00    -0.234 N 
ATOM     16  H62 UNL     1       0.630  18.234  45.700  1.00  0.00     0.174 HD
ATOM     17  H61 UNL     1       2.291  17.709  45.363  1.00  0.00     0.174 HD
ENDBRANCH   9  15
BRANCH  12  18
HETATM   18  N8  UNL     1       2.777  20.565  49.590  1.00  0.00    -0.383 N 
ATOM     19  H82 UNL     1       2.245  20.928  50.382  1.00  0.00     0.157 HD
ATOM     20  H81 UNL     1       3.556  21.115  49.225  1.00  0.00     0.157 HD
ENDBRANCH  12  18
BRANCH  14  21
HETATM   21  N9  UNL     1       2.689  18.420  51.280  1.00  0.00    -0.108 N 
HETATM   22  O7  UNL     1       1.765  18.778  52.034  1.00  0.00    -0.531 OA
HETATM   23  O8  UNL     1       3.918  18.165  51.797  1.00  0.00    -0.531 OA
ENDBRANCH  14  21
ENDBRANCH   4   7
BRANCH   3  24
HETATM   24  N3  UNL     1       4.279  15.098  49.876  1.00  0.00    -0.249 N 
ATOM     25  H3  UNL     1       4.469  14.603  49.005  1.00  0.00     0.196 HD
BRANCH  24  26
HETATM   26  O6  UNL     1       5.179  15.752  50.442  1.00  0.00    -0.288 OA
ATOM     27  H6  UNL     1       6.087  15.565  50.232  1.00  0.00     0.244 HD
ENDBRANCH  24  26
ENDBRANCH   3  24
BRANCH   2  28
HETATM   28  O5  UNL     1       3.289  13.056  51.804  1.00  0.00    -0.343 OA
ATOM     29  H5  UNL     1       4.230  12.943  51.741  1.00  0.00     0.219 HD
ENDBRANCH   2  28
BRANCH   1  30
HETATM   30  C6  UNL     1       0.378  13.713  52.580  1.00  0.00     0.198 C 
BRANCH  30  31
HETATM   31  C3  UNL     1       0.099  12.295  52.246  1.00  0.00     0.228 C 
BRANCH  31  32
HETATM   32  C2  UNL     1       0.885  11.463  53.229  1.00  0.00     0.307 C 
HETATM   33  O2  UNL     1       0.656  11.524  54.464  1.00  0.00    -0.261 OA
BRANCH  32  34
HETATM   34  O1  UNL     1       1.890  10.595  52.827  1.00  0.00    -0.323 OA
HETATM   35  C1  UNL     1       1.729   9.186  52.826  1.00  0.00     0.213 C 
ENDBRANCH  32  34
ENDBRANCH  31  32
BRANCH  31  36
HETATM   36  O3  UNL     1       0.534  11.933  50.969  1.00  0.00    -0.367 OA
ATOM     37  H3  UNL     1       1.482  11.893  51.003  1.00  0.00     0.212 HD
ENDBRANCH  31  36
BRANCH  31  38
HETATM   38  C4  UNL     1      -1.306  11.918  52.321  1.00  0.00    -0.031 C 
HETATM   39  C5  UNL     1      -2.468  11.587  52.401  1.00  0.00     0.035 C 
BRANCH  39  40
HETATM   40  N1  UNL     1      -3.804  11.187  52.511  1.00  0.00    -0.226 N 
ATOM     41  H1  UNL     1      -4.403  11.229  51.686  1.00  0.00     0.204 HD
BRANCH  40  42
HETATM   42  O4  UNL     1      -4.327  10.744  53.687  1.00  0.00    -0.282 OA
ATOM     43  H4  UNL     1      -5.254  10.559  53.786  1.00  0.00     0.245 HD
ENDBRANCH  40  42
ENDBRANCH  39  40
ENDBRANCH  31  38
ENDBRANCH  30  31
ENDBRANCH   1  30
TORSDOF 15
ENDMDL
MODEL 3
REMARK VINA RESULT: -6.738860024      2.347      3.591
REMARK  15 active torsions:
REMARK  status: ('A' for Active; 'I' for Inactive)
REMARK    1  A    between atoms: O1_2  and  C2_3 
REMARK    2  A    between atoms: C2_3  and  C3_5 
REMARK    3  A    between atoms: C3_5  and  O3_6 
REMARK    4  A    between atoms: C3_5  and  C4_8 
REMARK    5  A    between atoms: C3_5  and  C6_14 
REMARK    6  A    between atoms: C5_9  and  N1_10 
REMARK    7  A    between atoms: N1_10  and  O4_12 
REMARK    8  A    between atoms: C6_14  and  N2_15 
REMARK    9  A    between atoms: C7_16  and  O5_17 
REMARK   10  A    between atoms: C8_19  and  N3_20 
REMARK   11  A    between atoms: N3_20  and  O6_22 
REMARK   12  A    between atoms: N4_24  and  C9_25 
REMARK   13  A    between atoms: C10_28  and  N6_29 
REMARK   14  A    between atoms: C11_34  and  N8_35 
REMARK   15  A    between atoms: C12_38  and  N9_39 
ROOT
HETATM    1  N2  UNL     1       1.143  14.423  51.612  1.00  0.00    -0.272 N 
HETATM    2  C7  UNL     1       2.415  14.128  51.332  1.00  0.00     0.194 A 
HETATM    3  C8  UNL     1       2.919  15.070  50.460  1.00  0.00     0.189 A 
HETATM    4  N4  UNL     1       1.948  15.934  50.212  1.00  0.00    -0.226 N 
HETATM    5  C13 UNL     1       0.865  15.536  50.917  1.00  0.00     0.338 A 
HETATM    6  O9  UNL     1      -0.232  16.184  50.873  1.00  0.00    -0.246 OA
ENDROOT
BRANCH   4   7
HETATM    7  C9  UNL     1       2.026  17.086  49.354  1.00  0.00     0.170 A 
HETATM    8  N5  UNL     1       1.762  17.024  48.038  1.00  0.00    -0.173 N 
HETATM    9  C10 UNL     1       1.842  18.136  47.244  1.00  0.00     0.679 A 
ATOM     10  H5  UNL     1       1.496  16.131  47.622  1.00  0.00     0.186 HD
HETATM   11  N7  UNL     1       2.191  19.330  47.762  1.00  0.00    -0.175 N 
HETATM   12  C11 UNL     1       2.465  19.444  49.071  1.00  0.00     0.152 A 
ATOM     13  H7  UNL     1       2.246  20.149  47.158  1.00  0.00     0.186 HD
HETATM   14  C12 UNL     1       2.383  18.310  49.881  1.00  0.00     0.191 A 
BRANCH   9  15
HETATM   15  N6  UNL     1       1.589  18.058  45.997  1.00  0.00    -0.234 N 
ATOM     16  H62 UNL     1       0.615  18.017  45.696  1.00  0.00     0.174 HD
ATOM     17  H61 UNL     1       2.348  18.038  45.317  1.00  0.00     0.174 HD
ENDBRANCH   9  15
BRANCH  12  18
HETATM   18  N8  UNL     1       2.802  20.574  49.596  1.00  0.00    -0.383 N 
ATOM     19  H82 UNL     1       3.788  20.771  49.771  1.00  0.00     0.157 HD
ATOM     20  H81 UNL     1       2.106  21.279  49.841  1.00  0.00     0.157 HD
ENDBRANCH  12  18
BRANCH  14  21
HETATM   21  N9  UNL     1       2.669  18.418  51.268  1.00  0.00    -0.108 N 
HETATM   22  O7  UNL     1       1.739  18.766  52.020  1.00  0.00    -0.531 OA
HETATM   23  O8  UNL     1       3.895  18.160  51.790  1.00  0.00    -0.531 OA
ENDBRANCH  14  21
ENDBRANCH   4   7
BRANCH   3  24
HETATM   24  N3  UNL     1       4.246  15.124  49.908  1.00  0.00    -0.249 N 
ATOM     25  H3  UNL     1       4.471  14.617  49.053  1.00  0.00     0.196 HD
BRANCH  24  26
HETATM   26  O6  UNL     1       5.118  15.801  50.490  1.00  0.00    -0.288 OA
ATOM     27  H6  UNL     1       5.926  16.004  50.034  1.00  0.00     0.244 HD
ENDBRANCH  24  26
ENDBRANCH   3  24
BRANCH   2  28
HETATM   28  O5  UNL     1       3.202  13.067  51.791  1.00  0.00    -0.343 OA
ATOM     29  H5  UNL     1       2.936  12.244  52.183  1.00  0.00     0.219 HD
ENDBRANCH   2  28
BRANCH   1  30
HETATM   30  C6  UNL     1       0.266  13.709  52.478  1.00  0.00     0.198 C 
BRANCH  30  31
HETATM   31  C3  UNL     1      -0.100  12.335  52.057  1.00  0.00     0.228 C 
BRANCH  31  32
HETATM   32  C2  UNL     1       0.055  11.461  53.278  1.00  0.00     0.307 C 
HETATM   33  O2  UNL     1      -0.851  11.386  54.146  1.00  0.00    -0.261 OA
BRANCH  32  34
HETATM   34  O1  UNL     1       1.194  10.701  53.503  1.00  0.00    -0.323 OA
HETATM   35  C1  UNL     1       1.185   9.283  53.478  1.00  0.00     0.213 C 
ENDBRANCH  32  34
ENDBRANCH  31  32
BRANCH  31  36
HETATM   36  O3  UNL     1       0.745  11.814  51.076  1.00  0.00    -0.367 OA
ATOM     37  H3  UNL     1       1.595  11.690  51.481  1.00  0.00     0.212 HD
ENDBRANCH  31  36
BRANCH  31  38
HETATM   38  C4  UNL     1      -1.456  12.196  51.544  1.00  0.00    -0.031 C 
HETATM   39  C5  UNL     1      -2.587  12.106  51.122  1.00  0.00     0.035 C 
BRANCH  39  40
HETATM   40  N1  UNL     1      -3.898  12.025  50.640  1.00  0.00    -0.226 N 
ATOM     41  H1  UNL     1      -4.473  11.224  50.902  1.00  0.00     0.204 HD
BRANCH  40  42
HETATM   42  O4  UNL     1      -4.428  12.986  49.834  1.00  0.00    -0.282 OA
ATOM     43  H4  UNL     1      -3.882  13.611  49.372  1.00  0.00     0.245 HD
ENDBRANCH  40  42
ENDBRANCH  39  40
ENDBRANCH  31  38
ENDBRANCH  30  31
ENDBRANCH   1  30
TORSDOF 15
ENDMDL
MODEL 4
REMARK VINA RESULT: -6.675213823      3.035      5.165
REMARK  15 active torsions:
REMARK  status: ('A' for Active; 'I' for Inactive)
REMARK    1  A    between atoms: O1_2  and  C2_3 
REMARK    2  A    between atoms: C2_3  and  C3_5 
REMARK    3  A    between atoms: C3_5  and  O3_6 
REMARK    4  A    between atoms: C3_5  and  C4_8 
REMARK    5  A    between atoms: C3_5  and  C6_14 
REMARK    6  A    between atoms: C5_9  and  N1_10 
REMARK    7  A    between atoms: N1_10  and  O4_12 
REMARK    8  A    between atoms: C6_14  and  N2_15 
REMARK    9  A    between atoms: C7_16  and  O5_17 
REMARK   10  A    between atoms: C8_19  and  N3_20 
REMARK   11  A    between atoms: N3_20  and  O6_22 
REMARK   12  A    between atoms: N4_24  and  C9_25 
REMARK   13  A    between atoms: C10_28  and  N6_29 
REMARK   14  A    between atoms: C11_34  and  N8_35 
REMARK   15  A    between atoms: C12_38  and  N9_39 
ROOT
HETATM    1  N2  UNL     1       2.232  17.041  50.662  1.00  0.00    -0.272 N 
HETATM    2  C7  UNL     1       3.064  18.082  50.582  1.00  0.00     0.194 A 
HETATM    3  C8  UNL     1       2.466  19.089  49.853  1.00  0.00     0.189 A 
HETATM    4  N4  UNL     1       1.269  18.652  49.493  1.00  0.00    -0.226 N 
HETATM    5  C13 UNL     1       1.129  17.402  49.988  1.00  0.00     0.338 A 
HETATM    6  O9  UNL     1       0.066  16.726  49.797  1.00  0.00    -0.246 OA
ENDROOT
BRANCH   4   7
HETATM    7  C9  UNL     1       0.294  19.373  48.719  1.00  0.00     0.170 A 
HETATM    8  N5  UNL     1       0.212  19.267  47.382  1.00  0.00    -0.173 N 
HETATM    9  C10 UNL     1      -0.727  19.963  46.670  1.00  0.00     0.679 A 
ATOM     10  H5  UNL     1       0.863  18.655  46.888  1.00  0.00     0.186 HD
HETATM   11  N7  UNL     1      -1.600  20.778  47.293  1.00  0.00    -0.175 N 
HETATM   12  C11 UNL     1      -1.559  20.920  48.626  1.00  0.00     0.152 A 
ATOM     13  H7  UNL     1      -2.294  21.290  46.748  1.00  0.00     0.186 HD
HETATM   14  C12 UNL     1      -0.602  20.210  49.353  1.00  0.00     0.191 A 
BRANCH   9  15
HETATM   15  N6  UNL     1      -0.789  19.850  45.402  1.00  0.00    -0.234 N 
ATOM     16  H62 UNL     1      -1.478  19.215  44.999  1.00  0.00     0.174 HD
ATOM     17  H61 UNL     1      -0.160  20.386  44.805  1.00  0.00     0.174 HD
ENDBRANCH   9  15
BRANCH  12  18
HETATM   18  N8  UNL     1      -2.382  21.694  49.250  1.00  0.00    -0.383 N 
ATOM     19  H82 UNL     1      -2.017  22.443  49.839  1.00  0.00     0.157 HD
ATOM     20  H81 UNL     1      -3.393  21.577  49.171  1.00  0.00     0.157 HD
ENDBRANCH  12  18
BRANCH  14  21
HETATM   21  N9  UNL     1      -0.549  20.349  50.766  1.00  0.00    -0.108 N 
HETATM   22  O7  UNL     1       0.232  21.202  51.229  1.00  0.00    -0.531 OA
HETATM   23  O8  UNL     1      -1.304  19.601  51.609  1.00  0.00    -0.531 OA
ENDBRANCH  14  21
ENDBRANCH   4   7
BRANCH   3  24
HETATM   24  N3  UNL     1       3.017  20.377  49.531  1.00  0.00    -0.249 N 
ATOM     25  H3  UNL     1       2.406  21.183  49.402  1.00  0.00     0.196 HD
BRANCH  24  26
HETATM   26  O6  UNL     1       4.254  20.495  49.412  1.00  0.00    -0.288 OA
ATOM     27  H6  UNL     1       4.603  20.960  48.661  1.00  0.00     0.244 HD
ENDBRANCH  24  26
ENDBRANCH   3  24
BRANCH   2  28
HETATM   28  O5  UNL     1       4.351  18.233  51.110  1.00  0.00    -0.343 OA
ATOM     29  H5  UNL     1       4.646  18.772  51.834  1.00  0.00     0.219 HD
ENDBRANCH   2  28
BRANCH   1  30
HETATM   30  C6  UNL     1       2.462  15.807  51.334  1.00  0.00     0.198 C 
BRANCH  30  31
HETATM   31  C3  UNL     1       2.804  14.645  50.478  1.00  0.00     0.228 C 
BRANCH  31  32
HETATM   32  C2  UNL     1       4.145  14.953  49.859  1.00  0.00     0.307 C 
HETATM   33  O2  UNL     1       5.101  15.381  50.554  1.00  0.00    -0.261 OA
BRANCH  32  34
HETATM   34  O1  UNL     1       4.392  14.781  48.504  1.00  0.00    -0.323 OA
HETATM   35  C1  UNL     1       4.940  13.586  47.972  1.00  0.00     0.213 C 
ENDBRANCH  32  34
ENDBRANCH  31  32
BRANCH  31  36
HETATM   36  O3  UNL     1       1.907  14.451  49.426  1.00  0.00    -0.367 OA
ATOM     37  H3  UNL     1       1.376  13.696  49.652  1.00  0.00     0.212 HD
ENDBRANCH  31  36
BRANCH  31  38
HETATM   38  C4  UNL     1       2.887  13.373  51.183  1.00  0.00    -0.031 C 
HETATM   39  C5  UNL     1       2.950  12.328  51.791  1.00  0.00     0.035 C 
BRANCH  39  40
HETATM   40  N1  UNL     1       3.018  11.132  52.514  1.00  0.00    -0.226 N 
ATOM     41  H1  UNL     1       3.913  10.648  52.588  1.00  0.00     0.204 HD
BRANCH  40  42
HETATM   42  O4  UNL     1       1.924  10.596  53.122  1.00  0.00    -0.282 OA
ATOM     43  H4  UNL     1       1.933   9.720  53.488  1.00  0.00     0.245 HD
ENDBRANCH  40  42
ENDBRANCH  39  40
ENDBRANCH  31  38
ENDBRANCH  30  31
ENDBRANCH   1  30
TORSDOF 15
ENDMDL
MODEL 5
REMARK VINA RESULT: -6.667261315      2.406      3.979
REMARK  15 active torsions:
REMARK  status: ('A' for Active; 'I' for Inactive)
REMARK    1  A    between atoms: O1_2  and  C2_3 
REMARK    2  A    between atoms: C2_3  and  C3_5 
REMARK    3  A    between atoms: C3_5  and  O3_6 
REMARK    4  A    between atoms: C3_5  and  C4_8 
REMARK    5  A    between atoms: C3_5  and  C6_14 
REMARK    6  A    between atoms: C5_9  and  N1_10 
REMARK    7  A    between atoms: N1_10  and  O4_12 
REMARK    8  A    between atoms: C6_14  and  N2_15 
REMARK    9  A    between atoms: C7_16  and  O5_17 
REMARK   10  A    between atoms: C8_19  and  N3_20 
REMARK   11  A    between atoms: N3_20  and  O6_22 
REMARK   12  A    between atoms: N4_24  and  C9_25 
REMARK   13  A    between atoms: C10_28  and  N6_29 
REMARK   14  A    between atoms: C11_34  and  N8_35 
REMARK   15  A    between atoms: C12_38  and  N9_39 
ROOT
HETATM    1  N2  UNL     1       1.495  14.948  51.149  1.00  0.00    -0.272 N 
HETATM    2  C7  UNL     1       1.658  15.400  52.395  1.00  0.00     0.194 A 
HETATM    3  C8  UNL     1       1.940  16.750  52.357  1.00  0.00     0.189 A 
HETATM    4  N4  UNL     1       1.947  17.112  51.084  1.00  0.00    -0.226 N 
HETATM    5  C13 UNL     1       1.675  16.010  50.349  1.00  0.00     0.338 A 
HETATM    6  O9  UNL     1       1.616  16.057  49.076  1.00  0.00    -0.246 OA
ENDROOT
BRANCH   4   7
HETATM    7  C9  UNL     1       2.196  18.433  50.573  1.00  0.00     0.170 A 
HETATM    8  N5  UNL     1       3.438  18.914  50.389  1.00  0.00    -0.173 N 
HETATM    9  C10 UNL     1       3.646  20.174  49.900  1.00  0.00     0.679 A 
ATOM     10  H5  UNL     1       4.240  18.327  50.620  1.00  0.00     0.186 HD
HETATM   11  N7  UNL     1       2.608  20.974  49.587  1.00  0.00    -0.175 N 
HETATM   12  C11 UNL     1       1.349  20.541  49.752  1.00  0.00     0.152 A 
ATOM     13  H7  UNL     1       2.780  21.910  49.223  1.00  0.00     0.186 HD
HETATM   14  C12 UNL     1       1.136  19.255  50.251  1.00  0.00     0.191 A 
BRANCH   9  15
HETATM   15  N6  UNL     1       4.832  20.613  49.733  1.00  0.00    -0.234 N 
ATOM     16  H62 UNL     1       5.161  21.376  50.325  1.00  0.00     0.174 HD
ATOM     17  H61 UNL     1       5.436  20.207  49.020  1.00  0.00     0.174 HD
ENDBRANCH   9  15
BRANCH  12  18
HETATM   18  N8  UNL     1       0.334  21.284  49.462  1.00  0.00    -0.383 N 
ATOM     19  H82 UNL     1      -0.001  21.321  48.499  1.00  0.00     0.157 HD
ATOM     20  H81 UNL     1      -0.144  21.839  50.172  1.00  0.00     0.157 HD
ENDBRANCH  12  18
BRANCH  14  21
HETATM   21  N9  UNL     1      -0.193  18.784  50.430  1.00  0.00    -0.108 N 
HETATM   22  O7  UNL     1      -0.749  18.252  49.450  1.00  0.00    -0.531 OA
HETATM   23  O8  UNL     1      -0.862  18.893  51.605  1.00  0.00    -0.531 OA
ENDBRANCH  14  21
ENDBRANCH   4   7
BRANCH   3  24
HETATM   24  N3  UNL     1       2.184  17.620  53.474  1.00  0.00    -0.249 N 
ATOM     25  H3  UNL     1       2.078  18.629  53.376  1.00  0.00     0.196 HD
BRANCH  24  26
HETATM   26  O6  UNL     1       2.527  17.123  54.567  1.00  0.00    -0.288 OA
ATOM     27  H6  UNL     1       3.301  17.459  55.004  1.00  0.00     0.244 HD
ENDBRANCH  24  26
ENDBRANCH   3  24
BRANCH   2  28
HETATM   28  O5  UNL     1       1.579  14.707  53.607  1.00  0.00    -0.343 OA
ATOM     29  H5  UNL     1       1.701  15.027  54.493  1.00  0.00     0.219 HD
ENDBRANCH   2  28
BRANCH   1  30
HETATM   30  C6  UNL     1       1.182  13.617  50.751  1.00  0.00     0.198 C 
BRANCH  30  31
HETATM   31  C3  UNL     1       2.300  12.643  50.775  1.00  0.00     0.228 C 
BRANCH  31  32
HETATM   32  C2  UNL     1       1.689  11.287  50.522  1.00  0.00     0.307 C 
HETATM   33  O2  UNL     1       2.289  10.419  49.839  1.00  0.00    -0.261 OA
BRANCH  32  34
HETATM   34  O1  UNL     1       0.447  10.929  51.026  1.00  0.00    -0.323 OA
HETATM   35  C1  UNL     1       0.275   9.882  51.966  1.00  0.00     0.213 C 
ENDBRANCH  32  34
ENDBRANCH  31  32
BRANCH  31  36
HETATM   36  O3  UNL     1       2.945  12.573  52.012  1.00  0.00    -0.367 OA
ATOM     37  H3  UNL     1       3.854  12.804  51.862  1.00  0.00     0.212 HD
ENDBRANCH  31  36
BRANCH  31  38
HETATM   38  C4  UNL     1       3.341  12.886  49.786  1.00  0.00    -0.031 C 
HETATM   39  C5  UNL     1       4.209  13.063  48.960  1.00  0.00     0.035 C 
BRANCH  39  40
HETATM   40  N1  UNL     1       5.216  13.243  48.005  1.00  0.00    -0.226 N 
ATOM     41  H1  UNL     1       5.962  12.552  47.937  1.00  0.00     0.204 HD
BRANCH  40  42
HETATM   42  O4  UNL     1       5.226  14.315  47.165  1.00  0.00    -0.282 OA
ATOM     43  H4  UNL     1       5.519  15.173  47.450  1.00  0.00     0.245 HD
ENDBRANCH  40  42
ENDBRANCH  39  40
ENDBRANCH  31  38
ENDBRANCH  30  31
ENDBRANCH   1  30
TORSDOF 15
ENDMDL
