MODEL 1
REMARK VINA RESULT: -4.860962184      0.000      0.000
REMARK  3 active torsions:
REMARK  status: ('A' for Active; 'I' for Inactive)
REMARK    1  A    between atoms: N3_5  and  C2_6 
REMARK    2  A    between atoms: C2_6  and  C3_7 
REMARK    3  A    between atoms: C3_7  and  N4_8 
ROOT
HETATM    1  C1  UNL     1       7.984 -17.073 -39.884  1.00  0.00     0.195 C 
HETATM    2  N1  UNL     1       7.426 -17.956 -40.897  1.00  0.00    -0.197 N 
HETATM    3  N2  UNL     1       6.217 -18.497 -40.897  1.00  0.00     0.064 NA
HETATM    4  O1  UNL     1       6.084 -19.230 -41.976  1.00  0.00    -0.125 OA
HETATM    5  N3  UNL     1       7.176 -19.185 -42.681  1.00  0.00    -0.157 N 
HETATM    6  N5  UNL     1       8.000 -18.393 -42.004  1.00  0.00     0.019 NA
ENDROOT
BRANCH   5   7
HETATM    7  C2  UNL     1       7.463 -19.847 -43.944  1.00  0.00     0.204 C 
BRANCH   7   8
HETATM    8  C3  UNL     1       8.670 -20.758 -43.827  1.00  0.00     0.253 C 
BRANCH   8   9
HETATM    9  N4  UNL     1       8.701 -21.192 -42.427  1.00  0.00    -0.078 N 
ATOM     10  H43 UNL     1       8.216 -20.559 -41.791  1.00  0.00     0.274 HD
ATOM     11  H42 UNL     1       8.126 -22.013 -42.240  1.00  0.00     0.274 HD
ATOM     12  H41 UNL     1       9.687 -21.321 -42.203  1.00  0.00     0.274 HD
ENDBRANCH   8   9
ENDBRANCH   7   8
ENDBRANCH   5   7
TORSDOF 3
ENDMDL
MODEL 2
REMARK VINA RESULT: -4.829428632      1.671      1.926
REMARK  3 active torsions:
REMARK  status: ('A' for Active; 'I' for Inactive)
REMARK    1  A    between atoms: N3_5  and  C2_6 
REMARK    2  A    between atoms: C2_6  and  C3_7 
REMARK    3  A    between atoms: C3_7  and  N4_8 
ROOT
HETATM    1  C1  UNL     1       9.879 -16.036 -40.598  1.00  0.00     0.195 C 
HETATM    2  N1  UNL     1       8.842 -16.974 -40.999  1.00  0.00    -0.197 N 
HETATM    3  N2  UNL     1       7.541 -16.858 -40.778  1.00  0.00     0.064 NA
HETATM    4  O1  UNL     1       6.933 -17.902 -41.289  1.00  0.00    -0.125 OA
HETATM    5  N3  UNL     1       7.803 -18.698 -41.838  1.00  0.00    -0.157 N 
HETATM    6  N5  UNL     1       8.982 -18.114 -41.653  1.00  0.00     0.019 NA
ENDROOT
BRANCH   5   7
HETATM    7  C2  UNL     1       7.567 -19.962 -42.517  1.00  0.00     0.204 C 
BRANCH   7   8
HETATM    8  C3  UNL     1       7.157 -19.744 -43.962  1.00  0.00     0.253 C 
BRANCH   8   9
HETATM    9  N4  UNL     1       8.212 -18.912 -44.547  1.00  0.00    -0.078 N 
ATOM     10  H43 UNL     1       7.885 -18.299 -45.294  1.00  0.00     0.274 HD
ATOM     11  H42 UNL     1       8.547 -18.176 -43.925  1.00  0.00     0.274 HD
ATOM     12  H41 UNL     1       8.941 -19.562 -44.842  1.00  0.00     0.274 HD
ENDBRANCH   8   9
ENDBRANCH   7   8
ENDBRANCH   5   7
TORSDOF 3
ENDMDL
MODEL 3
REMARK VINA RESULT: -4.806608058      2.606      2.911
REMARK  3 active torsions:
REMARK  status: ('A' for Active; 'I' for Inactive)
REMARK    1  A    between atoms: N3_5  and  C2_6 
REMARK    2  A    between atoms: C2_6  and  C3_7 
REMARK    3  A    between atoms: C3_7  and  N4_8 
ROOT
HETATM    1  C1  UNL     1       8.539 -17.056 -39.457  1.00  0.00     0.195 C 
HETATM    2  N1  UNL     1       8.579 -17.566 -40.820  1.00  0.00    -0.197 N 
HETATM    3  N2  UNL     1       7.571 -18.096 -41.497  1.00  0.00     0.064 NA
HETATM    4  O1  UNL     1       7.998 -18.435 -42.689  1.00  0.00    -0.125 OA
HETATM    5  N3  UNL     1       9.260 -18.142 -42.809  1.00  0.00    -0.157 N 
HETATM    6  N5  UNL     1       9.609 -17.604 -41.646  1.00  0.00     0.019 NA
ENDROOT
BRANCH   5   7
HETATM    7  C2  UNL     1      10.128 -18.347 -43.957  1.00  0.00     0.204 C 
BRANCH   7   8
HETATM    8  C3  UNL     1      10.798 -17.052 -44.380  1.00  0.00     0.253 C 
BRANCH   8   9
HETATM    9  N4  UNL     1      12.123 -17.073 -43.753  1.00  0.00    -0.078 N 
ATOM     10  H43 UNL     1      12.757 -17.762 -44.157  1.00  0.00     0.274 HD
ATOM     11  H42 UNL     1      12.688 -16.251 -43.963  1.00  0.00     0.274 HD
ATOM     12  H41 UNL     1      11.951 -17.210 -42.757  1.00  0.00     0.274 HD
ENDBRANCH   8   9
ENDBRANCH   7   8
ENDBRANCH   5   7
TORSDOF 3
ENDMDL
MODEL 4
REMARK VINA RESULT: -4.764292424      3.637      4.033
REMARK  3 active torsions:
REMARK  status: ('A' for Active; 'I' for Inactive)
REMARK    1  A    between atoms: N3_5  and  C2_6 
REMARK    2  A    between atoms: C2_6  and  C3_7 
REMARK    3  A    between atoms: C3_7  and  N4_8 
ROOT
HETATM    1  C1  UNL     1       8.418 -16.719 -39.623  1.00  0.00     0.195 C 
HETATM    2  N1  UNL     1       9.403 -17.005 -40.655  1.00  0.00    -0.197 N 
HETATM    3  N2  UNL     1      10.721 -16.956 -40.527  1.00  0.00     0.064 NA
HETATM    4  O1  UNL     1      11.266 -17.280 -41.675  1.00  0.00    -0.125 OA
HETATM    5  N3  UNL     1      10.340 -17.538 -42.550  1.00  0.00    -0.157 N 
HETATM    6  N5  UNL     1       9.190 -17.365 -41.908  1.00  0.00     0.019 NA
ENDROOT
BRANCH   5   7
HETATM    7  C2  UNL     1      10.497 -17.935 -43.941  1.00  0.00     0.204 C 
BRANCH   7   8
HETATM    8  C3  UNL     1      11.232 -16.873 -44.737  1.00  0.00     0.253 C 
BRANCH   8   9
HETATM    9  N4  UNL     1      12.619 -16.919 -44.267  1.00  0.00    -0.078 N 
ATOM     10  H43 UNL     1      13.209 -17.563 -44.794  1.00  0.00     0.274 HD
ATOM     11  H42 UNL     1      13.150 -16.073 -44.473  1.00  0.00     0.274 HD
ATOM     12  H41 UNL     1      12.563 -17.137 -43.272  1.00  0.00     0.274 HD
ENDBRANCH   8   9
ENDBRANCH   7   8
ENDBRANCH   5   7
TORSDOF 3
ENDMDL
MODEL 5
REMARK VINA RESULT: -4.759750092      3.030      3.777
REMARK  3 active torsions:
REMARK  status: ('A' for Active; 'I' for Inactive)
REMARK    1  A    between atoms: N3_5  and  C2_6 
REMARK    2  A    between atoms: C2_6  and  C3_7 
REMARK    3  A    between atoms: C3_7  and  N4_8 
ROOT
HETATM    1  C1  UNL     1       8.664 -20.881 -42.369  1.00  0.00     0.195 C 
HETATM    2  N1  UNL     1       8.754 -19.429 -42.338  1.00  0.00    -0.197 N 
HETATM    3  N2  UNL     1       7.889 -18.594 -41.783  1.00  0.00     0.064 NA
HETATM    4  O1  UNL     1       8.315 -17.367 -41.961  1.00  0.00    -0.125 OA
HETATM    5  N3  UNL     1       9.437 -17.377 -42.619  1.00  0.00    -0.157 N 
HETATM    6  N5  UNL     1       9.700 -18.660 -42.847  1.00  0.00     0.019 NA
ENDROOT
BRANCH   5   7
HETATM    7  C2  UNL     1      10.253 -16.246 -43.030  1.00  0.00     0.204 C 
BRANCH   7   8
HETATM    8  C3  UNL     1      10.960 -16.524 -44.344  1.00  0.00     0.253 C 
BRANCH   8   9
HETATM    9  N4  UNL     1      12.270 -17.069 -43.976  1.00  0.00    -0.078 N 
ATOM     10  H43 UNL     1      12.335 -17.359 -43.001  1.00  0.00     0.274 HD
ATOM     11  H42 UNL     1      12.465 -17.982 -44.387  1.00  0.00     0.274 HD
ATOM     12  H41 UNL     1      12.947 -16.351 -44.235  1.00  0.00     0.274 HD
ENDBRANCH   8   9
ENDBRANCH   7   8
ENDBRANCH   5   7
TORSDOF 3
ENDMDL
