MODEL 1
REMARK VINA RESULT: -5.139051401      0.000      0.000
REMARK  2 active torsions:
REMARK  status: ('A' for Active; 'I' for Inactive)
REMARK    1  A    between atoms: O1_2  and  C2_3 
REMARK    2  A    between atoms: C2_3  and  N1_4 
ROOT
HETATM    1  N1  UNL     1      10.542 -17.418 -43.279  1.00  0.00    -0.240 N 
HETATM    2  N2  UNL     1      11.766 -17.046 -42.982  1.00  0.00    -0.223 N 
ATOM      3  H2  UNL     1      12.119 -16.897 -42.037  1.00  0.00     0.210 HD
HETATM    4  N3  UNL     1      12.467 -16.893 -44.071  1.00  0.00    -0.227 N 
ATOM      5  H3  UNL     1      13.446 -16.609 -44.114  1.00  0.00     0.210 HD
HETATM    6  N4  UNL     1      11.704 -17.164 -45.103  1.00  0.00    -0.272 N 
ATOM      7  H4  UNL     1      11.977 -17.131 -46.086  1.00  0.00     0.190 HD
HETATM    8  C3  UNL     1      10.498 -17.494 -44.619  1.00  0.00     0.114 A 
HETATM    9  C4  UNL     1       9.351 -17.870 -45.488  1.00  0.00     0.092 C 
ENDROOT
BRANCH   1  10
HETATM   10  C2  UNL     1       9.492 -17.680 -42.337  1.00  0.00     0.319 C 
BRANCH  10  11
HETATM   11  O1  UNL     1       8.771 -16.518 -42.007  1.00  0.00    -0.375 OA
HETATM   12  C1  UNL     1       8.995 -16.297 -40.634  1.00  0.00     0.203 C 
ENDBRANCH  10  11
ENDBRANCH   1  10
TORSDOF 2
ENDMDL
MODEL 2
REMARK VINA RESULT: -5.129142242      1.167      1.450
REMARK  2 active torsions:
REMARK  status: ('A' for Active; 'I' for Inactive)
REMARK    1  A    between atoms: O1_2  and  C2_3 
REMARK    2  A    between atoms: C2_3  and  N1_4 
ROOT
HETATM    1  N1  UNL     1      10.618 -17.360 -43.456  1.00  0.00    -0.240 N 
HETATM    2  N2  UNL     1      11.844 -16.999 -43.149  1.00  0.00    -0.223 N 
ATOM      3  H2  UNL     1      12.186 -16.841 -42.201  1.00  0.00     0.210 HD
HETATM    4  N3  UNL     1      12.560 -16.872 -44.231  1.00  0.00    -0.227 N 
ATOM      5  H3  UNL     1      13.543 -16.602 -44.265  1.00  0.00     0.210 HD
HETATM    6  N4  UNL     1      11.808 -17.150 -45.269  1.00  0.00    -0.272 N 
ATOM      7  H4  UNL     1      12.094 -17.135 -46.248  1.00  0.00     0.190 HD
HETATM    8  C3  UNL     1      10.591 -17.456 -44.796  1.00  0.00     0.114 A 
HETATM    9  C4  UNL     1       9.450 -17.831 -45.674  1.00  0.00     0.092 C 
ENDROOT
BRANCH   1  10
HETATM   10  C2  UNL     1       9.554 -17.594 -42.525  1.00  0.00     0.319 C 
BRANCH  10  11
HETATM   11  O1  UNL     1       9.357 -18.964 -42.274  1.00  0.00    -0.375 OA
HETATM   12  C1  UNL     1       7.966 -19.176 -42.336  1.00  0.00     0.203 C 
ENDBRANCH  10  11
ENDBRANCH   1  10
TORSDOF 2
ENDMDL
MODEL 3
REMARK VINA RESULT: -4.996007902      2.126      3.377
REMARK  2 active torsions:
REMARK  status: ('A' for Active; 'I' for Inactive)
REMARK    1  A    between atoms: O1_2  and  C2_3 
REMARK    2  A    between atoms: C2_3  and  N1_4 
ROOT
HETATM    1  N1  UNL     1       9.722 -17.724 -42.048  1.00  0.00    -0.240 N 
HETATM    2  N2  UNL     1      10.795 -17.707 -42.807  1.00  0.00    -0.223 N 
ATOM      3  H2  UNL     1      10.921 -18.266 -43.651  1.00  0.00     0.210 HD
HETATM    4  N3  UNL     1      11.674 -16.874 -42.326  1.00  0.00    -0.227 N 
ATOM      5  H3  UNL     1      12.590 -16.678 -42.730  1.00  0.00     0.210 HD
HETATM    6  N4  UNL     1      11.187 -16.330 -41.237  1.00  0.00    -0.272 N 
ATOM      7  H4  UNL     1      11.648 -15.640 -40.644  1.00  0.00     0.190 HD
HETATM    8  C3  UNL     1       9.967 -16.854 -41.053  1.00  0.00     0.114 A 
HETATM    9  C4  UNL     1       9.088 -16.483 -39.912  1.00  0.00     0.092 C 
ENDROOT
BRANCH   1  10
HETATM   10  C2  UNL     1       8.551 -18.521 -42.267  1.00  0.00     0.319 C 
BRANCH  10  11
HETATM   11  O1  UNL     1       8.175 -18.554 -43.622  1.00  0.00    -0.375 OA
HETATM   12  C1  UNL     1       7.398 -19.718 -43.783  1.00  0.00     0.203 C 
ENDBRANCH  10  11
ENDBRANCH   1  10
TORSDOF 2
ENDMDL
MODEL 4
REMARK VINA RESULT: -4.986592727      1.841      2.986
REMARK  2 active torsions:
REMARK  status: ('A' for Active; 'I' for Inactive)
REMARK    1  A    between atoms: O1_2  and  C2_3 
REMARK    2  A    between atoms: C2_3  and  N1_4 
ROOT
HETATM    1  N1  UNL     1      10.098 -18.150 -42.861  1.00  0.00    -0.240 N 
HETATM    2  N2  UNL     1      10.934 -18.196 -43.874  1.00  0.00    -0.223 N 
ATOM      3  H2  UNL     1      10.836 -18.807 -44.685  1.00  0.00     0.210 HD
HETATM    4  N3  UNL     1      11.908 -17.348 -43.693  1.00  0.00    -0.227 N 
ATOM      5  H3  UNL     1      12.686 -17.191 -44.334  1.00  0.00     0.210 HD
HETATM    6  N4  UNL     1      11.723 -16.732 -42.550  1.00  0.00    -0.272 N 
ATOM      7  H4  UNL     1      12.323 -16.014 -42.143  1.00  0.00     0.190 HD
HETATM    8  C3  UNL     1      10.594 -17.225 -42.021  1.00  0.00     0.114 A 
HETATM    9  C4  UNL     1      10.044 -16.772 -40.716  1.00  0.00     0.092 C 
ENDROOT
BRANCH   1  10
HETATM   10  C2  UNL     1       8.911 -18.940 -42.715  1.00  0.00     0.319 C 
BRANCH  10  11
HETATM   11  O1  UNL     1       7.945 -18.635 -43.691  1.00  0.00    -0.375 OA
HETATM   12  C1  UNL     1       7.527 -19.869 -44.225  1.00  0.00     0.203 C 
ENDBRANCH  10  11
ENDBRANCH   1  10
TORSDOF 2
ENDMDL
MODEL 5
REMARK VINA RESULT: -4.880996044      1.738      2.909
REMARK  2 active torsions:
REMARK  status: ('A' for Active; 'I' for Inactive)
REMARK    1  A    between atoms: O1_2  and  C2_3 
REMARK    2  A    between atoms: C2_3  and  N1_4 
ROOT
HETATM    1  N1  UNL     1      10.484 -17.581 -44.516  1.00  0.00    -0.240 N 
HETATM    2  N2  UNL     1      11.641 -17.337 -45.090  1.00  0.00    -0.223 N 
ATOM      3  H2  UNL     1      11.833 -17.448 -46.086  1.00  0.00     0.210 HD
HETATM    4  N3  UNL     1      12.507 -16.932 -44.204  1.00  0.00    -0.227 N 
ATOM      5  H3  UNL     1      13.477 -16.678 -44.394  1.00  0.00     0.210 HD
HETATM    6  N4  UNL     1      11.926 -16.906 -43.029  1.00  0.00    -0.272 N 
ATOM      7  H4  UNL     1      12.355 -16.631 -42.145  1.00  0.00     0.190 HD
HETATM    8  C3  UNL     1      10.661 -17.310 -43.212  1.00  0.00     0.114 A 
HETATM    9  C4  UNL     1       9.674 -17.415 -42.104  1.00  0.00     0.092 C 
ENDROOT
BRANCH   1  10
HETATM   10  C2  UNL     1       9.299 -18.042 -45.177  1.00  0.00     0.319 C 
BRANCH  10  11
HETATM   11  O1  UNL     1       9.043 -19.402 -44.927  1.00  0.00    -0.375 OA
HETATM   12  C1  UNL     1       7.705 -19.474 -44.492  1.00  0.00     0.203 C 
ENDBRANCH  10  11
ENDBRANCH   1  10
TORSDOF 2
ENDMDL
