MODEL 1
REMARK VINA RESULT: -5.222322935      0.000      0.000
REMARK  3 active torsions:
REMARK  status: ('A' for Active; 'I' for Inactive)
REMARK    1  A    between atoms: N1_1  and  C1_5 
REMARK    2  A    between atoms: C1_5  and  O1_6 
REMARK    3  A    between atoms: O1_6  and  C2_7 
ROOT
HETATM    1  C2  UNL     1       9.390 -16.840 -42.349  1.00  0.00     0.285 C 
HETATM    2  C3  UNL     1       8.986 -16.109 -41.095  1.00  0.00     0.228 C 
HETATM    3  O2  UNL     1       7.626 -16.432 -40.882  1.00  0.00    -0.384 OA
HETATM    4  C4  UNL     1       7.588 -17.781 -40.585  1.00  0.00     0.194 C 
HETATM    5  C5  UNL     1       8.214 -18.614 -41.687  1.00  0.00     0.197 C 
HETATM    6  O3  UNL     1       9.514 -18.196 -41.978  1.00  0.00    -0.357 OA
ENDROOT
BRANCH   1   7
HETATM    7  O1  UNL     1      10.557 -16.419 -42.907  1.00  0.00    -0.333 OA
BRANCH   7   8
HETATM    8  C1  UNL     1      11.362 -17.397 -43.419  1.00  0.00     0.400 C 
BRANCH   8   9
HETATM    9  N1  UNL     1      12.502 -16.912 -44.156  1.00  0.00    -0.058 N 
ATOM     10  H13 UNL     1      12.754 -17.570 -44.894  1.00  0.00     0.276 HD
ATOM     11  H12 UNL     1      12.241 -16.105 -44.723  1.00  0.00     0.276 HD
ATOM     12  H11 UNL     1      13.318 -16.693 -43.584  1.00  0.00     0.276 HD
ENDBRANCH   8   9
ENDBRANCH   7   8
ENDBRANCH   1   7
TORSDOF 3
ENDMDL
MODEL 2
REMARK VINA RESULT: -5.136310777      0.976      1.009
REMARK  3 active torsions:
REMARK  status: ('A' for Active; 'I' for Inactive)
REMARK    1  A    between atoms: N1_1  and  C1_5 
REMARK    2  A    between atoms: C1_5  and  O1_6 
REMARK    3  A    between atoms: O1_6  and  C2_7 
ROOT
HETATM    1  C2  UNL     1       9.926 -17.169 -41.823  1.00  0.00     0.285 C 
HETATM    2  C3  UNL     1      10.099 -16.354 -40.567  1.00  0.00     0.228 C 
HETATM    3  O2  UNL     1       8.829 -15.795 -40.293  1.00  0.00    -0.384 OA
HETATM    4  C4  UNL     1       8.000 -16.852 -39.970  1.00  0.00     0.194 C 
HETATM    5  C5  UNL     1       7.949 -17.884 -41.081  1.00  0.00     0.197 C 
HETATM    6  O3  UNL     1       9.225 -18.330 -41.433  1.00  0.00    -0.357 OA
ENDROOT
BRANCH   1   7
HETATM    7  O1  UNL     1      11.086 -17.530 -42.436  1.00  0.00    -0.333 OA
BRANCH   7   8
HETATM    8  C1  UNL     1      11.211 -17.160 -43.745  1.00  0.00     0.400 C 
BRANCH   8   9
HETATM    9  N1  UNL     1      12.568 -16.946 -44.182  1.00  0.00    -0.058 N 
ATOM     10  H13 UNL     1      12.759 -17.489 -45.024  1.00  0.00     0.276 HD
ATOM     11  H12 UNL     1      12.677 -16.002 -44.553  1.00  0.00     0.276 HD
ATOM     12  H11 UNL     1      13.278 -17.132 -43.473  1.00  0.00     0.276 HD
ENDBRANCH   8   9
ENDBRANCH   7   8
ENDBRANCH   1   7
TORSDOF 3
ENDMDL
MODEL 3
REMARK VINA RESULT: -4.919879783      1.547      1.909
REMARK  3 active torsions:
REMARK  status: ('A' for Active; 'I' for Inactive)
REMARK    1  A    between atoms: N1_1  and  C1_5 
REMARK    2  A    between atoms: C1_5  and  O1_6 
REMARK    3  A    between atoms: O1_6  and  C2_7 
ROOT
HETATM    1  C2  UNL     1       9.631 -17.820 -43.127  1.00  0.00     0.285 C 
HETATM    2  C3  UNL     1       8.684 -17.873 -41.957  1.00  0.00     0.228 C 
HETATM    3  O2  UNL     1       7.704 -18.834 -42.299  1.00  0.00    -0.384 OA
HETATM    4  C4  UNL     1       8.353 -20.053 -42.340  1.00  0.00     0.194 C 
HETATM    5  C5  UNL     1       9.513 -20.037 -43.318  1.00  0.00     0.197 C 
HETATM    6  O3  UNL     1      10.405 -18.998 -43.047  1.00  0.00    -0.357 OA
ENDROOT
BRANCH   1   7
HETATM    7  O1  UNL     1      10.460 -16.740 -43.145  1.00  0.00    -0.333 OA
BRANCH   7   8
HETATM    8  C1  UNL     1      11.182 -16.560 -44.291  1.00  0.00     0.400 C 
BRANCH   8   9
HETATM    9  N1  UNL     1      12.556 -16.990 -44.209  1.00  0.00    -0.058 N 
ATOM     10  H13 UNL     1      13.164 -16.197 -44.005  1.00  0.00     0.276 HD
ATOM     11  H12 UNL     1      12.704 -17.546 -43.367  1.00  0.00     0.276 HD
ATOM     12  H11 UNL     1      12.893 -17.494 -45.030  1.00  0.00     0.276 HD
ENDBRANCH   8   9
ENDBRANCH   7   8
ENDBRANCH   1   7
TORSDOF 3
ENDMDL
MODEL 4
REMARK VINA RESULT: -4.911691351      2.086      2.722
REMARK  3 active torsions:
REMARK  status: ('A' for Active; 'I' for Inactive)
REMARK    1  A    between atoms: N1_1  and  C1_5 
REMARK    2  A    between atoms: C1_5  and  O1_6 
REMARK    3  A    between atoms: O1_6  and  C2_7 
ROOT
HETATM    1  C2  UNL     1       9.423 -18.519 -43.031  1.00  0.00     0.285 C 
HETATM    2  C3  UNL     1       8.514 -19.479 -42.307  1.00  0.00     0.228 C 
HETATM    3  O2  UNL     1       7.225 -19.270 -42.850  1.00  0.00    -0.384 OA
HETATM    4  C4  UNL     1       7.283 -19.693 -44.164  1.00  0.00     0.194 C 
HETATM    5  C5  UNL     1       8.361 -18.961 -44.940  1.00  0.00     0.197 C 
HETATM    6  O3  UNL     1       9.608 -19.065 -44.320  1.00  0.00    -0.357 OA
ENDROOT
BRANCH   1   7
HETATM    7  O1  UNL     1      10.637 -18.329 -42.447  1.00  0.00    -0.333 OA
BRANCH   7   8
HETATM    8  C1  UNL     1      11.248 -17.136 -42.713  1.00  0.00     0.400 C 
BRANCH   8   9
HETATM    9  N1  UNL     1      12.106 -17.146 -43.871  1.00  0.00    -0.058 N 
ATOM     10  H13 UNL     1      12.357 -18.103 -44.118  1.00  0.00     0.276 HD
ATOM     11  H12 UNL     1      11.580 -16.882 -44.705  1.00  0.00     0.276 HD
ATOM     12  H11 UNL     1      12.945 -16.571 -43.785  1.00  0.00     0.276 HD
ENDBRANCH   8   9
ENDBRANCH   7   8
ENDBRANCH   1   7
TORSDOF 3
ENDMDL
MODEL 5
REMARK VINA RESULT: -4.875274685      0.961      1.775
REMARK  3 active torsions:
REMARK  status: ('A' for Active; 'I' for Inactive)
REMARK    1  A    between atoms: N1_1  and  C1_5 
REMARK    2  A    between atoms: C1_5  and  O1_6 
REMARK    3  A    between atoms: O1_6  and  C2_7 
ROOT
HETATM    1  C2  UNL     1       9.778 -16.610 -42.499  1.00  0.00     0.285 C 
HETATM    2  C3  UNL     1       9.141 -17.928 -42.857  1.00  0.00     0.228 C 
HETATM    3  O2  UNL     1       8.971 -18.618 -41.634  1.00  0.00    -0.384 OA
HETATM    4  C4  UNL     1       8.032 -17.906 -40.913  1.00  0.00     0.194 C 
HETATM    5  C5  UNL     1       8.458 -16.465 -40.709  1.00  0.00     0.197 C 
HETATM    6  O3  UNL     1       8.751 -15.834 -41.919  1.00  0.00    -0.357 OA
ENDROOT
BRANCH   1   7
HETATM    7  O1  UNL     1      10.317 -15.931 -43.547  1.00  0.00    -0.333 OA
BRANCH   7   8
HETATM    8  C1  UNL     1      11.022 -16.679 -44.447  1.00  0.00     0.400 C 
BRANCH   8   9
HETATM    9  N1  UNL     1      12.398 -16.913 -44.086  1.00  0.00    -0.058 N 
ATOM     10  H13 UNL     1      12.468 -17.166 -43.101  1.00  0.00     0.276 HD
ATOM     11  H12 UNL     1      12.735 -17.776 -44.514  1.00  0.00     0.276 HD
ATOM     12  H11 UNL     1      13.031 -16.141 -44.300  1.00  0.00     0.276 HD
ENDBRANCH   8   9
ENDBRANCH   7   8
ENDBRANCH   1   7
TORSDOF 3
ENDMDL
