MODEL 1
REMARK VINA RESULT: -4.707519958      0.000      0.000
REMARK  3 active torsions:
REMARK  status: ('A' for Active; 'I' for Inactive)
REMARK    1  A    between atoms: O1_2  and  C2_3 
REMARK    2  A    between atoms: C2_3  and  C3_4 
REMARK    3  A    between atoms: C3_4  and  N1_5 
ROOT
HETATM    1  N1  UNL     1      10.430 -16.631 -42.986  1.00  0.00    -0.217 N 
HETATM    2  N2  UNL     1      10.241 -16.548 -44.284  1.00  0.00    -0.277 N 
ATOM      3  H2  UNL     1       9.354 -16.324 -44.734  1.00  0.00     0.189 HD
HETATM    4  C4  UNL     1      11.391 -16.802 -44.930  1.00  0.00     0.216 A 
HETATM    5  N3  UNL     1      12.295 -17.047 -43.964  1.00  0.00    -0.279 N 
ATOM      6  H3  UNL     1      13.278 -17.276 -44.111  1.00  0.00     0.189 HD
HETATM    7  N4  UNL     1      11.698 -16.939 -42.805  1.00  0.00    -0.225 N 
ATOM      8  H4  UNL     1      12.147 -17.073 -41.899  1.00  0.00     0.210 HD
ENDROOT
BRANCH   1   9
HETATM    9  C3  UNL     1       9.438 -16.427 -41.919  1.00  0.00     0.197 C 
BRANCH   9  10
HETATM   10  C2  UNL     1       8.783 -17.726 -41.543  1.00  0.00     0.190 C 
BRANCH  10  11
HETATM   11  O1  UNL     1       9.331 -18.789 -42.237  1.00  0.00    -0.394 OA
HETATM   12  C1  UNL     1       8.482 -19.839 -42.466  1.00  0.00     0.201 C 
ENDBRANCH  10  11
ENDBRANCH   9  10
ENDBRANCH   1   9
TORSDOF 3
ENDMDL
MODEL 2
REMARK VINA RESULT: -4.648986299      1.439      1.811
REMARK  3 active torsions:
REMARK  status: ('A' for Active; 'I' for Inactive)
REMARK    1  A    between atoms: O1_2  and  C2_3 
REMARK    2  A    between atoms: C2_3  and  C3_4 
REMARK    3  A    between atoms: C3_4  and  N1_5 
ROOT
HETATM    1  N1  UNL     1      10.429 -17.217 -43.229  1.00  0.00    -0.217 N 
HETATM    2  N2  UNL     1      10.324 -17.035 -44.526  1.00  0.00    -0.277 N 
ATOM      3  H2  UNL     1       9.449 -17.050 -45.050  1.00  0.00     0.189 HD
HETATM    4  C4  UNL     1      11.538 -16.827 -45.058  1.00  0.00     0.216 A 
HETATM    5  N3  UNL     1      12.396 -16.891 -44.024  1.00  0.00    -0.279 N 
ATOM      6  H3  UNL     1      13.408 -16.775 -44.080  1.00  0.00     0.189 HD
HETATM    7  N4  UNL     1      11.711 -17.125 -42.935  1.00  0.00    -0.225 N 
ATOM      8  H4  UNL     1      12.108 -17.222 -42.000  1.00  0.00     0.210 HD
ENDROOT
BRANCH   1   9
HETATM    9  C3  UNL     1       9.347 -17.476 -42.266  1.00  0.00     0.197 C 
BRANCH   9  10
HETATM   10  C2  UNL     1       8.924 -16.205 -41.584  1.00  0.00     0.190 C 
BRANCH  10  11
HETATM   11  O1  UNL     1       7.798 -16.398 -40.806  1.00  0.00    -0.394 OA
HETATM   12  C1  UNL     1       7.978 -17.178 -39.695  1.00  0.00     0.201 C 
ENDBRANCH  10  11
ENDBRANCH   9  10
ENDBRANCH   1   9
TORSDOF 3
ENDMDL
MODEL 3
REMARK VINA RESULT: -4.429236114      2.012      2.232
REMARK  3 active torsions:
REMARK  status: ('A' for Active; 'I' for Inactive)
REMARK    1  A    between atoms: O1_2  and  C2_3 
REMARK    2  A    between atoms: C2_3  and  C3_4 
REMARK    3  A    between atoms: C3_4  and  N1_5 
ROOT
HETATM    1  N1  UNL     1      10.834 -17.561 -44.426  1.00  0.00    -0.217 N 
HETATM    2  N2  UNL     1      11.248 -17.257 -45.635  1.00  0.00    -0.277 N 
ATOM      3  H2  UNL     1      10.704 -17.379 -46.489  1.00  0.00     0.189 HD
HETATM    4  C4  UNL     1      12.495 -16.763 -45.580  1.00  0.00     0.216 A 
HETATM    5  N3  UNL     1      12.827 -16.779 -44.277  1.00  0.00    -0.279 N 
ATOM      6  H3  UNL     1      13.715 -16.467 -43.883  1.00  0.00     0.189 HD
HETATM    7  N4  UNL     1      11.817 -17.261 -43.601  1.00  0.00    -0.225 N 
ATOM      8  H4  UNL     1      11.793 -17.386 -42.588  1.00  0.00     0.210 HD
ENDROOT
BRANCH   1   9
HETATM    9  C3  UNL     1       9.533 -18.128 -44.037  1.00  0.00     0.197 C 
BRANCH   9  10
HETATM   10  C2  UNL     1       8.755 -18.560 -45.247  1.00  0.00     0.190 C 
BRANCH  10  11
HETATM   11  O1  UNL     1       7.468 -18.937 -44.914  1.00  0.00    -0.394 OA
HETATM   12  C1  UNL     1       7.358 -19.730 -43.803  1.00  0.00     0.201 C 
ENDBRANCH  10  11
ENDBRANCH   9  10
ENDBRANCH   1   9
TORSDOF 3
ENDMDL
MODEL 4
REMARK VINA RESULT: -4.425550828      1.214      1.471
REMARK  3 active torsions:
REMARK  status: ('A' for Active; 'I' for Inactive)
REMARK    1  A    between atoms: O1_2  and  C2_3 
REMARK    2  A    between atoms: C2_3  and  C3_4 
REMARK    3  A    between atoms: C3_4  and  N1_5 
ROOT
HETATM    1  N1  UNL     1      10.255 -16.742 -42.004  1.00  0.00    -0.217 N 
HETATM    2  N2  UNL     1      11.000 -17.634 -42.618  1.00  0.00    -0.277 N 
ATOM      3  H2  UNL     1      11.212 -18.566 -42.260  1.00  0.00     0.189 HD
HETATM    4  C4  UNL     1      11.440 -17.137 -43.784  1.00  0.00     0.216 A 
HETATM    5  N3  UNL     1      10.930 -15.895 -43.857  1.00  0.00    -0.279 N 
ATOM      6  H3  UNL     1      11.071 -15.236 -44.623  1.00  0.00     0.189 HD
HETATM    7  N4  UNL     1      10.221 -15.677 -42.779  1.00  0.00    -0.225 N 
ATOM      8  H4  UNL     1       9.719 -14.814 -42.571  1.00  0.00     0.210 HD
ENDROOT
BRANCH   1   9
HETATM    9  C3  UNL     1       9.577 -16.876 -40.705  1.00  0.00     0.197 C 
BRANCH   9  10
HETATM   10  C2  UNL     1       8.308 -17.668 -40.844  1.00  0.00     0.190 C 
BRANCH  10  11
HETATM   11  O1  UNL     1       8.061 -18.002 -42.162  1.00  0.00    -0.394 OA
HETATM   12  C1  UNL     1       7.708 -19.307 -42.380  1.00  0.00     0.201 C 
ENDBRANCH  10  11
ENDBRANCH   9  10
ENDBRANCH   1   9
TORSDOF 3
ENDMDL
MODEL 5
REMARK VINA RESULT: -4.417453456      1.553      2.493
REMARK  3 active torsions:
REMARK  status: ('A' for Active; 'I' for Inactive)
REMARK    1  A    between atoms: O1_2  and  C2_3 
REMARK    2  A    between atoms: C2_3  and  C3_4 
REMARK    3  A    between atoms: C3_4  and  N1_5 
ROOT
HETATM    1  N1  UNL     1      10.118 -17.377 -42.732  1.00  0.00    -0.217 N 
HETATM    2  N2  UNL     1       9.452 -17.141 -41.624  1.00  0.00    -0.277 N 
ATOM      3  H2  UNL     1       8.450 -17.288 -41.500  1.00  0.00     0.189 HD
HETATM    4  C4  UNL     1      10.286 -16.680 -40.679  1.00  0.00     0.216 A 
HETATM    5  N3  UNL     1      11.498 -16.642 -41.261  1.00  0.00    -0.279 N 
ATOM      6  H3  UNL     1      12.365 -16.336 -40.817  1.00  0.00     0.189 HD
HETATM    7  N4  UNL     1      11.376 -17.064 -42.493  1.00  0.00    -0.225 N 
ATOM      8  H4  UNL     1      12.139 -17.140 -43.166  1.00  0.00     0.210 HD
ENDROOT
BRANCH   1   9
HETATM    9  C3  UNL     1       9.591 -17.888 -44.007  1.00  0.00     0.197 C 
BRANCH   9  10
HETATM   10  C2  UNL     1       9.719 -19.383 -44.076  1.00  0.00     0.190 C 
BRANCH  10  11
HETATM   11  O1  UNL     1       9.812 -19.943 -42.816  1.00  0.00    -0.394 OA
HETATM   12  C1  UNL     1       8.810 -20.816 -42.486  1.00  0.00     0.201 C 
ENDBRANCH  10  11
ENDBRANCH   9  10
ENDBRANCH   1   9
TORSDOF 3
ENDMDL
