MODEL 1
REMARK VINA RESULT: -8.273835165      0.000      0.000
REMARK  3 active torsions:
REMARK  status: ('A' for Active; 'I' for Inactive)
REMARK    1  A    between atoms: N1_5  and  C5_6 
REMARK    2  A    between atoms: C5_6  and  C6_7 
REMARK    3  A    between atoms: C8_9  and  N2_10 
ROOT
HETATM    1  C6  UNL     1      -5.398   3.149  14.772  1.00  0.00     0.074 A 
HETATM    2  C7  UNL     1      -4.877   2.790  13.524  1.00  0.00     0.078 A 
HETATM    3  C8  UNL     1      -4.344   1.551  13.292  1.00  0.00     0.121 A 
HETATM    4  N4  UNL     1      -4.342   0.689  14.322  1.00  0.00    -0.175 N 
ATOM      5  H4  UNL     1      -3.950  -0.242  14.177  1.00  0.00     0.186 HD
HETATM    6  C13 UNL     1      -4.833   0.994  15.540  1.00  0.00     0.706 A 
HETATM    7  N5  UNL     1      -4.928   0.273  16.678  1.00  0.00    -0.185 N 
ATOM      8  H5  UNL     1      -4.614  -0.688  16.813  1.00  0.00     0.185 HD
HETATM    9  C14 UNL     1      -5.512   1.053  17.597  1.00  0.00     0.215 A 
HETATM   10  N6  UNL     1      -5.760   2.221  17.014  1.00  0.00    -0.275 N 
ATOM     11  H6  UNL     1      -6.202   3.017  17.475  1.00  0.00     0.189 HD
HETATM   12  N7  UNL     1      -5.356   2.211  15.763  1.00  0.00    -0.088 N 
ENDROOT
BRANCH   1  13
HETATM   13  C5  UNL     1      -5.979   4.475  14.958  1.00  0.00     0.188 C 
BRANCH  13  14
HETATM   14  N1  UNL     1      -5.760   5.434  13.933  1.00  0.00    -0.353 N 
HETATM   15  C4  UNL     1      -4.570   6.003  13.718  1.00  0.00     0.045 A 
HETATM   16  C3  UNL     1      -4.411   6.942  12.691  1.00  0.00    -0.008 A 
HETATM   17  C16 UNL     1      -3.221   5.912  14.341  1.00  0.00     0.290 C 
HETATM   18  C2  UNL     1      -5.474   7.288  11.896  1.00  0.00     0.012 A 
HETATM   19  C17 UNL     1      -2.992   7.413  12.679  1.00  0.00     0.273 C 
HETATM   20  C1  UNL     1      -6.698   6.707  12.113  1.00  0.00     0.018 A 
HETATM   21  C15 UNL     1      -6.806   5.791  13.132  1.00  0.00     0.091 A 
HETATM   22  N8  UNL     1      -2.674   7.233  14.106  1.00  0.00    -0.066 N 
ATOM     23  H82 UNL     1      -3.014   7.968  14.728  1.00  0.00     0.277 HD
ATOM     24  H81 UNL     1      -1.692   7.354  14.356  1.00  0.00     0.277 HD
ENDBRANCH  13  14
ENDBRANCH   1  13
BRANCH   3  25
HETATM   25  N2  UNL     1      -3.827   1.224  12.021  1.00  0.00    -0.357 N 
HETATM   26  C9  UNL     1      -2.631   1.931  11.534  1.00  0.00     0.169 C 
HETATM   27  C10 UNL     1      -1.590   0.938  11.135  1.00  0.00     0.080 C 
HETATM   28  N3  UNL     1      -1.959  -0.397  11.031  1.00  0.00    -0.379 N 
HETATM   29  C11 UNL     1      -3.282  -0.800  10.933  1.00  0.00     0.080 C 
ATOM     30  H3  UNL     1      -1.229  -1.108  11.027  1.00  0.00     0.164 HD
HETATM   31  C12 UNL     1      -4.340   0.249  11.100  1.00  0.00     0.169 C 
ENDBRANCH   3  25
TORSDOF 3
ENDMDL
MODEL 2
REMARK VINA RESULT: -7.952561264      1.874      6.153
REMARK  3 active torsions:
REMARK  status: ('A' for Active; 'I' for Inactive)
REMARK    1  A    between atoms: N1_5  and  C5_6 
REMARK    2  A    between atoms: C5_6  and  C6_7 
REMARK    3  A    between atoms: C8_9  and  N2_10 
ROOT
HETATM    1  C6  UNL     1      -5.271   3.818  12.288  1.00  0.00     0.074 A 
HETATM    2  C7  UNL     1      -5.127   3.085  13.471  1.00  0.00     0.078 A 
HETATM    3  C8  UNL     1      -5.607   3.544  14.668  1.00  0.00     0.121 A 
HETATM    4  N4  UNL     1      -6.225   4.736  14.658  1.00  0.00    -0.175 N 
ATOM      5  H4  UNL     1      -6.591   5.101  15.538  1.00  0.00     0.186 HD
HETATM    6  C13 UNL     1      -6.385   5.474  13.542  1.00  0.00     0.706 A 
HETATM    7  N5  UNL     1      -6.976   6.669  13.331  1.00  0.00    -0.185 N 
ATOM      8  H5  UNL     1      -7.424   7.255  14.035  1.00  0.00     0.185 HD
HETATM    9  C14 UNL     1      -6.865   6.944  12.024  1.00  0.00     0.215 A 
HETATM   10  N6  UNL     1      -6.217   5.928  11.467  1.00  0.00    -0.275 N 
ATOM     11  H6  UNL     1      -5.985   5.860  10.475  1.00  0.00     0.189 HD
HETATM   12  N7  UNL     1      -5.913   5.020  12.368  1.00  0.00    -0.088 N 
ENDROOT
BRANCH   1  13
HETATM   13  C5  UNL     1      -4.764   3.271  11.033  1.00  0.00     0.188 C 
BRANCH  13  14
HETATM   14  N1  UNL     1      -3.605   2.452  11.098  1.00  0.00    -0.353 N 
HETATM   15  C4  UNL     1      -3.662   1.116  11.074  1.00  0.00     0.045 A 
HETATM   16  C3  UNL     1      -2.486   0.359  11.140  1.00  0.00    -0.008 A 
HETATM   17  C16 UNL     1      -4.748   0.101  10.998  1.00  0.00     0.290 C 
HETATM   18  C2  UNL     1      -1.266   0.977  11.230  1.00  0.00     0.012 A 
HETATM   19  C17 UNL     1      -2.842  -1.094  11.098  1.00  0.00     0.273 C 
HETATM   20  C1  UNL     1      -1.202   2.347  11.256  1.00  0.00     0.018 A 
HETATM   21  C15 UNL     1      -2.382   3.049  11.188  1.00  0.00     0.091 A 
HETATM   22  N8  UNL     1      -4.179  -1.025  11.712  1.00  0.00    -0.066 N 
ATOM     23  H82 UNL     1      -4.191  -0.952  12.730  1.00  0.00     0.277 HD
ATOM     24  H81 UNL     1      -4.723  -1.887  11.679  1.00  0.00     0.277 HD
ENDBRANCH  13  14
ENDBRANCH   1  13
BRANCH   3  25
HETATM   25  N2  UNL     1      -5.442   2.777  15.841  1.00  0.00    -0.357 N 
HETATM   26  C9  UNL     1      -6.523   2.758  16.839  1.00  0.00     0.169 C 
HETATM   27  C10 UNL     1      -6.905   1.346  17.138  1.00  0.00     0.080 C 
HETATM   28  N3  UNL     1      -6.078   0.330  16.679  1.00  0.00    -0.379 N 
HETATM   29  C11 UNL     1      -4.770   0.556  16.277  1.00  0.00     0.080 C 
ATOM     30  H3  UNL     1      -6.447  -0.620  16.634  1.00  0.00     0.164 HD
HETATM   31  C12 UNL     1      -4.304   1.978  16.203  1.00  0.00     0.169 C 
ENDBRANCH   3  25
TORSDOF 3
ENDMDL
MODEL 3
REMARK VINA RESULT: -7.830155897      0.826      1.844
REMARK  3 active torsions:
REMARK  status: ('A' for Active; 'I' for Inactive)
REMARK    1  A    between atoms: N1_5  and  C5_6 
REMARK    2  A    between atoms: C5_6  and  C6_7 
REMARK    3  A    between atoms: C8_9  and  N2_10 
ROOT
HETATM    1  C6  UNL     1      -5.166   3.121  14.647  1.00  0.00     0.074 A 
HETATM    2  C7  UNL     1      -4.705   2.645  13.415  1.00  0.00     0.078 A 
HETATM    3  C8  UNL     1      -4.315   1.343  13.243  1.00  0.00     0.121 A 
HETATM    4  N4  UNL     1      -4.394   0.539  14.316  1.00  0.00    -0.175 N 
ATOM      5  H4  UNL     1      -4.109  -0.435  14.215  1.00  0.00     0.186 HD
HETATM    6  C13 UNL     1      -4.832   0.958  15.520  1.00  0.00     0.706 A 
HETATM    7  N5  UNL     1      -4.991   0.310  16.695  1.00  0.00    -0.185 N 
ATOM      8  H5  UNL     1      -4.782  -0.672  16.876  1.00  0.00     0.185 HD
HETATM    9  C14 UNL     1      -5.472   1.196  17.577  1.00  0.00     0.215 A 
HETATM   10  N6  UNL     1      -5.596   2.353  16.937  1.00  0.00    -0.275 N 
ATOM     11  H6  UNL     1      -5.941   3.216  17.359  1.00  0.00     0.189 HD
HETATM   12  N7  UNL     1      -5.214   2.235  15.685  1.00  0.00    -0.088 N 
ENDROOT
BRANCH   1  13
HETATM   13  C5  UNL     1      -5.593   4.512  14.769  1.00  0.00     0.188 C 
BRANCH  13  14
HETATM   14  N1  UNL     1      -4.797   5.499  14.130  1.00  0.00    -0.353 N 
HETATM   15  C4  UNL     1      -5.171   6.111  13.002  1.00  0.00     0.045 A 
HETATM   16  C3  UNL     1      -4.346   7.079  12.416  1.00  0.00    -0.008 A 
HETATM   17  C16 UNL     1      -6.347   6.034  12.093  1.00  0.00     0.290 C 
HETATM   18  C2  UNL     1      -3.146   7.408  12.991  1.00  0.00     0.012 A 
HETATM   19  C17 UNL     1      -5.006   7.591  11.175  1.00  0.00     0.273 C 
HETATM   20  C1  UNL     1      -2.756   6.782  14.149  1.00  0.00     0.018 A 
HETATM   21  C15 UNL     1      -3.599   5.840  14.688  1.00  0.00     0.091 A 
HETATM   22  N8  UNL     1      -5.778   6.393  10.809  1.00  0.00    -0.066 N 
ATOM     23  H82 UNL     1      -5.251   5.656  10.340  1.00  0.00     0.277 HD
ATOM     24  H81 UNL     1      -6.448   6.517  10.050  1.00  0.00     0.277 HD
ENDBRANCH  13  14
ENDBRANCH   1  13
BRANCH   3  25
HETATM   25  N2  UNL     1      -3.855   0.898  11.986  1.00  0.00    -0.357 N 
HETATM   26  C9  UNL     1      -2.656   1.522  11.403  1.00  0.00     0.169 C 
HETATM   27  C10 UNL     1      -1.662   0.465  11.052  1.00  0.00     0.080 C 
HETATM   28  N3  UNL     1      -2.076  -0.860  11.070  1.00  0.00    -0.379 N 
HETATM   29  C11 UNL     1      -3.414  -1.224  11.050  1.00  0.00     0.080 C 
ATOM     30  H3  UNL     1      -1.369  -1.594  11.099  1.00  0.00     0.164 HD
HETATM   31  C12 UNL     1      -4.432  -0.130  11.166  1.00  0.00     0.169 C 
ENDBRANCH   3  25
TORSDOF 3
ENDMDL
MODEL 4
REMARK VINA RESULT: -7.631312159      1.772      4.580
REMARK  3 active torsions:
REMARK  status: ('A' for Active; 'I' for Inactive)
REMARK    1  A    between atoms: N1_5  and  C5_6 
REMARK    2  A    between atoms: C5_6  and  C6_7 
REMARK    3  A    between atoms: C8_9  and  N2_10 
ROOT
HETATM    1  C6  UNL     1      -4.209   2.223  11.950  1.00  0.00     0.074 A 
HETATM    2  C7  UNL     1      -4.546   2.469  13.286  1.00  0.00     0.078 A 
HETATM    3  C8  UNL     1      -4.552   1.472  14.225  1.00  0.00     0.121 A 
HETATM    4  N4  UNL     1      -4.219   0.241  13.805  1.00  0.00    -0.175 N 
ATOM      5  H4  UNL     1      -4.216  -0.520  14.485  1.00  0.00     0.186 HD
HETATM    6  C13 UNL     1      -3.889  -0.039  12.529  1.00  0.00     0.706 A 
HETATM    7  N5  UNL     1      -3.521  -1.190  11.926  1.00  0.00    -0.185 N 
ATOM      8  H5  UNL     1      -3.436  -2.104  12.370  1.00  0.00     0.185 HD
HETATM    9  C14 UNL     1      -3.291  -0.909  10.636  1.00  0.00     0.215 A 
HETATM   10  N6  UNL     1      -3.519   0.389  10.475  1.00  0.00    -0.275 N 
ATOM     11  H6  UNL     1      -3.424   0.889   9.590  1.00  0.00     0.189 HD
HETATM   12  N7  UNL     1      -3.883   0.942  11.610  1.00  0.00    -0.088 N 
ENDROOT
BRANCH   1  13
HETATM   13  C5  UNL     1      -4.194   3.327  10.995  1.00  0.00     0.188 C 
BRANCH  13  14
HETATM   14  N1  UNL     1      -3.799   4.604  11.477  1.00  0.00    -0.353 N 
HETATM   15  C4  UNL     1      -2.543   4.880  11.845  1.00  0.00     0.045 A 
HETATM   16  C3  UNL     1      -2.210   6.157  12.312  1.00  0.00    -0.008 A 
HETATM   17  C16 UNL     1      -1.265   4.121  11.911  1.00  0.00     0.290 C 
HETATM   18  C2  UNL     1      -3.165   7.137  12.398  1.00  0.00     0.012 A 
HETATM   19  C17 UNL     1      -0.753   6.184  12.651  1.00  0.00     0.273 C 
HETATM   20  C1  UNL     1      -4.455   6.858  12.022  1.00  0.00     0.018 A 
HETATM   21  C15 UNL     1      -4.736   5.591  11.570  1.00  0.00     0.091 A 
HETATM   22  N8  UNL     1      -0.569   4.767  13.006  1.00  0.00    -0.066 N 
ATOM     23  H82 UNL     1      -0.881   4.504  13.942  1.00  0.00     0.277 HD
ATOM     24  H81 UNL     1       0.396   4.472  13.150  1.00  0.00     0.277 HD
ENDBRANCH  13  14
ENDBRANCH   1  13
BRANCH   3  25
HETATM   25  N2  UNL     1      -4.897   1.757  15.563  1.00  0.00    -0.357 N 
HETATM   26  C9  UNL     1      -5.775   2.904  15.844  1.00  0.00     0.169 C 
HETATM   27  C10 UNL     1      -6.940   2.454  16.663  1.00  0.00     0.080 C 
HETATM   28  N3  UNL     1      -6.899   1.186  17.225  1.00  0.00    -0.379 N 
HETATM   29  C11 UNL     1      -5.720   0.468  17.362  1.00  0.00     0.080 C 
ATOM     30  H3  UNL     1      -7.769   0.765  17.550  1.00  0.00     0.164 HD
HETATM   31  C12 UNL     1      -4.484   1.040  16.737  1.00  0.00     0.169 C 
ENDBRANCH   3  25
TORSDOF 3
ENDMDL
MODEL 5
REMARK VINA RESULT: -7.625414922      2.463      3.818
REMARK  3 active torsions:
REMARK  status: ('A' for Active; 'I' for Inactive)
REMARK    1  A    between atoms: N1_5  and  C5_6 
REMARK    2  A    between atoms: C5_6  and  C6_7 
REMARK    3  A    between atoms: C8_9  and  N2_10 
ROOT
HETATM    1  C6  UNL     1      -3.110   4.464  13.118  1.00  0.00     0.074 A 
HETATM    2  C7  UNL     1      -3.803   3.269  12.896  1.00  0.00     0.078 A 
HETATM    3  C8  UNL     1      -3.221   2.203  12.262  1.00  0.00     0.121 A 
HETATM    4  N4  UNL     1      -1.950   2.357  11.859  1.00  0.00    -0.175 N 
ATOM      5  H4  UNL     1      -1.493   1.579  11.383  1.00  0.00     0.186 HD
HETATM    6  C13 UNL     1      -1.247   3.491  12.053  1.00  0.00     0.706 A 
HETATM    7  N5  UNL     1       0.022   3.828  11.735  1.00  0.00    -0.185 N 
ATOM      8  H5  UNL     1       0.702   3.239  11.255  1.00  0.00     0.185 HD
HETATM    9  C14 UNL     1       0.222   5.081  12.168  1.00  0.00     0.215 A 
HETATM   10  N6  UNL     1      -0.911   5.482  12.733  1.00  0.00    -0.275 N 
ATOM     11  H6  UNL     1      -1.057   6.400  13.153  1.00  0.00     0.189 HD
HETATM   12  N7  UNL     1      -1.820   4.534  12.676  1.00  0.00    -0.088 N 
ENDROOT
BRANCH   1  13
HETATM   13  C5  UNL     1      -3.769   5.560  13.823  1.00  0.00     0.188 C 
BRANCH  13  14
HETATM   14  N1  UNL     1      -4.856   6.197  13.168  1.00  0.00    -0.353 N 
HETATM   15  C4  UNL     1      -4.688   7.065  12.165  1.00  0.00     0.045 A 
HETATM   16  C3  UNL     1      -5.797   7.663  11.555  1.00  0.00    -0.008 A 
HETATM   17  C16 UNL     1      -3.520   7.641  11.445  1.00  0.00     0.290 C 
HETATM   18  C2  UNL     1      -7.067   7.367  11.979  1.00  0.00     0.012 A 
HETATM   19  C17 UNL     1      -5.320   8.583  10.476  1.00  0.00     0.273 C 
HETATM   20  C1  UNL     1      -7.245   6.477  13.009  1.00  0.00     0.018 A 
HETATM   21  C15 UNL     1      -6.127   5.915  13.577  1.00  0.00     0.091 A 
HETATM   22  N8  UNL     1      -4.009   8.944  11.040  1.00  0.00    -0.066 N 
ATOM     23  H82 UNL     1      -4.025   9.655  11.772  1.00  0.00     0.277 HD
ATOM     24  H81 UNL     1      -3.394   9.472  10.420  1.00  0.00     0.277 HD
ENDBRANCH  13  14
ENDBRANCH   1  13
BRANCH   3  25
HETATM   25  N2  UNL     1      -3.951   1.014  12.055  1.00  0.00    -0.357 N 
HETATM   26  C9  UNL     1      -4.850   0.922  10.893  1.00  0.00     0.169 C 
HETATM   27  C10 UNL     1      -4.516  -0.296  10.096  1.00  0.00     0.080 C 
HETATM   28  N3  UNL     1      -3.661  -1.235  10.656  1.00  0.00    -0.379 N 
HETATM   29  C11 UNL     1      -3.388  -1.279  12.015  1.00  0.00     0.080 C 
ATOM     30  H3  UNL     1      -3.215  -1.919  10.045  1.00  0.00     0.164 HD
HETATM   31  C12 UNL     1      -3.928  -0.170  12.867  1.00  0.00     0.169 C 
ENDBRANCH   3  25
TORSDOF 3
ENDMDL
