MODEL 1
REMARK VINA RESULT: -7.799149921      0.000      0.000
REMARK  3 active torsions:
REMARK  status: ('A' for Active; 'I' for Inactive)
REMARK    1  A    between atoms: C4_6  and  C5_7 
REMARK    2  A    between atoms: N4_18  and  N5_19 
REMARK       I    between atoms: N5_19  and  C9_21 
REMARK    3  A    between atoms: C9_21  and  C10_23 
ROOT
HETATM    1  C1  UNL     1      -6.225   4.013  15.172  1.00  0.00     0.065 C 
HETATM    2  C2  UNL     1      -6.076   4.651  14.040  1.00  0.00     0.122 A 
HETATM    3  N1  UNL     1      -6.577   5.921  13.920  1.00  0.00    -0.337 N 
ATOM      4  H1  UNL     1      -7.026   6.457  14.662  1.00  0.00     0.167 HD
HETATM    5  C3  UNL     1      -6.380   6.339  12.668  1.00  0.00     0.105 A 
HETATM    6  C4  UNL     1      -6.727   7.526  12.148  1.00  0.00     0.055 C 
HETATM    7  C8  UNL     1      -5.753   5.318  12.023  1.00  0.00     0.295 A 
HETATM    8  O2  UNL     1      -5.396   5.324  10.822  1.00  0.00    -0.264 OA
HETATM    9  N4  UNL     1      -5.554   4.242  12.892  1.00  0.00    -0.200 N 
ENDROOT
BRANCH   6  10
HETATM   10  C5  UNL     1      -6.454   7.861  10.760  1.00  0.00     0.030 A 
HETATM   11  C6  UNL     1      -7.424   7.745   9.787  1.00  0.00     0.096 A 
HETATM   12  C7  UNL     1      -7.211   8.050   8.470  1.00  0.00     0.261 A 
HETATM   13  O1  UNL     1      -8.221   7.887   7.693  1.00  0.00    -0.267 OA
HETATM   14  N2  UNL     1      -6.089   8.488   7.922  1.00  0.00    -0.260 N 
HETATM   15  N3  UNL     1      -4.944   8.722   8.528  1.00  0.00    -0.266 N 
ATOM     16  H2  UNL     1      -6.114   8.663   6.918  1.00  0.00     0.191 HD
HETATM   17  S1  UNL     1      -4.953   8.418  10.180  1.00  0.00     0.001 SA
ATOM     18  H3  UNL     1      -4.118   9.061   8.035  1.00  0.00     0.195 HD
ENDBRANCH   6  10
BRANCH   9  19
HETATM   19  N5  UNL     1      -4.822   3.146  12.520  1.00  0.00    -0.254 N 
HETATM   20  C9  UNL     1      -5.057   2.074  11.670  1.00  0.00     0.270 C 
HETATM   21  O3  UNL     1      -6.101   1.867  11.039  1.00  0.00    -0.266 OA
ATOM     22  H5  UNL     1      -3.905   3.109  12.964  1.00  0.00     0.191 HD
BRANCH  20  23
HETATM   23  C10 UNL     1      -3.987   1.061  11.475  1.00  0.00     0.033 A 
HETATM   24  C11 UNL     1      -2.672   1.412  11.322  1.00  0.00     0.017 A 
HETATM   25  C12 UNL     1      -1.677   0.437  11.149  1.00  0.00     0.001 A 
HETATM   26  C13 UNL     1      -2.006  -0.898  11.130  1.00  0.00     0.000 A 
HETATM   27  C14 UNL     1      -3.332  -1.239  11.284  1.00  0.00     0.001 A 
HETATM   28  C15 UNL     1      -4.307  -0.281  11.453  1.00  0.00     0.017 A 
ENDBRANCH  20  23
ENDBRANCH   9  19
TORSDOF 3
ENDMDL
MODEL 2
REMARK VINA RESULT: -7.782336148      1.278      1.390
REMARK  3 active torsions:
REMARK  status: ('A' for Active; 'I' for Inactive)
REMARK    1  A    between atoms: C4_6  and  C5_7 
REMARK    2  A    between atoms: N4_18  and  N5_19 
REMARK       I    between atoms: N5_19  and  C9_21 
REMARK    3  A    between atoms: C9_21  and  C10_23 
ROOT
HETATM    1  C1  UNL     1      -6.219   4.387  15.019  1.00  0.00     0.065 C 
HETATM    2  C2  UNL     1      -6.113   4.959  13.848  1.00  0.00     0.122 A 
HETATM    3  N1  UNL     1      -6.656   6.205  13.662  1.00  0.00    -0.337 N 
ATOM      4  H1  UNL     1      -7.106   6.771  14.381  1.00  0.00     0.167 HD
HETATM    5  C3  UNL     1      -6.497   6.551  12.383  1.00  0.00     0.105 A 
HETATM    6  C4  UNL     1      -6.892   7.693  11.800  1.00  0.00     0.055 C 
HETATM    7  C8  UNL     1      -5.853   5.512  11.787  1.00  0.00     0.295 A 
HETATM    8  O2  UNL     1      -5.521   5.455  10.580  1.00  0.00    -0.264 OA
HETATM    9  N4  UNL     1      -5.602   4.497  12.715  1.00  0.00    -0.200 N 
ENDROOT
BRANCH   6  10
HETATM   10  C5  UNL     1      -6.658   7.951  10.390  1.00  0.00     0.030 A 
HETATM   11  C6  UNL     1      -5.518   8.595   9.955  1.00  0.00     0.096 A 
HETATM   12  C7  UNL     1      -5.257   8.857   8.637  1.00  0.00     0.261 A 
HETATM   13  O1  UNL     1      -4.150   9.466   8.403  1.00  0.00    -0.267 OA
HETATM   14  N2  UNL     1      -6.015   8.554   7.596  1.00  0.00    -0.260 N 
HETATM   15  N3  UNL     1      -7.178   7.937   7.609  1.00  0.00    -0.266 N 
ATOM     16  H2  UNL     1      -5.659   8.830   6.681  1.00  0.00     0.191 HD
HETATM   17  S1  UNL     1      -7.723   7.505   9.138  1.00  0.00     0.001 SA
ATOM     18  H3  UNL     1      -7.706   7.738   6.759  1.00  0.00     0.195 HD
ENDBRANCH   6  10
BRANCH   9  19
HETATM   19  N5  UNL     1      -4.845   3.403  12.394  1.00  0.00    -0.254 N 
HETATM   20  C9  UNL     1      -5.072   2.263  11.633  1.00  0.00     0.270 C 
HETATM   21  O3  UNL     1      -6.131   1.974  11.062  1.00  0.00    -0.266 OA
ATOM     22  H5  UNL     1      -3.910   3.430  12.801  1.00  0.00     0.191 HD
BRANCH  20  23
HETATM   23  C10 UNL     1      -3.973   1.276  11.468  1.00  0.00     0.033 A 
HETATM   24  C11 UNL     1      -2.666   1.660  11.331  1.00  0.00     0.017 A 
HETATM   25  C12 UNL     1      -1.643   0.709  11.187  1.00  0.00     0.001 A 
HETATM   26  C13 UNL     1      -1.936  -0.635  11.180  1.00  0.00     0.000 A 
HETATM   27  C14 UNL     1      -3.255  -1.008  11.317  1.00  0.00     0.001 A 
HETATM   28  C15 UNL     1      -4.257  -0.074  11.459  1.00  0.00     0.017 A 
ENDBRANCH  20  23
ENDBRANCH   9  19
TORSDOF 3
ENDMDL
MODEL 3
REMARK VINA RESULT: -7.746757644      4.791      6.866
REMARK  3 active torsions:
REMARK  status: ('A' for Active; 'I' for Inactive)
REMARK    1  A    between atoms: C4_6  and  C5_7 
REMARK    2  A    between atoms: N4_18  and  N5_19 
REMARK       I    between atoms: N5_19  and  C9_21 
REMARK    3  A    between atoms: C9_21  and  C10_23 
ROOT
HETATM    1  C1  UNL     1      -3.866  -1.051  11.842  1.00  0.00     0.065 C 
HETATM    2  C2  UNL     1      -3.295   0.125  11.816  1.00  0.00     0.122 A 
HETATM    3  N1  UNL     1      -2.433   0.426  10.793  1.00  0.00    -0.337 N 
ATOM      4  H1  UNL     1      -2.222  -0.175   9.996  1.00  0.00     0.167 HD
HETATM    5  C3  UNL     1      -1.916   1.636  11.015  1.00  0.00     0.105 A 
HETATM    6  C4  UNL     1      -1.031   2.290  10.246  1.00  0.00     0.055 C 
HETATM    7  C8  UNL     1      -2.468   2.076  12.178  1.00  0.00     0.295 A 
HETATM    8  O2  UNL     1      -2.233   3.178  12.726  1.00  0.00    -0.264 OA
HETATM    9  N4  UNL     1      -3.349   1.120  12.691  1.00  0.00    -0.200 N 
ENDROOT
BRANCH   6  10
HETATM   10  C5  UNL     1      -0.543   3.612  10.601  1.00  0.00     0.030 A 
HETATM   11  C6  UNL     1       0.695   3.791  11.180  1.00  0.00     0.096 A 
HETATM   12  C7  UNL     1       1.195   5.017  11.529  1.00  0.00     0.261 A 
HETATM   13  O1  UNL     1       2.365   5.008  12.059  1.00  0.00    -0.267 OA
HETATM   14  N2  UNL     1       0.605   6.192  11.380  1.00  0.00    -0.260 N 
HETATM   15  N3  UNL     1      -0.584   6.429  10.866  1.00  0.00    -0.266 N 
ATOM     16  H2  UNL     1       1.130   7.005  11.700  1.00  0.00     0.191 HD
HETATM   17  S1  UNL     1      -1.409   5.058  10.354  1.00  0.00     0.001 SA
ATOM     18  H3  UNL     1      -0.973   7.368  10.784  1.00  0.00     0.195 HD
ENDBRANCH   6  10
BRANCH   9  19
HETATM   19  N5  UNL     1      -4.134   1.381  13.782  1.00  0.00    -0.254 N 
HETATM   20  C9  UNL     1      -4.252   0.810  15.043  1.00  0.00     0.270 C 
HETATM   21  O3  UNL     1      -3.620  -0.171  15.454  1.00  0.00    -0.266 OA
ATOM     22  H5  UNL     1      -4.770   2.165  13.638  1.00  0.00     0.191 HD
BRANCH  20  23
HETATM   23  C10 UNL     1      -5.213   1.397  16.012  1.00  0.00     0.033 A 
HETATM   24  C11 UNL     1      -5.494   0.798  17.211  1.00  0.00     0.017 A 
HETATM   25  C12 UNL     1      -6.398   1.376  18.116  1.00  0.00     0.001 A 
HETATM   26  C13 UNL     1      -7.023   2.564  17.815  1.00  0.00     0.000 A 
HETATM   27  C14 UNL     1      -6.732   3.157  16.606  1.00  0.00     0.001 A 
HETATM   28  C15 UNL     1      -5.845   2.588  15.719  1.00  0.00     0.017 A 
ENDBRANCH  20  23
ENDBRANCH   9  19
TORSDOF 3
ENDMDL
MODEL 4
REMARK VINA RESULT: -7.704035220      2.498      4.301
REMARK  3 active torsions:
REMARK  status: ('A' for Active; 'I' for Inactive)
REMARK    1  A    between atoms: C4_6  and  C5_7 
REMARK    2  A    between atoms: N4_18  and  N5_19 
REMARK       I    between atoms: N5_19  and  C9_21 
REMARK    3  A    between atoms: C9_21  and  C10_23 
ROOT
HETATM    1  C1  UNL     1      -2.005   2.065  11.463  1.00  0.00     0.065 C 
HETATM    2  C2  UNL     1      -2.868   3.040  11.340  1.00  0.00     0.122 A 
HETATM    3  N1  UNL     1      -2.788   3.870  10.252  1.00  0.00    -0.337 N 
ATOM      4  H1  UNL     1      -2.132   3.773   9.477  1.00  0.00     0.167 HD
HETATM    5  C3  UNL     1      -3.710   4.826  10.377  1.00  0.00     0.105 A 
HETATM    6  C4  UNL     1      -3.952   5.832   9.522  1.00  0.00     0.055 C 
HETATM    7  C8  UNL     1      -4.357   4.576  11.547  1.00  0.00     0.295 A 
HETATM    8  O2  UNL     1      -5.297   5.257  12.020  1.00  0.00    -0.264 OA
HETATM    9  N4  UNL     1      -3.829   3.438  12.163  1.00  0.00    -0.200 N 
ENDROOT
BRANCH   6  10
HETATM   10  C5  UNL     1      -4.992   6.814   9.776  1.00  0.00     0.030 A 
HETATM   11  C6  UNL     1      -6.229   6.725   9.172  1.00  0.00     0.096 A 
HETATM   12  C7  UNL     1      -7.237   7.627   9.382  1.00  0.00     0.261 A 
HETATM   13  O1  UNL     1      -8.327   7.398   8.742  1.00  0.00    -0.267 OA
HETATM   14  N2  UNL     1      -7.205   8.694  10.164  1.00  0.00    -0.260 N 
HETATM   15  N3  UNL     1      -6.198   9.112  10.903  1.00  0.00    -0.266 N 
ATOM     16  H2  UNL     1      -8.055   9.256  10.197  1.00  0.00     0.191 HD
HETATM   17  S1  UNL     1      -4.822   8.154  10.813  1.00  0.00     0.001 SA
ATOM     18  H3  UNL     1      -6.250   9.950  11.483  1.00  0.00     0.195 HD
ENDBRANCH   6  10
BRANCH   9  19
HETATM   19  N5  UNL     1      -4.400   2.900  13.285  1.00  0.00    -0.254 N 
HETATM   20  C9  UNL     1      -4.093   2.945  14.639  1.00  0.00     0.270 C 
HETATM   21  O3  UNL     1      -3.119   3.521  15.141  1.00  0.00    -0.266 OA
ATOM     22  H5  UNL     1      -5.231   2.345  13.083  1.00  0.00     0.191 HD
BRANCH  20  23
HETATM   23  C10 UNL     1      -4.985   2.252  15.604  1.00  0.00     0.033 A 
HETATM   24  C11 UNL     1      -4.657   1.043  16.157  1.00  0.00     0.017 A 
HETATM   25  C12 UNL     1      -5.511   0.410  17.075  1.00  0.00     0.001 A 
HETATM   26  C13 UNL     1      -6.701   0.996  17.438  1.00  0.00     0.000 A 
HETATM   27  C14 UNL     1      -7.020   2.212  16.873  1.00  0.00     0.001 A 
HETATM   28  C15 UNL     1      -6.181   2.831  15.974  1.00  0.00     0.017 A 
ENDBRANCH  20  23
ENDBRANCH   9  19
TORSDOF 3
ENDMDL
MODEL 5
REMARK VINA RESULT: -7.678313711      1.629      1.743
REMARK  3 active torsions:
REMARK  status: ('A' for Active; 'I' for Inactive)
REMARK    1  A    between atoms: C4_6  and  C5_7 
REMARK    2  A    between atoms: N4_18  and  N5_19 
REMARK       I    between atoms: N5_19  and  C9_21 
REMARK    3  A    between atoms: C9_21  and  C10_23 
ROOT
HETATM    1  C1  UNL     1      -6.233   4.624  14.939  1.00  0.00     0.065 C 
HETATM    2  C2  UNL     1      -6.157   5.154  13.746  1.00  0.00     0.122 A 
HETATM    3  N1  UNL     1      -6.625   6.428  13.551  1.00  0.00    -0.337 N 
ATOM      4  H1  UNL     1      -6.994   7.044  14.275  1.00  0.00     0.167 HD
HETATM    5  C3  UNL     1      -6.517   6.727  12.255  1.00  0.00     0.105 A 
HETATM    6  C4  UNL     1      -6.867   7.877  11.658  1.00  0.00     0.055 C 
HETATM    7  C8  UNL     1      -5.978   5.630  11.657  1.00  0.00     0.295 A 
HETATM    8  O2  UNL     1      -5.720   5.516  10.436  1.00  0.00    -0.264 OA
HETATM    9  N4  UNL     1      -5.743   4.626  12.602  1.00  0.00    -0.200 N 
ENDROOT
BRANCH   6  10
HETATM   10  C5  UNL     1      -6.697   8.078  10.229  1.00  0.00     0.030 A 
HETATM   11  C6  UNL     1      -5.532   8.603   9.710  1.00  0.00     0.096 A 
HETATM   12  C7  UNL     1      -5.329   8.809   8.372  1.00  0.00     0.261 A 
HETATM   13  O1  UNL     1      -4.188   9.306   8.055  1.00  0.00    -0.267 OA
HETATM   14  N2  UNL     1      -6.174   8.552   7.386  1.00  0.00    -0.260 N 
HETATM   15  N3  UNL     1      -7.386   8.047   7.485  1.00  0.00    -0.266 N 
ATOM     16  H2  UNL     1      -5.851   8.772   6.445  1.00  0.00     0.191 HD
HETATM   17  S1  UNL     1      -7.873   7.703   9.056  1.00  0.00     0.001 SA
ATOM     18  H3  UNL     1      -7.981   7.877   6.674  1.00  0.00     0.195 HD
ENDBRANCH   6  10
BRANCH   9  19
HETATM   19  N5  UNL     1      -5.080   3.474  12.275  1.00  0.00    -0.254 N 
HETATM   20  C9  UNL     1      -3.887   2.898  12.692  1.00  0.00     0.270 C 
HETATM   21  O3  UNL     1      -3.095   3.386  13.509  1.00  0.00    -0.266 OA
ATOM     22  H5  UNL     1      -5.567   2.919  11.572  1.00  0.00     0.191 HD
BRANCH  20  23
HETATM   23  C10 UNL     1      -3.487   1.582  12.130  1.00  0.00     0.033 A 
HETATM   24  C11 UNL     1      -2.301   1.403  11.470  1.00  0.00     0.017 A 
HETATM   25  C12 UNL     1      -1.939   0.147  10.957  1.00  0.00     0.001 A 
HETATM   26  C13 UNL     1      -2.776  -0.934  11.107  1.00  0.00     0.000 A 
HETATM   27  C14 UNL     1      -3.967  -0.742  11.771  1.00  0.00     0.001 A 
HETATM   28  C15 UNL     1      -4.320   0.491  12.275  1.00  0.00     0.017 A 
ENDBRANCH  20  23
ENDBRANCH   9  19
TORSDOF 3
ENDMDL
