MODEL 1
REMARK VINA RESULT: -8.173580980      0.000      0.000
REMARK  4 active torsions:
REMARK  status: ('A' for Active; 'I' for Inactive)
REMARK    1  A    between atoms: N2_5  and  C3_6 
REMARK    2  A    between atoms: C7_14  and  C8_15 
REMARK    3  A    between atoms: C8_15  and  C9_16 
REMARK    4  A    between atoms: N6_21  and  C10_22 
ROOT
HETATM    1  C8  UNL     1      -4.838   5.872  11.071  1.00  0.00     0.056 C 
ENDROOT
BRANCH   1   2
HETATM    2  C7  UNL     1      -5.003   4.670  11.625  1.00  0.00     0.064 A 
HETATM    3  C2  UNL     1      -5.664   4.357  12.793  1.00  0.00     0.055 A 
HETATM    4  C1  UNL     1      -6.276   5.236  13.601  1.00  0.00     0.045 C 
HETATM    5  N1  UNL     1      -5.595   3.028  12.990  1.00  0.00    -0.289 N 
HETATM    6  N2  UNL     1      -4.903   2.493  11.971  1.00  0.00    -0.201 N 
ATOM      7  H1  UNL     1      -5.998   2.517  13.776  1.00  0.00     0.188 HD
HETATM    8  C6  UNL     1      -4.530   3.474  11.124  1.00  0.00     0.280 A 
HETATM    9  O2  UNL     1      -3.868   3.302  10.067  1.00  0.00    -0.265 OA
BRANCH   6  10
HETATM   10  C3  UNL     1      -4.592   1.116  11.779  1.00  0.00     0.152 A 
HETATM   11  C4  UNL     1      -4.021   0.266  12.713  1.00  0.00     0.079 A 
HETATM   12  C5  UNL     1      -3.896  -0.955  12.121  1.00  0.00     0.171 A 
HETATM   13  O1  UNL     1      -4.363  -0.851  10.899  1.00  0.00    -0.248 OA
HETATM   14  N3  UNL     1      -4.777   0.355  10.674  1.00  0.00    -0.244 N 
ATOM     15  H3  UNL     1      -5.181   0.682   9.796  1.00  0.00     0.196 HD
ENDBRANCH   6  10
ENDBRANCH   1   2
BRANCH   1  16
HETATM   16  C9  UNL     1      -5.495   6.238   9.827  1.00  0.00     0.120 A 
HETATM   17  N4  UNL     1      -5.466   5.672   8.623  1.00  0.00    -0.280 N 
HETATM   18  N5  UNL     1      -6.215   6.347   7.802  1.00  0.00    -0.232 N 
ATOM     19  H4  UNL     1      -4.936   4.834   8.381  1.00  0.00     0.188 HD
HETATM   20  N6  UNL     1      -6.757   7.371   8.438  1.00  0.00    -0.204 N 
ATOM     21  H5  UNL     1      -6.362   6.121   6.818  1.00  0.00     0.209 HD
HETATM   22  C16 UNL     1      -6.339   7.343   9.699  1.00  0.00     0.296 A 
HETATM   23  O3  UNL     1      -6.625   8.136  10.613  1.00  0.00    -0.264 OA
BRANCH  20  24
HETATM   24  C10 UNL     1      -7.637   8.316   7.823  1.00  0.00     0.061 A 
HETATM   25  C11 UNL     1      -7.220   9.023   6.693  1.00  0.00     0.032 A 
HETATM   26  C12 UNL     1      -8.035   9.945   6.066  1.00  0.00     0.002 A 
HETATM   27  C13 UNL     1      -9.317  10.183   6.571  1.00  0.00     0.000 A 
HETATM   28  C14 UNL     1      -9.744   9.492   7.683  1.00  0.00     0.002 A 
HETATM   29  C15 UNL     1      -8.904   8.575   8.289  1.00  0.00     0.032 A 
ENDBRANCH  20  24
ENDBRANCH   1  16
TORSDOF 4
ENDMDL
MODEL 2
REMARK VINA RESULT: -8.040134739      2.844      3.831
REMARK  4 active torsions:
REMARK  status: ('A' for Active; 'I' for Inactive)
REMARK    1  A    between atoms: N2_5  and  C3_6 
REMARK    2  A    between atoms: C7_14  and  C8_15 
REMARK    3  A    between atoms: C8_15  and  C9_16 
REMARK    4  A    between atoms: N6_21  and  C10_22 
ROOT
HETATM    1  C8  UNL     1      -3.086   3.057  11.649  1.00  0.00     0.056 C 
ENDROOT
BRANCH   1   2
HETATM    2  C7  UNL     1      -3.416   2.983  12.940  1.00  0.00     0.064 A 
HETATM    3  C2  UNL     1      -3.097   3.866  13.949  1.00  0.00     0.055 A 
HETATM    4  C1  UNL     1      -2.377   4.988  13.803  1.00  0.00     0.045 C 
HETATM    5  N1  UNL     1      -3.626   3.418  15.102  1.00  0.00    -0.289 N 
HETATM    6  N2  UNL     1      -4.272   2.270  14.844  1.00  0.00    -0.201 N 
ATOM      7  H1  UNL     1      -3.548   3.871  16.013  1.00  0.00     0.188 HD
HETATM    8  C6  UNL     1      -4.158   1.982  13.530  1.00  0.00     0.280 A 
HETATM    9  O2  UNL     1      -4.655   0.970  12.968  1.00  0.00    -0.265 OA
BRANCH   6  10
HETATM   10  C3  UNL     1      -4.976   1.456  15.777  1.00  0.00     0.152 A 
HETATM   11  C4  UNL     1      -6.078   1.834  16.527  1.00  0.00     0.079 A 
HETATM   12  C5  UNL     1      -6.436   0.761  17.286  1.00  0.00     0.171 A 
HETATM   13  O1  UNL     1      -5.599  -0.212  17.012  1.00  0.00    -0.248 OA
HETATM   14  N3  UNL     1      -4.732   0.171  16.130  1.00  0.00    -0.244 N 
ATOM     15  H3  UNL     1      -3.979  -0.407  15.757  1.00  0.00     0.196 HD
ENDBRANCH   6  10
ENDBRANCH   1   2
BRANCH   1  16
HETATM   16  C9  UNL     1      -3.525   4.158  10.809  1.00  0.00     0.120 A 
HETATM   17  N4  UNL     1      -2.878   4.866   9.886  1.00  0.00    -0.280 N 
HETATM   18  N5  UNL     1      -3.674   5.763   9.382  1.00  0.00    -0.232 N 
ATOM     19  H4  UNL     1      -1.904   4.726   9.615  1.00  0.00     0.188 HD
HETATM   20  N6  UNL     1      -4.862   5.671   9.954  1.00  0.00    -0.204 N 
ATOM     21  H5  UNL     1      -3.420   6.434   8.656  1.00  0.00     0.209 HD
HETATM   22  C16 UNL     1      -4.817   4.688  10.847  1.00  0.00     0.296 A 
HETATM   23  O3  UNL     1      -5.732   4.293  11.590  1.00  0.00    -0.264 OA
BRANCH  20  24
HETATM   24  C10 UNL     1      -5.970   6.514   9.628  1.00  0.00     0.061 A 
HETATM   25  C11 UNL     1      -6.468   7.410  10.577  1.00  0.00     0.032 A 
HETATM   26  C12 UNL     1      -7.535   8.243  10.308  1.00  0.00     0.002 A 
HETATM   27  C13 UNL     1      -8.142   8.194   9.049  1.00  0.00     0.000 A 
HETATM   28  C14 UNL     1      -7.663   7.318   8.101  1.00  0.00     0.002 A 
HETATM   29  C15 UNL     1      -6.591   6.496   8.402  1.00  0.00     0.032 A 
ENDBRANCH  20  24
ENDBRANCH   1  16
TORSDOF 4
ENDMDL
MODEL 3
REMARK VINA RESULT: -7.985049436      2.025      2.293
REMARK  4 active torsions:
REMARK  status: ('A' for Active; 'I' for Inactive)
REMARK    1  A    between atoms: N2_5  and  C3_6 
REMARK    2  A    between atoms: C7_14  and  C8_15 
REMARK    3  A    between atoms: C8_15  and  C9_16 
REMARK    4  A    between atoms: N6_21  and  C10_22 
ROOT
HETATM    1  C8  UNL     1      -6.032   6.105  13.180  1.00  0.00     0.056 C 
ENDROOT
BRANCH   1   2
HETATM    2  C7  UNL     1      -5.214   5.105  13.513  1.00  0.00     0.064 A 
HETATM    3  C2  UNL     1      -3.971   5.185  14.100  1.00  0.00     0.055 A 
HETATM    4  C1  UNL     1      -3.346   6.319  14.452  1.00  0.00     0.045 C 
HETATM    5  N1  UNL     1      -3.485   3.941  14.264  1.00  0.00    -0.289 N 
HETATM    6  N2  UNL     1      -4.396   3.075  13.791  1.00  0.00    -0.201 N 
ATOM      7  H1  UNL     1      -2.584   3.698  14.675  1.00  0.00     0.188 HD
HETATM    8  C6  UNL     1      -5.462   3.760  13.326  1.00  0.00     0.280 A 
HETATM    9  O2  UNL     1      -6.489   3.239  12.818  1.00  0.00    -0.265 OA
BRANCH   6  10
HETATM   10  C3  UNL     1      -4.294   1.654  13.766  1.00  0.00     0.152 A 
HETATM   11  C4  UNL     1      -4.055   0.869  12.648  1.00  0.00     0.079 A 
HETATM   12  C5  UNL     1      -4.035  -0.428  13.065  1.00  0.00     0.171 A 
HETATM   13  O1  UNL     1      -4.248  -0.429  14.360  1.00  0.00    -0.248 OA
HETATM   14  N3  UNL     1      -4.403   0.781  14.795  1.00  0.00    -0.244 N 
ATOM     15  H3  UNL     1      -4.582   1.037  15.766  1.00  0.00     0.196 HD
ENDBRANCH   6  10
ENDBRANCH   1   2
BRANCH   1  16
HETATM   16  C9  UNL     1      -6.173   6.554  11.805  1.00  0.00     0.120 A 
HETATM   17  N4  UNL     1      -5.604   6.122  10.682  1.00  0.00    -0.280 N 
HETATM   18  N5  UNL     1      -6.030   6.826   9.675  1.00  0.00    -0.232 N 
ATOM     19  H4  UNL     1      -4.935   5.354  10.620  1.00  0.00     0.188 HD
HETATM   20  N6  UNL     1      -6.888   7.736  10.104  1.00  0.00    -0.204 N 
ATOM     21  H5  UNL     1      -5.746   6.697   8.704  1.00  0.00     0.209 HD
HETATM   22  C16 UNL     1      -7.008   7.605  11.420  1.00  0.00     0.296 A 
HETATM   23  O3  UNL     1      -7.719   8.274  12.189  1.00  0.00    -0.264 OA
BRANCH  20  24
HETATM   24  C10 UNL     1      -7.544   8.677   9.249  1.00  0.00     0.061 A 
HETATM   25  C11 UNL     1      -7.026   9.966   9.103  1.00  0.00     0.032 A 
HETATM   26  C12 UNL     1      -7.625  10.907   8.291  1.00  0.00     0.002 A 
HETATM   27  C13 UNL     1      -8.786  10.568   7.588  1.00  0.00     0.000 A 
HETATM   28  C14 UNL     1      -9.309   9.301   7.720  1.00  0.00     0.002 A 
HETATM   29  C15 UNL     1      -8.685   8.380   8.542  1.00  0.00     0.032 A 
ENDBRANCH  20  24
ENDBRANCH   1  16
TORSDOF 4
ENDMDL
MODEL 4
REMARK VINA RESULT: -7.975578183      2.923      8.160
REMARK  4 active torsions:
REMARK  status: ('A' for Active; 'I' for Inactive)
REMARK    1  A    between atoms: N2_5  and  C3_6 
REMARK    2  A    between atoms: C7_14  and  C8_15 
REMARK    3  A    between atoms: C8_15  and  C9_16 
REMARK    4  A    between atoms: N6_21  and  C10_22 
ROOT
HETATM    1  C8  UNL     1      -2.678   3.951  11.643  1.00  0.00     0.056 C 
ENDROOT
BRANCH   1   2
HETATM    2  C7  UNL     1      -3.249   4.955  10.976  1.00  0.00     0.064 A 
HETATM    3  C2  UNL     1      -2.806   6.254  10.854  1.00  0.00     0.055 A 
HETATM    4  C1  UNL     1      -1.686   6.750  11.402  1.00  0.00     0.045 C 
HETATM    5  N1  UNL     1      -3.678   6.942  10.096  1.00  0.00    -0.289 N 
HETATM    6  N2  UNL     1      -4.665   6.106   9.737  1.00  0.00    -0.201 N 
ATOM      7  H1  UNL     1      -3.603   7.927   9.840  1.00  0.00     0.188 HD
HETATM    8  C6  UNL     1      -4.427   4.886  10.262  1.00  0.00     0.280 A 
HETATM    9  O2  UNL     1      -5.166   3.878  10.109  1.00  0.00    -0.265 OA
BRANCH   6  10
HETATM   10  C3  UNL     1      -5.799   6.417   8.932  1.00  0.00     0.152 A 
HETATM   11  C4  UNL     1      -6.890   7.182   9.313  1.00  0.00     0.079 A 
HETATM   12  C5  UNL     1      -7.740   7.228   8.249  1.00  0.00     0.171 A 
HETATM   13  O1  UNL     1      -7.196   6.531   7.279  1.00  0.00    -0.248 OA
HETATM   14  N3  UNL     1      -6.057   6.044   7.656  1.00  0.00    -0.244 N 
ATOM     15  H3  UNL     1      -5.446   5.467   7.078  1.00  0.00     0.196 HD
ENDBRANCH   6  10
ENDBRANCH   1   2
BRANCH   1  16
HETATM   16  C9  UNL     1      -2.979   3.691  13.041  1.00  0.00     0.120 A 
HETATM   17  N4  UNL     1      -2.377   4.099  14.156  1.00  0.00    -0.280 N 
HETATM   18  N5  UNL     1      -2.998   3.617  15.192  1.00  0.00    -0.232 N 
ATOM     19  H4  UNL     1      -1.553   4.699  14.192  1.00  0.00     0.188 HD
HETATM   20  N6  UNL     1      -4.022   2.883  14.792  1.00  0.00    -0.204 N 
ATOM     21  H5  UNL     1      -2.735   3.780  16.164  1.00  0.00     0.209 HD
HETATM   22  C16 UNL     1      -4.050   2.900  13.464  1.00  0.00     0.296 A 
HETATM   23  O3  UNL     1      -4.860   2.331  12.713  1.00  0.00    -0.264 OA
BRANCH  20  24
HETATM   24  C10 UNL     1      -4.914   2.207  15.683  1.00  0.00     0.061 A 
HETATM   25  C11 UNL     1      -6.141   2.787  16.012  1.00  0.00     0.032 A 
HETATM   26  C12 UNL     1      -7.034   2.173  16.867  1.00  0.00     0.002 A 
HETATM   27  C13 UNL     1      -6.708   0.933  17.424  1.00  0.00     0.000 A 
HETATM   28  C14 UNL     1      -5.503   0.346  17.108  1.00  0.00     0.002 A 
HETATM   29  C15 UNL     1      -4.629   0.987  16.247  1.00  0.00     0.032 A 
ENDBRANCH  20  24
ENDBRANCH   1  16
TORSDOF 4
ENDMDL
MODEL 5
REMARK VINA RESULT: -7.970743276      1.405      1.697
REMARK  4 active torsions:
REMARK  status: ('A' for Active; 'I' for Inactive)
REMARK    1  A    between atoms: N2_5  and  C3_6 
REMARK    2  A    between atoms: C7_14  and  C8_15 
REMARK    3  A    between atoms: C8_15  and  C9_16 
REMARK    4  A    between atoms: N6_21  and  C10_22 
ROOT
HETATM    1  C8  UNL     1      -4.923   5.121  11.699  1.00  0.00     0.056 C 
ENDROOT
BRANCH   1   2
HETATM    2  C7  UNL     1      -4.140   4.047  11.813  1.00  0.00     0.064 A 
HETATM    3  C2  UNL     1      -2.805   4.002  12.150  1.00  0.00     0.055 A 
HETATM    4  C1  UNL     1      -2.037   5.065  12.433  1.00  0.00     0.045 C 
HETATM    5  N1  UNL     1      -2.399   2.719  12.150  1.00  0.00    -0.289 N 
HETATM    6  N2  UNL     1      -3.449   1.951  11.819  1.00  0.00    -0.201 N 
ATOM      7  H1  UNL     1      -1.458   2.388  12.364  1.00  0.00     0.188 HD
HETATM    8  C6  UNL     1      -4.525   2.738  11.608  1.00  0.00     0.280 A 
HETATM    9  O2  UNL     1      -5.669   2.324  11.282  1.00  0.00    -0.265 OA
BRANCH   6  10
HETATM   10  C3  UNL     1      -3.468   0.532  11.699  1.00  0.00     0.152 A 
HETATM   11  C4  UNL     1      -2.534  -0.247  11.034  1.00  0.00     0.079 A 
HETATM   12  C5  UNL     1      -2.928  -1.545  11.163  1.00  0.00     0.171 A 
HETATM   13  O1  UNL     1      -4.035  -1.552  11.866  1.00  0.00    -0.248 OA
HETATM   14  N3  UNL     1      -4.374  -0.346  12.193  1.00  0.00    -0.244 N 
ATOM     15  H3  UNL     1      -5.198  -0.095  12.739  1.00  0.00     0.196 HD
ENDBRANCH   6  10
ENDBRANCH   1   2
BRANCH   1  16
HETATM   16  C9  UNL     1      -5.342   5.630  10.403  1.00  0.00     0.120 A 
HETATM   17  N4  UNL     1      -4.986   5.279   9.170  1.00  0.00    -0.280 N 
HETATM   18  N5  UNL     1      -5.621   6.012   8.304  1.00  0.00    -0.232 N 
ATOM     19  H4  UNL     1      -4.316   4.545   8.939  1.00  0.00     0.188 HD
HETATM   20  N6  UNL     1      -6.410   6.862   8.939  1.00  0.00    -0.204 N 
ATOM     21  H5  UNL     1      -5.525   5.943   7.291  1.00  0.00     0.209 HD
HETATM   22  C16 UNL     1      -6.270   6.661  10.245  1.00  0.00     0.296 A 
HETATM   23  O3  UNL     1      -6.842   7.259  11.172  1.00  0.00    -0.264 OA
BRANCH  20  24
HETATM   24  C10 UNL     1      -7.250   7.814   8.280  1.00  0.00     0.061 A 
HETATM   25  C11 UNL     1      -6.755   8.551   7.202  1.00  0.00     0.032 A 
HETATM   26  C12 UNL     1      -7.528   9.481   6.536  1.00  0.00     0.002 A 
HETATM   27  C13 UNL     1      -8.848   9.696   6.945  1.00  0.00     0.000 A 
HETATM   28  C14 UNL     1      -9.352   8.976   8.006  1.00  0.00     0.002 A 
HETATM   29  C15 UNL     1      -8.551   8.051   8.653  1.00  0.00     0.032 A 
ENDBRANCH  20  24
ENDBRANCH   1  16
TORSDOF 4
ENDMDL
