MODEL 1
REMARK VINA RESULT: -6.100344060      0.000      0.000
REMARK  11 active torsions:
REMARK  status: ('A' for Active; 'I' for Inactive)
REMARK    1  A    between atoms: N1_2  and  C2_4 
REMARK    2  A    between atoms: C2_4  and  C3_5 
REMARK    3  A    between atoms: C3_5  and  C4_6 
REMARK    4  A    between atoms: C5_10  and  N3_11 
REMARK    5  A    between atoms: C6_15  and  O1_16 
REMARK    6  A    between atoms: O1_16  and  C7_17 
REMARK    7  A    between atoms: C7_17  and  C8_18 
REMARK    8  A    between atoms: C8_18  and  C9_19 
REMARK    9  A    between atoms: C9_19  and  N4_20 
REMARK   10  A    between atoms: C10_24  and  O2_25 
REMARK   11  A    between atoms: C11_27  and  O3_28 
ROOT
HETATM    1  C4  UNL     1      68.410  54.316  60.737  1.00  0.00     0.221 C 
HETATM    2  N2  UNL     1      67.698  54.950  61.812  1.00  0.00    -0.037 N 
ATOM      3  H21 UNL     1      67.000  55.620  61.490  1.00  0.00     0.280 HD
ATOM      4  H22 UNL     1      68.274  55.606  62.341  1.00  0.00     0.280 HD
HETATM    5  C5  UNL     1      67.129  53.877  62.647  1.00  0.00     0.411 C 
HETATM    6  C6  UNL     1      66.441  52.874  61.768  1.00  0.00     0.210 C 
HETATM    7  C10 UNL     1      66.196  53.408  60.365  1.00  0.00     0.181 C 
HETATM    8  C11 UNL     1      67.431  53.936  59.687  1.00  0.00     0.180 C 
ENDROOT
BRANCH   6   9
HETATM    9  O1  UNL     1      67.101  51.692  61.617  1.00  0.00    -0.379 OA
BRANCH   9  10
HETATM   10  C7  UNL     1      67.166  50.870  62.695  1.00  0.00     0.170 C 
BRANCH  10  11
HETATM   11  C8  UNL     1      68.282  49.848  62.594  1.00  0.00     0.053 C 
BRANCH  11  12
HETATM   12  C9  UNL     1      67.835  48.654  63.437  1.00  0.00     0.231 C 
BRANCH  12  13
HETATM   13  N4  UNL     1      66.535  48.904  64.016  1.00  0.00    -0.079 N 
ATOM     14  H43 UNL     1      66.475  48.567  64.977  1.00  0.00     0.274 HD
ATOM     15  H42 UNL     1      66.384  49.897  64.194  1.00  0.00     0.274 HD
ATOM     16  H41 UNL     1      65.802  48.508  63.428  1.00  0.00     0.274 HD
ENDBRANCH  12  13
ENDBRANCH  11  12
ENDBRANCH  10  11
ENDBRANCH   9  10
ENDBRANCH   6   9
BRANCH   5  17
HETATM   17  N3  UNL     1      68.204  53.338  63.417  1.00  0.00    -0.048 N 
ATOM     18  H33 UNL     1      68.799  54.055  63.834  1.00  0.00     0.276 HD
ATOM     19  H32 UNL     1      67.896  52.903  64.287  1.00  0.00     0.276 HD
ATOM     20  H31 UNL     1      68.713  52.699  62.806  1.00  0.00     0.276 HD
ENDBRANCH   5  17
BRANCH   7  21
HETATM   21  O2  UNL     1      65.198  54.379  60.447  1.00  0.00    -0.390 OA
ATOM     22  H2  UNL     1      65.277  54.942  59.685  1.00  0.00     0.210 HD
ENDBRANCH   7  21
BRANCH   8  23
HETATM   23  O3  UNL     1      67.897  52.924  58.839  1.00  0.00    -0.391 OA
ATOM     24  H3  UNL     1      67.304  52.736  58.120  1.00  0.00     0.210 HD
ENDBRANCH   8  23
BRANCH   1  25
HETATM   25  C3  UNL     1      69.586  55.103  60.254  1.00  0.00     0.055 C 
BRANCH  25  26
HETATM   26  C2  UNL     1      69.353  55.911  59.038  1.00  0.00     0.120 C 
BRANCH  26  27
HETATM   27  N1  UNL     1      68.954  57.234  59.418  1.00  0.00    -0.408 N 
HETATM   28  C1  UNL     1      68.449  58.096  58.630  1.00  0.00     0.112 C 
ATOM     29  H1  UNL     1      69.086  57.505  60.393  1.00  0.00     0.157 HD
ENDBRANCH  26  27
ENDBRANCH  25  26
ENDBRANCH   1  25
TORSDOF 11
ENDMDL
MODEL 2
REMARK VINA RESULT: -6.053668989      1.762      6.401
REMARK  11 active torsions:
REMARK  status: ('A' for Active; 'I' for Inactive)
REMARK    1  A    between atoms: N1_2  and  C2_4 
REMARK    2  A    between atoms: C2_4  and  C3_5 
REMARK    3  A    between atoms: C3_5  and  C4_6 
REMARK    4  A    between atoms: C5_10  and  N3_11 
REMARK    5  A    between atoms: C6_15  and  O1_16 
REMARK    6  A    between atoms: O1_16  and  C7_17 
REMARK    7  A    between atoms: C7_17  and  C8_18 
REMARK    8  A    between atoms: C8_18  and  C9_19 
REMARK    9  A    between atoms: C9_19  and  N4_20 
REMARK   10  A    between atoms: C10_24  and  O2_25 
REMARK   11  A    between atoms: C11_27  and  O3_28 
ROOT
HETATM    1  C4  UNL     1      67.074  53.189  61.619  1.00  0.00     0.221 C 
HETATM    2  N2  UNL     1      67.960  52.676  60.610  1.00  0.00    -0.037 N 
ATOM      3  H21 UNL     1      67.538  51.940  60.043  1.00  0.00     0.280 HD
ATOM      4  H22 UNL     1      68.724  52.121  60.995  1.00  0.00     0.280 HD
HETATM    5  C5  UNL     1      68.424  53.826  59.815  1.00  0.00     0.411 C 
HETATM    6  C6  UNL     1      67.246  54.673  59.431  1.00  0.00     0.210 C 
HETATM    7  C10 UNL     1      65.924  53.947  59.627  1.00  0.00     0.181 C 
HETATM    8  C11 UNL     1      65.734  53.385  61.009  1.00  0.00     0.180 C 
ENDROOT
BRANCH   6   9
HETATM    9  O1  UNL     1      67.138  55.851  60.107  1.00  0.00    -0.379 OA
BRANCH   9  10
HETATM   10  C7  UNL     1      67.081  56.991  59.373  1.00  0.00     0.170 C 
BRANCH  10  11
HETATM   11  C8  UNL     1      68.443  57.464  58.905  1.00  0.00     0.053 C 
BRANCH  11  12
HETATM   12  C9  UNL     1      68.210  58.815  58.228  1.00  0.00     0.231 C 
BRANCH  12  13
HETATM   13  N4  UNL     1      68.820  58.835  56.919  1.00  0.00    -0.079 N 
ATOM     14  H43 UNL     1      69.359  59.687  56.764  1.00  0.00     0.274 HD
ATOM     15  H42 UNL     1      69.580  58.159  56.844  1.00  0.00     0.274 HD
ATOM     16  H41 UNL     1      68.115  58.695  56.196  1.00  0.00     0.274 HD
ENDBRANCH  12  13
ENDBRANCH  11  12
ENDBRANCH  10  11
ENDBRANCH   9  10
ENDBRANCH   6   9
BRANCH   5  17
HETATM   17  N3  UNL     1      69.400  54.507  60.603  1.00  0.00    -0.048 N 
ATOM     18  H33 UNL     1      69.157  55.480  60.791  1.00  0.00     0.276 HD
ATOM     19  H32 UNL     1      69.426  54.191  61.573  1.00  0.00     0.276 HD
ATOM     20  H31 UNL     1      70.294  54.402  60.122  1.00  0.00     0.276 HD
ENDBRANCH   5  17
BRANCH   7  21
HETATM   21  O2  UNL     1      65.834  52.955  58.650  1.00  0.00    -0.390 OA
ATOM     22  H2  UNL     1      65.525  52.161  59.070  1.00  0.00     0.210 HD
ENDBRANCH   7  21
BRANCH   8  23
HETATM   23  O3  UNL     1      64.934  54.292  61.714  1.00  0.00    -0.391 OA
ATOM     24  H3  UNL     1      65.332  55.151  61.804  1.00  0.00     0.210 HD
ENDBRANCH   8  23
BRANCH   1  25
HETATM   25  C3  UNL     1      67.086  52.394  62.884  1.00  0.00     0.055 C 
BRANCH  25  26
HETATM   26  C2  UNL     1      67.790  51.095  62.811  1.00  0.00     0.120 C 
BRANCH  26  27
HETATM   27  N1  UNL     1      67.281  50.224  63.830  1.00  0.00    -0.408 N 
HETATM   28  C1  UNL     1      67.060  48.980  63.679  1.00  0.00     0.112 C 
ATOM     29  H1  UNL     1      67.080  50.632  64.743  1.00  0.00     0.157 HD
ENDBRANCH  26  27
ENDBRANCH  25  26
ENDBRANCH   1  25
TORSDOF 11
ENDMDL
MODEL 3
REMARK VINA RESULT: -5.979635134      1.213      1.336
REMARK  11 active torsions:
REMARK  status: ('A' for Active; 'I' for Inactive)
REMARK    1  A    between atoms: N1_2  and  C2_4 
REMARK    2  A    between atoms: C2_4  and  C3_5 
REMARK    3  A    between atoms: C3_5  and  C4_6 
REMARK    4  A    between atoms: C5_10  and  N3_11 
REMARK    5  A    between atoms: C6_15  and  O1_16 
REMARK    6  A    between atoms: O1_16  and  C7_17 
REMARK    7  A    between atoms: C7_17  and  C8_18 
REMARK    8  A    between atoms: C8_18  and  C9_19 
REMARK    9  A    between atoms: C9_19  and  N4_20 
REMARK   10  A    between atoms: C10_24  and  O2_25 
REMARK   11  A    between atoms: C11_27  and  O3_28 
ROOT
HETATM    1  C4  UNL     1      68.365  54.358  60.411  1.00  0.00     0.221 C 
HETATM    2  N2  UNL     1      67.545  55.104  61.325  1.00  0.00    -0.037 N 
ATOM      3  H21 UNL     1      66.759  55.570  60.870  1.00  0.00     0.280 HD
ATOM      4  H22 UNL     1      68.004  55.942  61.682  1.00  0.00     0.280 HD
HETATM    5  C5  UNL     1      67.128  54.176  62.391  1.00  0.00     0.411 C 
HETATM    6  C6  UNL     1      66.617  52.907  61.773  1.00  0.00     0.210 C 
HETATM    7  C10 UNL     1      66.321  53.065  60.290  1.00  0.00     0.181 C 
HETATM    8  C11 UNL     1      67.475  53.606  59.491  1.00  0.00     0.180 C 
ENDROOT
BRANCH   6   9
HETATM    9  O1  UNL     1      67.450  51.835  61.884  1.00  0.00    -0.379 OA
BRANCH   9  10
HETATM   10  C7  UNL     1      67.092  50.852  62.749  1.00  0.00     0.170 C 
BRANCH  10  11
HETATM   11  C8  UNL     1      68.193  50.495  63.729  1.00  0.00     0.053 C 
BRANCH  11  12
HETATM   12  C9  UNL     1      67.807  51.154  65.053  1.00  0.00     0.231 C 
BRANCH  12  13
HETATM   13  N4  UNL     1      68.919  51.908  65.583  1.00  0.00    -0.079 N 
ATOM     14  H43 UNL     1      69.232  51.542  66.482  1.00  0.00     0.274 HD
ATOM     15  H42 UNL     1      69.773  51.751  65.050  1.00  0.00     0.274 HD
ATOM     16  H41 UNL     1      68.682  52.899  65.638  1.00  0.00     0.274 HD
ENDBRANCH  12  13
ENDBRANCH  11  12
ENDBRANCH  10  11
ENDBRANCH   9  10
ENDBRANCH   6   9
BRANCH   5  17
HETATM   17  N3  UNL     1      68.257  53.994  63.246  1.00  0.00    -0.048 N 
ATOM     18  H33 UNL     1      68.458  54.810  63.825  1.00  0.00     0.276 HD
ATOM     19  H32 UNL     1      68.084  53.336  64.006  1.00  0.00     0.276 HD
ATOM     20  H31 UNL     1      69.039  53.723  62.649  1.00  0.00     0.276 HD
ENDBRANCH   5  17
BRANCH   7  21
HETATM   21  O2  UNL     1      65.186  53.867  60.165  1.00  0.00    -0.390 OA
ATOM     22  H2  UNL     1      65.092  54.364  60.969  1.00  0.00     0.210 HD
ENDBRANCH   7  21
BRANCH   8  23
HETATM   23  O3  UNL     1      68.105  52.511  58.887  1.00  0.00    -0.391 OA
ATOM     24  H3  UNL     1      67.972  52.474  57.946  1.00  0.00     0.210 HD
ENDBRANCH   8  23
BRANCH   1  25
HETATM   25  C3  UNL     1      69.417  55.184  59.744  1.00  0.00     0.055 C 
BRANCH  25  26
HETATM   26  C2  UNL     1      69.338  56.639  59.997  1.00  0.00     0.120 C 
BRANCH  26  27
HETATM   27  N1  UNL     1      68.355  57.217  59.128  1.00  0.00    -0.408 N 
HETATM   28  C1  UNL     1      68.568  58.187  58.333  1.00  0.00     0.112 C 
ATOM     29  H1  UNL     1      67.415  56.821  59.150  1.00  0.00     0.157 HD
ENDBRANCH  26  27
ENDBRANCH  25  26
ENDBRANCH   1  25
TORSDOF 11
ENDMDL
MODEL 4
REMARK VINA RESULT: -5.611545668      2.821      6.254
REMARK  11 active torsions:
REMARK  status: ('A' for Active; 'I' for Inactive)
REMARK    1  A    between atoms: N1_2  and  C2_4 
REMARK    2  A    between atoms: C2_4  and  C3_5 
REMARK    3  A    between atoms: C3_5  and  C4_6 
REMARK    4  A    between atoms: C5_10  and  N3_11 
REMARK    5  A    between atoms: C6_15  and  O1_16 
REMARK    6  A    between atoms: O1_16  and  C7_17 
REMARK    7  A    between atoms: C7_17  and  C8_18 
REMARK    8  A    between atoms: C8_18  and  C9_19 
REMARK    9  A    between atoms: C9_19  and  N4_20 
REMARK   10  A    between atoms: C10_24  and  O2_25 
REMARK   11  A    between atoms: C11_27  and  O3_28 
ROOT
HETATM    1  C4  UNL     1      67.683  51.297  64.654  1.00  0.00     0.221 C 
HETATM    2  N2  UNL     1      68.760  52.021  64.037  1.00  0.00    -0.037 N 
ATOM      3  H21 UNL     1      69.573  51.437  63.838  1.00  0.00     0.280 HD
ATOM      4  H22 UNL     1      69.221  52.672  64.674  1.00  0.00     0.280 HD
HETATM    5  C5  UNL     1      68.211  52.676  62.837  1.00  0.00     0.411 C 
HETATM    6  C6  UNL     1      67.414  51.680  62.047  1.00  0.00     0.210 C 
HETATM    7  C10 UNL     1      67.696  50.247  62.472  1.00  0.00     0.181 C 
HETATM    8  C11 UNL     1      67.524  50.002  63.946  1.00  0.00     0.180 C 
ENDROOT
BRANCH   6   9
HETATM    9  O1  UNL     1      66.063  51.839  62.113  1.00  0.00    -0.379 OA
BRANCH   9  10
HETATM   10  C7  UNL     1      65.547  53.008  61.655  1.00  0.00     0.170 C 
BRANCH  10  11
HETATM   11  C8  UNL     1      65.925  53.298  60.215  1.00  0.00     0.053 C 
BRANCH  11  12
HETATM   12  C9  UNL     1      65.956  54.821  60.088  1.00  0.00     0.231 C 
BRANCH  12  13
HETATM   13  N4  UNL     1      67.279  55.269  59.718  1.00  0.00    -0.079 N 
ATOM     14  H43 UNL     1      67.447  55.172  58.717  1.00  0.00     0.274 HD
ATOM     15  H42 UNL     1      67.371  56.282  59.790  1.00  0.00     0.274 HD
ATOM     16  H41 UNL     1      67.986  54.783  60.270  1.00  0.00     0.274 HD
ENDBRANCH  12  13
ENDBRANCH  11  12
ENDBRANCH  10  11
ENDBRANCH   9  10
ENDBRANCH   6   9
BRANCH   5  17
HETATM   17  N3  UNL     1      67.455  53.800  63.289  1.00  0.00    -0.048 N 
ATOM     18  H33 UNL     1      67.283  53.790  64.295  1.00  0.00     0.276 HD
ATOM     19  H32 UNL     1      67.978  54.676  63.256  1.00  0.00     0.276 HD
ATOM     20  H31 UNL     1      66.599  53.822  62.735  1.00  0.00     0.276 HD
ENDBRANCH   5  17
BRANCH   7  21
HETATM   21  O2  UNL     1      68.983  49.921  62.042  1.00  0.00    -0.390 OA
ATOM     22  H2  UNL     1      68.914  49.172  61.462  1.00  0.00     0.210 HD
ENDBRANCH   7  21
BRANCH   8  23
HETATM   23  O3  UNL     1      66.257  49.430  64.121  1.00  0.00    -0.391 OA
ATOM     24  H3  UNL     1      65.851  49.163  63.304  1.00  0.00     0.210 HD
ENDBRANCH   8  23
BRANCH   1  25
HETATM   25  C3  UNL     1      67.806  51.198  66.141  1.00  0.00     0.055 C 
BRANCH  25  26
HETATM   26  C2  UNL     1      68.914  51.972  66.740  1.00  0.00     0.120 C 
BRANCH  26  27
HETATM   27  N1  UNL     1      68.923  51.765  68.158  1.00  0.00    -0.408 N 
HETATM   28  C1  UNL     1      69.971  51.608  68.864  1.00  0.00     0.112 C 
ATOM     29  H1  UNL     1      68.023  51.740  68.638  1.00  0.00     0.157 HD
ENDBRANCH  26  27
ENDBRANCH  25  26
ENDBRANCH   1  25
TORSDOF 11
ENDMDL
MODEL 5
REMARK VINA RESULT: -5.413144485      1.497      1.838
REMARK  11 active torsions:
REMARK  status: ('A' for Active; 'I' for Inactive)
REMARK    1  A    between atoms: N1_2  and  C2_4 
REMARK    2  A    between atoms: C2_4  and  C3_5 
REMARK    3  A    between atoms: C3_5  and  C4_6 
REMARK    4  A    between atoms: C5_10  and  N3_11 
REMARK    5  A    between atoms: C6_15  and  O1_16 
REMARK    6  A    between atoms: O1_16  and  C7_17 
REMARK    7  A    between atoms: C7_17  and  C8_18 
REMARK    8  A    between atoms: C8_18  and  C9_19 
REMARK    9  A    between atoms: C9_19  and  N4_20 
REMARK   10  A    between atoms: C10_24  and  O2_25 
REMARK   11  A    between atoms: C11_27  and  O3_28 
ROOT
HETATM    1  C4  UNL     1      67.084  54.625  60.633  1.00  0.00     0.221 C 
HETATM    2  N2  UNL     1      66.805  54.934  62.009  1.00  0.00    -0.037 N 
ATOM      3  H21 UNL     1      65.834  55.202  62.170  1.00  0.00     0.280 HD
ATOM      4  H22 UNL     1      67.234  55.806  62.317  1.00  0.00     0.280 HD
HETATM    5  C5  UNL     1      67.225  53.769  62.808  1.00  0.00     0.411 C 
HETATM    6  C6  UNL     1      66.681  52.516  62.185  1.00  0.00     0.210 C 
HETATM    7  C10 UNL     1      65.582  52.804  61.174  1.00  0.00     0.181 C 
HETATM    8  C11 UNL     1      65.976  53.789  60.107  1.00  0.00     0.180 C 
ENDROOT
BRANCH   6   9
HETATM    9  O1  UNL     1      67.601  51.747  61.540  1.00  0.00    -0.379 OA
BRANCH   9  10
HETATM   10  C7  UNL     1      67.874  50.526  62.066  1.00  0.00     0.170 C 
BRANCH  10  11
HETATM   11  C8  UNL     1      67.190  50.288  63.398  1.00  0.00     0.053 C 
BRANCH  11  12
HETATM   12  C9  UNL     1      68.248  50.560  64.467  1.00  0.00     0.231 C 
BRANCH  12  13
HETATM   13  N4  UNL     1      67.759  51.524  65.426  1.00  0.00    -0.079 N 
ATOM     14  H43 UNL     1      66.741  51.515  65.488  1.00  0.00     0.274 HD
ATOM     15  H42 UNL     1      67.971  51.247  66.384  1.00  0.00     0.274 HD
ATOM     16  H41 UNL     1      68.119  52.453  65.211  1.00  0.00     0.274 HD
ENDBRANCH  12  13
ENDBRANCH  11  12
ENDBRANCH  10  11
ENDBRANCH   9  10
ENDBRANCH   6   9
BRANCH   5  17
HETATM   17  N3  UNL     1      68.650  53.811  62.884  1.00  0.00    -0.048 N 
ATOM     18  H33 UNL     1      69.101  53.831  61.968  1.00  0.00     0.276 HD
ATOM     19  H32 UNL     1      69.008  54.705  63.223  1.00  0.00     0.276 HD
ATOM     20  H31 UNL     1      68.939  53.018  63.457  1.00  0.00     0.276 HD
ENDBRANCH   5  17
BRANCH   7  21
HETATM   21  O2  UNL     1      64.456  53.230  61.879  1.00  0.00    -0.390 OA
ATOM     22  H2  UNL     1      63.894  53.698  61.272  1.00  0.00     0.210 HD
ENDBRANCH   7  21
BRANCH   8  23
HETATM   23  O3  UNL     1      66.334  53.046  58.976  1.00  0.00    -0.391 OA
ATOM     24  H3  UNL     1      67.272  52.923  58.889  1.00  0.00     0.210 HD
ENDBRANCH   8  23
BRANCH   1  25
HETATM   25  C3  UNL     1      67.421  55.825  59.809  1.00  0.00     0.055 C 
BRANCH  25  26
HETATM   26  C2  UNL     1      68.842  56.234  59.832  1.00  0.00     0.120 C 
BRANCH  26  27
HETATM   27  N1  UNL     1      69.660  55.122  59.446  1.00  0.00    -0.408 N 
HETATM   28  C1  UNL     1      70.882  54.971  59.770  1.00  0.00     0.112 C 
ATOM     29  H1  UNL     1      69.231  54.398  58.869  1.00  0.00     0.157 HD
ENDBRANCH  26  27
ENDBRANCH  25  26
ENDBRANCH   1  25
TORSDOF 11
ENDMDL
