MODEL 1
REMARK VINA RESULT: -7.244855810      0.000      0.000
REMARK  9 active torsions:
REMARK  status: ('A' for Active; 'I' for Inactive)
REMARK    1  A    between atoms: N1_1  and  C1_4 
REMARK    2  A    between atoms: C2_7  and  N3_8 
REMARK    3  A    between atoms: N3_8  and  C3_10 
REMARK    4  A    between atoms: C3_10  and  C4_11 
REMARK    5  A    between atoms: C4_11  and  O1_12 
REMARK    6  A    between atoms: N6_21  and  C7_23 
REMARK    7  A    between atoms: C7_23  and  C8_24 
REMARK    8  A    between atoms: C8_24  and  C9_25 
REMARK    9  A    between atoms: C9_25  and  O3_26 
ROOT
HETATM    1  C1  UNL     1      67.675  52.865  63.262  1.00  0.00     0.159 C 
HETATM    2  N2  UNL     1      68.319  52.751  64.475  1.00  0.00    -0.173 N 
ATOM      3  H2  UNL     1      68.748  53.604  64.833  1.00  0.00     0.186 HD
HETATM    4  C2  UNL     1      68.452  51.655  65.248  1.00  0.00     0.683 C 
HETATM    5  N4  UNL     1      67.993  50.420  64.963  1.00  0.00    -0.141 N 
ATOM      6  H4  UNL     1      68.126  49.735  65.707  1.00  0.00     0.189 HD
HETATM    7  C5  UNL     1      67.380  49.931  63.846  1.00  0.00     0.340 C 
HETATM    8  O2  UNL     1      67.033  48.744  63.884  1.00  0.00    -0.246 OA
HETATM    9  N5  UNL     1      67.102  50.587  62.698  1.00  0.00    -0.291 N 
ATOM     10  H5  UNL     1      66.557  50.075  62.004  1.00  0.00     0.172 HD
HETATM   11  C6  UNL     1      67.465  51.853  62.361  1.00  0.00     0.150 C 
HETATM   12  N6  UNL     1      67.623  52.067  61.149  1.00  0.00    -0.373 N 
ATOM     13  H6  UNL     1      67.435  51.234  60.592  1.00  0.00     0.161 HD
ENDROOT
BRANCH   1  14
HETATM   14  N1  UNL     1      67.265  54.045  63.037  1.00  0.00    -0.382 N 
ATOM     15  H12 UNL     1      67.908  54.787  62.760  1.00  0.00     0.157 HD
ATOM     16  H11 UNL     1      66.257  54.139  63.162  1.00  0.00     0.157 HD
ENDBRANCH   1  14
BRANCH  12  17
HETATM   17  C7  UNL     1      67.992  53.158  60.345  1.00  0.00     0.123 C 
BRANCH  17  18
HETATM   18  C8  UNL     1      66.873  53.605  59.401  1.00  0.00     0.045 C 
BRANCH  18  19
HETATM   19  C9  UNL     1      65.967  54.608  60.131  1.00  0.00     0.165 C 
BRANCH  19  20
HETATM   20  O3  UNL     1      65.116  53.883  60.971  1.00  0.00    -0.401 OA
ATOM     21  H3  UNL     1      64.350  53.639  60.466  1.00  0.00     0.209 HD
ENDBRANCH  19  20
ENDBRANCH  18  19
ENDBRANCH  17  18
ENDBRANCH  12  17
BRANCH   4  22
HETATM   22  N3  UNL     1      69.079  51.852  66.341  1.00  0.00    -0.224 N 
ATOM     23  H3  UNL     1      70.082  52.025  66.271  1.00  0.00     0.177 HD
BRANCH  22  24
HETATM   24  C3  UNL     1      68.516  51.854  67.654  1.00  0.00     0.164 C 
BRANCH  24  25
HETATM   25  C4  UNL     1      69.667  51.661  68.640  1.00  0.00     0.184 C 
BRANCH  25  26
HETATM   26  O1  UNL     1      69.331  50.664  69.561  1.00  0.00    -0.399 OA
ATOM     27  H1  UNL     1      69.883  49.904  69.421  1.00  0.00     0.209 HD
ENDBRANCH  25  26
ENDBRANCH  24  25
ENDBRANCH  22  24
ENDBRANCH   4  22
TORSDOF 9
ENDMDL
MODEL 2
REMARK VINA RESULT: -7.174994072      1.942      2.102
REMARK  9 active torsions:
REMARK  status: ('A' for Active; 'I' for Inactive)
REMARK    1  A    between atoms: N1_1  and  C1_4 
REMARK    2  A    between atoms: C2_7  and  N3_8 
REMARK    3  A    between atoms: N3_8  and  C3_10 
REMARK    4  A    between atoms: C3_10  and  C4_11 
REMARK    5  A    between atoms: C4_11  and  O1_12 
REMARK    6  A    between atoms: N6_21  and  C7_23 
REMARK    7  A    between atoms: C7_23  and  C8_24 
REMARK    8  A    between atoms: C8_24  and  C9_25 
REMARK    9  A    between atoms: C9_25  and  O3_26 
ROOT
HETATM    1  C1  UNL     1      67.595  53.237  62.922  1.00  0.00     0.159 C 
HETATM    2  N2  UNL     1      68.203  52.871  64.104  1.00  0.00    -0.173 N 
ATOM      3  H2  UNL     1      68.629  53.627  64.639  1.00  0.00     0.186 HD
HETATM    4  C2  UNL     1      68.305  51.639  64.641  1.00  0.00     0.683 C 
HETATM    5  N4  UNL     1      67.844  50.493  64.098  1.00  0.00    -0.141 N 
ATOM      6  H4  UNL     1      67.950  49.670  64.691  1.00  0.00     0.189 HD
HETATM    7  C5  UNL     1      67.260  50.250  62.890  1.00  0.00     0.340 C 
HETATM    8  O2  UNL     1      66.902  49.084  62.676  1.00  0.00    -0.246 OA
HETATM    9  N5  UNL     1      67.021  51.129  61.891  1.00  0.00    -0.291 N 
ATOM     10  H5  UNL     1      66.492  50.775  61.094  1.00  0.00     0.172 HD
HETATM   11  C6  UNL     1      67.404  52.432  61.829  1.00  0.00     0.150 C 
HETATM   12  N6  UNL     1      67.598  52.885  60.690  1.00  0.00    -0.373 N 
ATOM     13  H6  UNL     1      67.419  52.185  59.970  1.00  0.00     0.161 HD
ENDROOT
BRANCH   1  14
HETATM   14  N1  UNL     1      67.201  54.443  62.931  1.00  0.00    -0.382 N 
ATOM     15  H12 UNL     1      67.864  55.219  62.943  1.00  0.00     0.157 HD
ATOM     16  H11 UNL     1      66.185  54.523  62.921  1.00  0.00     0.157 HD
ENDBRANCH   1  14
BRANCH  12  17
HETATM   17  C7  UNL     1      67.999  54.112  60.134  1.00  0.00     0.123 C 
BRANCH  17  18
HETATM   18  C8  UNL     1      69.301  54.003  59.336  1.00  0.00     0.045 C 
BRANCH  18  19
HETATM   19  C9  UNL     1      70.210  55.189  59.690  1.00  0.00     0.165 C 
BRANCH  19  20
HETATM   20  O3  UNL     1      69.953  56.215  58.776  1.00  0.00    -0.401 OA
ATOM     21  H3  UNL     1      69.696  56.986  59.268  1.00  0.00     0.209 HD
ENDBRANCH  19  20
ENDBRANCH  18  19
ENDBRANCH  17  18
ENDBRANCH  12  17
BRANCH   4  22
HETATM   22  N3  UNL     1      68.902  51.601  65.767  1.00  0.00    -0.224 N 
ATOM     23  H3  UNL     1      69.900  51.389  65.752  1.00  0.00     0.177 HD
BRANCH  22  24
HETATM   24  C3  UNL     1      68.311  51.826  67.048  1.00  0.00     0.164 C 
BRANCH  24  25
HETATM   25  C4  UNL     1      69.435  52.237  67.998  1.00  0.00     0.184 C 
BRANCH  25  26
HETATM   26  O1  UNL     1      70.289  53.135  67.350  1.00  0.00    -0.399 OA
ATOM     27  H1  UNL     1      70.925  53.472  67.970  1.00  0.00     0.209 HD
ENDBRANCH  25  26
ENDBRANCH  24  25
ENDBRANCH  22  24
ENDBRANCH   4  22
TORSDOF 9
ENDMDL
MODEL 3
REMARK VINA RESULT: -6.947547671      2.122      2.226
REMARK  9 active torsions:
REMARK  status: ('A' for Active; 'I' for Inactive)
REMARK    1  A    between atoms: N1_1  and  C1_4 
REMARK    2  A    between atoms: C2_7  and  N3_8 
REMARK    3  A    between atoms: N3_8  and  C3_10 
REMARK    4  A    between atoms: C3_10  and  C4_11 
REMARK    5  A    between atoms: C4_11  and  O1_12 
REMARK    6  A    between atoms: N6_21  and  C7_23 
REMARK    7  A    between atoms: C7_23  and  C8_24 
REMARK    8  A    between atoms: C8_24  and  C9_25 
REMARK    9  A    between atoms: C9_25  and  O3_26 
ROOT
HETATM    1  C1  UNL     1      67.137  53.008  62.381  1.00  0.00     0.159 C 
HETATM    2  N2  UNL     1      67.360  52.901  63.737  1.00  0.00    -0.173 N 
ATOM      3  H2  UNL     1      67.182  53.742  64.285  1.00  0.00     0.186 HD
HETATM    4  C2  UNL     1      67.784  51.825  64.429  1.00  0.00     0.683 C 
HETATM    5  N4  UNL     1      68.105  50.621  63.911  1.00  0.00    -0.141 N 
ATOM      6  H4  UNL     1      68.332  49.908  64.604  1.00  0.00     0.189 HD
HETATM    7  C5  UNL     1      68.176  50.197  62.616  1.00  0.00     0.340 C 
HETATM    8  O2  UNL     1      68.469  49.007  62.442  1.00  0.00    -0.246 OA
HETATM    9  N5  UNL     1      67.963  50.919  61.493  1.00  0.00    -0.291 N 
ATOM     10  H5  UNL     1      67.978  50.403  60.614  1.00  0.00     0.172 HD
HETATM   11  C6  UNL     1      67.733  52.256  61.403  1.00  0.00     0.150 C 
HETATM   12  N6  UNL     1      68.114  52.800  60.354  1.00  0.00    -0.373 N 
ATOM     13  H6  UNL     1      68.538  52.130  59.714  1.00  0.00     0.161 HD
ENDROOT
BRANCH   1  14
HETATM   14  N1  UNL     1      66.284  53.904  62.098  1.00  0.00    -0.382 N 
ATOM     15  H12 UNL     1      66.405  54.869  62.406  1.00  0.00     0.157 HD
ATOM     16  H11 UNL     1      65.506  53.543  61.546  1.00  0.00     0.157 HD
ENDBRANCH   1  14
BRANCH  12  17
HETATM   17  C7  UNL     1      68.113  54.101  59.822  1.00  0.00     0.123 C 
BRANCH  17  18
HETATM   18  C8  UNL     1      69.513  54.715  59.756  1.00  0.00     0.045 C 
BRANCH  18  19
HETATM   19  C9  UNL     1      69.390  56.245  59.674  1.00  0.00     0.165 C 
BRANCH  19  20
HETATM   20  O3  UNL     1      69.774  56.637  58.388  1.00  0.00    -0.401 OA
ATOM     21  H3  UNL     1      70.375  55.982  58.052  1.00  0.00     0.209 HD
ENDBRANCH  19  20
ENDBRANCH  18  19
ENDBRANCH  17  18
ENDBRANCH  12  17
BRANCH   4  22
HETATM   22  N3  UNL     1      67.875  52.008  65.687  1.00  0.00    -0.224 N 
ATOM     23  H3  UNL     1      67.005  52.180  66.191  1.00  0.00     0.177 HD
BRANCH  22  24
HETATM   24  C3  UNL     1      69.075  51.995  66.462  1.00  0.00     0.164 C 
BRANCH  24  25
HETATM   25  C4  UNL     1      68.664  51.923  67.932  1.00  0.00     0.184 C 
BRANCH  25  26
HETATM   26  O1  UNL     1      67.502  51.156  68.054  1.00  0.00    -0.399 OA
ATOM     27  H1  UNL     1      66.805  51.690  68.419  1.00  0.00     0.209 HD
ENDBRANCH  25  26
ENDBRANCH  24  25
ENDBRANCH  22  24
ENDBRANCH   4  22
TORSDOF 9
ENDMDL
MODEL 4
REMARK VINA RESULT: -5.737154916      1.457      6.092
REMARK  9 active torsions:
REMARK  status: ('A' for Active; 'I' for Inactive)
REMARK    1  A    between atoms: N1_1  and  C1_4 
REMARK    2  A    between atoms: C2_7  and  N3_8 
REMARK    3  A    between atoms: N3_8  and  C3_10 
REMARK    4  A    between atoms: C3_10  and  C4_11 
REMARK    5  A    between atoms: C4_11  and  O1_12 
REMARK    6  A    between atoms: N6_21  and  C7_23 
REMARK    7  A    between atoms: C7_23  and  C8_24 
REMARK    8  A    between atoms: C8_24  and  C9_25 
REMARK    9  A    between atoms: C9_25  and  O3_26 
ROOT
HETATM    1  C1  UNL     1      68.043  52.367  64.289  1.00  0.00     0.159 C 
HETATM    2  N2  UNL     1      67.293  52.800  63.216  1.00  0.00    -0.173 N 
ATOM      3  H2  UNL     1      67.199  53.811  63.117  1.00  0.00     0.186 HD
HETATM    4  C2  UNL     1      66.670  52.056  62.282  1.00  0.00     0.683 C 
HETATM    5  N4  UNL     1      66.635  50.708  62.230  1.00  0.00    -0.141 N 
ATOM      6  H4  UNL     1      66.175  50.327  61.404  1.00  0.00     0.189 HD
HETATM    7  C5  UNL     1      67.112  49.770  63.098  1.00  0.00     0.340 C 
HETATM    8  O2  UNL     1      66.963  48.587  62.765  1.00  0.00    -0.246 OA
HETATM    9  N5  UNL     1      67.732  49.972  64.282  1.00  0.00    -0.291 N 
ATOM     10  H5  UNL     1      68.096  49.142  64.750  1.00  0.00     0.172 HD
HETATM   11  C6  UNL     1      67.925  51.157  64.920  1.00  0.00     0.150 C 
HETATM   12  N6  UNL     1      67.980  51.101  66.159  1.00  0.00    -0.373 N 
ATOM     13  H6  UNL     1      67.880  50.144  66.498  1.00  0.00     0.161 HD
ENDROOT
BRANCH   1  14
HETATM   14  N1  UNL     1      68.900  53.226  64.661  1.00  0.00    -0.382 N 
ATOM     15  H12 UNL     1      69.833  52.948  64.967  1.00  0.00     0.157 HD
ATOM     16  H11 UNL     1      68.545  54.181  64.610  1.00  0.00     0.157 HD
ENDBRANCH   1  14
BRANCH  12  17
HETATM   17  C7  UNL     1      68.144  52.013  67.215  1.00  0.00     0.123 C 
BRANCH  17  18
HETATM   18  C8  UNL     1      69.119  51.514  68.284  1.00  0.00     0.045 C 
BRANCH  18  19
HETATM   19  C9  UNL     1      70.418  52.329  68.202  1.00  0.00     0.165 C 
BRANCH  19  20
HETATM   20  O3  UNL     1      70.350  53.129  67.058  1.00  0.00    -0.401 OA
ATOM     21  H3  UNL     1      71.209  53.510  66.918  1.00  0.00     0.209 HD
ENDBRANCH  19  20
ENDBRANCH  18  19
ENDBRANCH  17  18
ENDBRANCH  12  17
BRANCH   4  22
HETATM   22  N3  UNL     1      66.069  52.731  61.382  1.00  0.00    -0.224 N 
ATOM     23  H3  UNL     1      65.266  52.288  60.934  1.00  0.00     0.177 HD
BRANCH  22  24
HETATM   24  C3  UNL     1      66.408  54.046  60.940  1.00  0.00     0.164 C 
BRANCH  24  25
HETATM   25  C4  UNL     1      67.413  53.894  59.799  1.00  0.00     0.184 C 
BRANCH  25  26
HETATM   26  O1  UNL     1      66.838  53.144  58.768  1.00  0.00    -0.399 OA
ATOM     27  H1  UNL     1      66.067  53.592  58.441  1.00  0.00     0.209 HD
ENDBRANCH  25  26
ENDBRANCH  24  25
ENDBRANCH  22  24
ENDBRANCH   4  22
TORSDOF 9
ENDMDL
MODEL 5
REMARK VINA RESULT: -5.246769810      3.385      7.517
REMARK  9 active torsions:
REMARK  status: ('A' for Active; 'I' for Inactive)
REMARK    1  A    between atoms: N1_1  and  C1_4 
REMARK    2  A    between atoms: C2_7  and  N3_8 
REMARK    3  A    between atoms: N3_8  and  C3_10 
REMARK    4  A    between atoms: C3_10  and  C4_11 
REMARK    5  A    between atoms: C4_11  and  O1_12 
REMARK    6  A    between atoms: N6_21  and  C7_23 
REMARK    7  A    between atoms: C7_23  and  C8_24 
REMARK    8  A    between atoms: C8_24  and  C9_25 
REMARK    9  A    between atoms: C9_25  and  O3_26 
ROOT
HETATM    1  C1  UNL     1      67.803  53.822  60.250  1.00  0.00     0.159 C 
HETATM    2  N2  UNL     1      68.552  54.969  60.096  1.00  0.00    -0.173 N 
ATOM      3  H2  UNL     1      69.556  54.869  60.245  1.00  0.00     0.186 HD
HETATM    4  C2  UNL     1      68.124  56.205  59.772  1.00  0.00     0.683 C 
HETATM    5  N4  UNL     1      66.845  56.574  59.558  1.00  0.00    -0.141 N 
ATOM      6  H4  UNL     1      66.727  57.539  59.249  1.00  0.00     0.189 HD
HETATM    7  C5  UNL     1      65.681  55.874  59.685  1.00  0.00     0.340 C 
HETATM    8  O2  UNL     1      64.642  56.474  59.380  1.00  0.00    -0.246 OA
HETATM    9  N5  UNL     1      65.521  54.599  60.103  1.00  0.00    -0.291 N 
ATOM     10  H5  UNL     1      64.576  54.219  60.047  1.00  0.00     0.172 HD
HETATM   11  C6  UNL     1      66.477  53.763  60.589  1.00  0.00     0.150 C 
HETATM   12  N6  UNL     1      66.087  52.912  61.404  1.00  0.00    -0.373 N 
ATOM     13  H6  UNL     1      65.083  52.977  61.566  1.00  0.00     0.161 HD
ENDROOT
BRANCH   1  14
HETATM   14  N1  UNL     1      68.478  52.768  60.036  1.00  0.00    -0.382 N 
ATOM     15  H12 UNL     1      68.898  52.583  59.125  1.00  0.00     0.157 HD
ATOM     16  H11 UNL     1      68.540  52.170  60.859  1.00  0.00     0.157 HD
ENDBRANCH   1  14
BRANCH  12  17
HETATM   17  C7  UNL     1      66.671  51.881  62.161  1.00  0.00     0.123 C 
BRANCH  17  18
HETATM   18  C8  UNL     1      67.206  52.367  63.510  1.00  0.00     0.045 C 
BRANCH  18  19
HETATM   19  C9  UNL     1      68.132  51.293  64.101  1.00  0.00     0.165 C 
BRANCH  19  20
HETATM   20  O3  UNL     1      68.624  50.522  63.043  1.00  0.00    -0.401 OA
ATOM     21  H3  UNL     1      67.945  50.472  62.381  1.00  0.00     0.209 HD
ENDBRANCH  19  20
ENDBRANCH  18  19
ENDBRANCH  17  18
ENDBRANCH  12  17
BRANCH   4  22
HETATM   22  N3  UNL     1      69.051  57.075  59.671  1.00  0.00    -0.224 N 
ATOM     23  H3  UNL     1      69.495  57.377  60.538  1.00  0.00     0.177 HD
BRANCH  22  24
HETATM   24  C3  UNL     1      69.528  57.670  58.463  1.00  0.00     0.164 C 
BRANCH  24  25
HETATM   25  C4  UNL     1      68.449  58.636  57.977  1.00  0.00     0.184 C 
BRANCH  25  26
HETATM   26  O1  UNL     1      68.545  58.785  56.590  1.00  0.00    -0.399 OA
ATOM     27  H1  UNL     1      68.357  57.955  56.168  1.00  0.00     0.209 HD
ENDBRANCH  25  26
ENDBRANCH  24  25
ENDBRANCH  22  24
ENDBRANCH   4  22
TORSDOF 9
ENDMDL
