MODEL 1
REMARK VINA RESULT: -6.696893238      0.000      0.000
REMARK  8 active torsions:
REMARK  status: ('A' for Active; 'I' for Inactive)
REMARK    1  A    between atoms: N1_1  and  C1_4 
REMARK    2  A    between atoms: C4_12  and  N4_13 
REMARK    3  A    between atoms: N4_13  and  C5_14 
REMARK    4  A    between atoms: N4_13  and  C7_20 
REMARK    5  A    between atoms: C5_14  and  C6_15 
REMARK    6  A    between atoms: C6_15  and  N5_16 
REMARK    7  A    between atoms: C7_20  and  C8_21 
REMARK    8  A    between atoms: C8_21  and  O2_22 
ROOT
HETATM    1  C1  UNL     1      67.935  51.516  65.348  1.00  0.00     0.680 A 
HETATM    2  N2  UNL     1      67.524  50.452  64.653  1.00  0.00    -0.154 N 
ATOM      3  H2  UNL     1      67.396  49.574  65.156  1.00  0.00     0.187 HD
HETATM    4  C2  UNL     1      67.266  50.464  63.332  1.00  0.00     0.290 A 
HETATM    5  O1  UNL     1      66.879  49.418  62.736  1.00  0.00    -0.265 OA
HETATM    6  C3  UNL     1      67.447  51.663  62.669  1.00  0.00     0.162 A 
HETATM    7  N3  UNL     1      67.297  52.055  61.405  1.00  0.00    -0.182 N 
ATOM      8  H3  UNL     1      66.988  51.445  60.649  1.00  0.00     0.184 HD
HETATM    9  C4  UNL     1      67.604  53.360  61.247  1.00  0.00     0.686 A 
HETATM   10  N6  UNL     1      67.957  53.792  62.463  1.00  0.00    -0.173 N 
ATOM     11  H6  UNL     1      68.249  54.744  62.682  1.00  0.00     0.186 HD
HETATM   12  C9  UNL     1      67.872  52.780  63.360  1.00  0.00     0.169 A 
HETATM   13  N7  UNL     1      68.100  52.665  64.668  1.00  0.00    -0.174 N 
ATOM     14  H7  UNL     1      68.415  53.490  65.179  1.00  0.00     0.186 HD
ENDROOT
BRANCH   9  15
HETATM   15  N4  UNL     1      67.555  54.119  59.990  1.00  0.00    -0.193 N 
BRANCH  15  16
HETATM   16  C5  UNL     1      66.295  54.665  59.684  1.00  0.00     0.109 C 
BRANCH  16  17
HETATM   17  C6  UNL     1      65.966  56.072  59.980  1.00  0.00     0.274 C 
BRANCH  17  18
HETATM   18  N5  UNL     1      66.711  57.057  59.266  1.00  0.00    -0.075 N 
ATOM     19  H53 UNL     1      67.478  56.611  58.762  1.00  0.00     0.274 HD
ATOM     20  H52 UNL     1      66.157  57.409  58.486  1.00  0.00     0.274 HD
ATOM     21  H51 UNL     1      67.069  57.839  59.816  1.00  0.00     0.274 HD
ENDBRANCH  17  18
ENDBRANCH  16  17
ENDBRANCH  15  16
BRANCH  15  22
HETATM   22  C7  UNL     1      68.795  54.159  59.285  1.00  0.00     0.172 C 
BRANCH  22  23
HETATM   23  C8  UNL     1      69.784  55.209  59.587  1.00  0.00     0.185 C 
BRANCH  23  24
HETATM   24  O2  UNL     1      69.790  56.321  58.788  1.00  0.00    -0.399 OA
ATOM     25  H2  UNL     1      69.919  57.163  59.208  1.00  0.00     0.209 HD
ENDBRANCH  23  24
ENDBRANCH  22  23
ENDBRANCH  15  22
ENDBRANCH   9  15
BRANCH   1  26
HETATM   26  N1  UNL     1      68.155  51.410  66.621  1.00  0.00    -0.234 N 
ATOM     27  H12 UNL     1      67.642  50.765  67.222  1.00  0.00     0.174 HD
ATOM     28  H11 UNL     1      68.871  51.988  67.063  1.00  0.00     0.174 HD
ENDBRANCH   1  26
TORSDOF 8
ENDMDL
MODEL 2
REMARK VINA RESULT: -6.617252636      1.899      6.110
REMARK  8 active torsions:
REMARK  status: ('A' for Active; 'I' for Inactive)
REMARK    1  A    between atoms: N1_1  and  C1_4 
REMARK    2  A    between atoms: C4_12  and  N4_13 
REMARK    3  A    between atoms: N4_13  and  C5_14 
REMARK    4  A    between atoms: N4_13  and  C7_20 
REMARK    5  A    between atoms: C5_14  and  C6_15 
REMARK    6  A    between atoms: C6_15  and  N5_16 
REMARK    7  A    between atoms: C7_20  and  C8_21 
REMARK    8  A    between atoms: C8_21  and  O2_22 
ROOT
HETATM    1  C1  UNL     1      67.450  55.622  60.014  1.00  0.00     0.680 A 
HETATM    2  N2  UNL     1      66.426  54.897  59.559  1.00  0.00    -0.154 N 
ATOM      3  H2  UNL     1      65.928  55.238  58.737  1.00  0.00     0.187 HD
HETATM    4  C2  UNL     1      66.007  53.744  60.116  1.00  0.00     0.290 A 
HETATM    5  O1  UNL     1      65.027  53.109  59.633  1.00  0.00    -0.265 OA
HETATM    6  C3  UNL     1      66.694  53.301  61.229  1.00  0.00     0.162 A 
HETATM    7  N3  UNL     1      66.581  52.240  62.027  1.00  0.00    -0.182 N 
ATOM      8  H3  UNL     1      65.877  51.511  61.913  1.00  0.00     0.184 HD
HETATM    9  C4  UNL     1      67.512  52.249  63.005  1.00  0.00     0.686 A 
HETATM   10  N6  UNL     1      68.229  53.359  62.803  1.00  0.00    -0.173 N 
ATOM     11  H6  UNL     1      69.016  53.659  63.379  1.00  0.00     0.186 HD
HETATM   12  C9  UNL     1      67.758  54.029  61.724  1.00  0.00     0.169 A 
HETATM   13  N7  UNL     1      68.095  55.158  61.101  1.00  0.00    -0.174 N 
ATOM     14  H7  UNL     1      68.881  55.697  61.465  1.00  0.00     0.186 HD
ENDROOT
BRANCH   9  15
HETATM   15  N4  UNL     1      67.675  51.237  64.059  1.00  0.00    -0.193 N 
BRANCH  15  16
HETATM   16  C5  UNL     1      68.514  51.626  65.118  1.00  0.00     0.109 C 
BRANCH  16  17
HETATM   17  C6  UNL     1      68.079  51.544  66.524  1.00  0.00     0.274 C 
BRANCH  17  18
HETATM   18  N5  UNL     1      68.857  52.274  67.470  1.00  0.00    -0.075 N 
ATOM     19  H53 UNL     1      68.840  51.798  68.372  1.00  0.00     0.274 HD
ATOM     20  H52 UNL     1      69.847  52.192  67.238  1.00  0.00     0.274 HD
ATOM     21  H51 UNL     1      68.612  53.257  67.594  1.00  0.00     0.274 HD
ENDBRANCH  17  18
ENDBRANCH  16  17
ENDBRANCH  15  16
BRANCH  15  22
HETATM   22  C7  UNL     1      66.963  50.025  63.816  1.00  0.00     0.172 C 
BRANCH  22  23
HETATM   23  C8  UNL     1      67.518  49.013  62.899  1.00  0.00     0.185 C 
BRANCH  23  24
HETATM   24  O2  UNL     1      68.491  48.183  63.386  1.00  0.00    -0.399 OA
ATOM     25  H2  UNL     1      69.383  48.338  63.100  1.00  0.00     0.209 HD
ENDBRANCH  23  24
ENDBRANCH  22  23
ENDBRANCH  15  22
ENDBRANCH   9  15
BRANCH   1  26
HETATM   26  N1  UNL     1      67.784  56.719  59.409  1.00  0.00    -0.234 N 
ATOM     27  H12 UNL     1      67.330  57.614  59.592  1.00  0.00     0.174 HD
ATOM     28  H11 UNL     1      68.534  56.710  58.716  1.00  0.00     0.174 HD
ENDBRANCH   1  26
TORSDOF 8
ENDMDL
MODEL 3
REMARK VINA RESULT: -6.614256684      1.110      1.909
REMARK  8 active torsions:
REMARK  status: ('A' for Active; 'I' for Inactive)
REMARK    1  A    between atoms: N1_1  and  C1_4 
REMARK    2  A    between atoms: C4_12  and  N4_13 
REMARK    3  A    between atoms: N4_13  and  C5_14 
REMARK    4  A    between atoms: N4_13  and  C7_20 
REMARK    5  A    between atoms: C5_14  and  C6_15 
REMARK    6  A    between atoms: C6_15  and  N5_16 
REMARK    7  A    between atoms: C7_20  and  C8_21 
REMARK    8  A    between atoms: C8_21  and  O2_22 
ROOT
HETATM    1  C1  UNL     1      67.938  51.378  65.152  1.00  0.00     0.680 A 
HETATM    2  N2  UNL     1      67.582  50.346  64.383  1.00  0.00    -0.154 N 
ATOM      3  H2  UNL     1      67.499  49.430  64.822  1.00  0.00     0.187 HD
HETATM    4  C2  UNL     1      67.326  50.437  63.064  1.00  0.00     0.290 A 
HETATM    5  O1  UNL     1      66.994  49.417  62.395  1.00  0.00    -0.265 OA
HETATM    6  C3  UNL     1      67.447  51.687  62.487  1.00  0.00     0.162 A 
HETATM    7  N3  UNL     1      67.279  52.159  61.254  1.00  0.00    -0.182 N 
ATOM      8  H3  UNL     1      67.003  51.588  60.455  1.00  0.00     0.184 HD
HETATM    9  C4  UNL     1      67.520  53.486  61.188  1.00  0.00     0.686 A 
HETATM   10  N6  UNL     1      67.849  53.848  62.433  1.00  0.00    -0.173 N 
ATOM     11  H6  UNL     1      68.091  54.796  62.720  1.00  0.00     0.186 HD
HETATM   12  C9  UNL     1      67.814  52.774  63.257  1.00  0.00     0.169 A 
HETATM   13  N7  UNL     1      68.046  52.579  64.554  1.00  0.00    -0.174 N 
ATOM     14  H7  UNL     1      68.317  53.381  65.124  1.00  0.00     0.186 HD
ENDROOT
BRANCH   9  15
HETATM   15  N4  UNL     1      67.434  54.328  59.987  1.00  0.00    -0.193 N 
BRANCH  15  16
HETATM   16  C5  UNL     1      68.673  54.630  59.394  1.00  0.00     0.109 C 
BRANCH  16  17
HETATM   17  C6  UNL     1      69.486  55.776  59.838  1.00  0.00     0.274 C 
BRANCH  17  18
HETATM   18  N5  UNL     1      68.968  57.072  59.539  1.00  0.00    -0.075 N 
ATOM     19  H53 UNL     1      69.310  57.378  58.628  1.00  0.00     0.274 HD
ATOM     20  H52 UNL     1      67.968  57.006  59.348  1.00  0.00     0.274 HD
ATOM     21  H51 UNL     1      69.139  57.798  60.234  1.00  0.00     0.274 HD
ENDBRANCH  17  18
ENDBRANCH  16  17
ENDBRANCH  15  16
BRANCH  15  22
HETATM   22  C7  UNL     1      66.103  54.706  59.636  1.00  0.00     0.172 C 
BRANCH  22  23
HETATM   23  C8  UNL     1      65.592  56.039  60.007  1.00  0.00     0.185 C 
BRANCH  23  24
HETATM   24  O2  UNL     1      65.961  57.098  59.222  1.00  0.00    -0.399 OA
ATOM     25  H2  UNL     1      65.740  57.969  59.529  1.00  0.00     0.209 HD
ENDBRANCH  23  24
ENDBRANCH  22  23
ENDBRANCH  15  22
ENDBRANCH   9  15
BRANCH   1  26
HETATM   26  N1  UNL     1      68.162  51.195  66.416  1.00  0.00    -0.234 N 
ATOM     27  H12 UNL     1      68.925  50.615  66.767  1.00  0.00     0.174 HD
ATOM     28  H11 UNL     1      67.560  51.642  67.109  1.00  0.00     0.174 HD
ENDBRANCH   1  26
TORSDOF 8
ENDMDL
MODEL 4
REMARK VINA RESULT: -6.608016245      1.414      6.351
REMARK  8 active torsions:
REMARK  status: ('A' for Active; 'I' for Inactive)
REMARK    1  A    between atoms: N1_1  and  C1_4 
REMARK    2  A    between atoms: C4_12  and  N4_13 
REMARK    3  A    between atoms: N4_13  and  C5_14 
REMARK    4  A    between atoms: N4_13  and  C7_20 
REMARK    5  A    between atoms: C5_14  and  C6_15 
REMARK    6  A    between atoms: C6_15  and  N5_16 
REMARK    7  A    between atoms: C7_20  and  C8_21 
REMARK    8  A    between atoms: C8_21  and  O2_22 
ROOT
HETATM    1  C1  UNL     1      66.007  56.055  59.532  1.00  0.00     0.680 A 
HETATM    2  N2  UNL     1      67.337  56.153  59.487  1.00  0.00    -0.154 N 
ATOM      3  H2  UNL     1      67.743  56.898  58.921  1.00  0.00     0.187 HD
HETATM    4  C2  UNL     1      68.180  55.331  60.142  1.00  0.00     0.290 A 
HETATM    5  O1  UNL     1      69.432  55.480  60.054  1.00  0.00    -0.265 OA
HETATM    6  C3  UNL     1      67.611  54.327  60.902  1.00  0.00     0.162 A 
HETATM    7  N3  UNL     1      68.100  53.353  61.667  1.00  0.00    -0.182 N 
ATOM      8  H3  UNL     1      69.095  53.189  61.818  1.00  0.00     0.184 HD
HETATM    9  C4  UNL     1      67.118  52.609  62.218  1.00  0.00     0.686 A 
HETATM   10  N6  UNL     1      65.975  53.145  61.775  1.00  0.00    -0.173 N 
ATOM     11  H6  UNL     1      65.042  52.808  62.011  1.00  0.00     0.186 HD
HETATM   12  C9  UNL     1      66.237  54.200  60.967  1.00  0.00     0.169 A 
HETATM   13  N7  UNL     1      65.490  55.065  60.283  1.00  0.00    -0.174 N 
ATOM     14  H7  UNL     1      64.475  54.972  60.330  1.00  0.00     0.186 HD
ENDROOT
BRANCH   9  15
HETATM   15  N4  UNL     1      67.297  51.454  63.110  1.00  0.00    -0.193 N 
BRANCH  15  16
HETATM   16  C5  UNL     1      67.234  51.760  64.482  1.00  0.00     0.109 C 
BRANCH  16  17
HETATM   17  C6  UNL     1      68.385  51.547  65.378  1.00  0.00     0.274 C 
BRANCH  17  18
HETATM   18  N5  UNL     1      68.192  51.897  66.747  1.00  0.00    -0.075 N 
ATOM     19  H53 UNL     1      68.776  51.307  67.340  1.00  0.00     0.274 HD
ATOM     20  H52 UNL     1      68.608  52.811  66.931  1.00  0.00     0.274 HD
ATOM     21  H51 UNL     1      67.230  51.882  67.086  1.00  0.00     0.274 HD
ENDBRANCH  17  18
ENDBRANCH  16  17
ENDBRANCH  15  16
BRANCH  15  22
HETATM   22  C7  UNL     1      67.520  50.221  62.428  1.00  0.00     0.172 C 
BRANCH  22  23
HETATM   23  C8  UNL     1      67.321  48.941  63.131  1.00  0.00     0.185 C 
BRANCH  23  24
HETATM   24  O2  UNL     1      68.431  48.184  63.393  1.00  0.00    -0.399 OA
ATOM     25  H2  UNL     1      68.581  47.922  64.294  1.00  0.00     0.209 HD
ENDBRANCH  23  24
ENDBRANCH  22  23
ENDBRANCH  15  22
ENDBRANCH   9  15
BRANCH   1  26
HETATM   26  N1  UNL     1      65.275  56.896  58.870  1.00  0.00    -0.234 N 
ATOM     27  H12 UNL     1      65.664  57.686  58.355  1.00  0.00     0.174 HD
ATOM     28  H11 UNL     1      64.261  56.782  58.849  1.00  0.00     0.174 HD
ENDBRANCH   1  26
TORSDOF 8
ENDMDL
MODEL 5
REMARK VINA RESULT: -6.508657706      1.535      2.257
REMARK  8 active torsions:
REMARK  status: ('A' for Active; 'I' for Inactive)
REMARK    1  A    between atoms: N1_1  and  C1_4 
REMARK    2  A    between atoms: C4_12  and  N4_13 
REMARK    3  A    between atoms: N4_13  and  C5_14 
REMARK    4  A    between atoms: N4_13  and  C7_20 
REMARK    5  A    between atoms: C5_14  and  C6_15 
REMARK    6  A    between atoms: C6_15  and  N5_16 
REMARK    7  A    between atoms: C7_20  and  C8_21 
REMARK    8  A    between atoms: C8_21  and  O2_22 
ROOT
HETATM    1  C1  UNL     1      67.921  51.421  65.118  1.00  0.00     0.680 A 
HETATM    2  N2  UNL     1      67.509  50.448  64.303  1.00  0.00    -0.154 N 
ATOM      3  H2  UNL     1      67.349  49.524  64.704  1.00  0.00     0.187 HD
HETATM    4  C2  UNL     1      67.289  50.607  62.984  1.00  0.00     0.290 A 
HETATM    5  O1  UNL     1      66.900  49.640  62.269  1.00  0.00    -0.265 OA
HETATM    6  C3  UNL     1      67.513  51.865  62.459  1.00  0.00     0.162 A 
HETATM    7  N3  UNL     1      67.408  52.394  61.241  1.00  0.00    -0.182 N 
ATOM      8  H3  UNL     1      67.109  51.875  60.415  1.00  0.00     0.184 HD
HETATM    9  C4  UNL     1      67.746  53.701  61.233  1.00  0.00     0.686 A 
HETATM   10  N6  UNL     1      68.072  53.991  62.497  1.00  0.00    -0.173 N 
ATOM     11  H6  UNL     1      68.376  54.908  62.825  1.00  0.00     0.186 HD
HETATM   12  C9  UNL     1      67.941  52.892  63.277  1.00  0.00     0.169 A 
HETATM   13  N7  UNL     1      68.129  52.633  64.571  1.00  0.00    -0.174 N 
ATOM     14  H7  UNL     1      68.445  53.390  65.176  1.00  0.00     0.186 HD
ENDROOT
BRANCH   9  15
HETATM   15  N4  UNL     1      67.748  54.591  60.064  1.00  0.00    -0.193 N 
BRANCH  15  16
HETATM   16  C5  UNL     1      68.980  54.668  59.389  1.00  0.00     0.109 C 
BRANCH  16  17
HETATM   17  C6  UNL     1      69.960  55.729  59.681  1.00  0.00     0.274 C 
BRANCH  17  18
HETATM   18  N5  UNL     1      69.466  57.067  59.666  1.00  0.00    -0.075 N 
ATOM     19  H53 UNL     1      69.116  57.294  58.735  1.00  0.00     0.274 HD
ATOM     20  H52 UNL     1      68.602  57.121  60.206  1.00  0.00     0.274 HD
ATOM     21  H51 UNL     1      70.113  57.792  59.976  1.00  0.00     0.274 HD
ENDBRANCH  17  18
ENDBRANCH  16  17
ENDBRANCH  15  16
BRANCH  15  22
HETATM   22  C7  UNL     1      66.499  55.239  59.823  1.00  0.00     0.172 C 
BRANCH  22  23
HETATM   23  C8  UNL     1      65.239  54.485  59.953  1.00  0.00     0.185 C 
BRANCH  23  24
HETATM   24  O2  UNL     1      65.104  53.344  59.208  1.00  0.00    -0.399 OA
ATOM     25  H2  UNL     1      65.881  53.006  58.779  1.00  0.00     0.209 HD
ENDBRANCH  23  24
ENDBRANCH  22  23
ENDBRANCH  15  22
ENDBRANCH   9  15
BRANCH   1  26
HETATM   26  N1  UNL     1      68.102  51.174  66.378  1.00  0.00    -0.234 N 
ATOM     27  H12 UNL     1      68.399  51.886  67.047  1.00  0.00     0.174 HD
ATOM     28  H11 UNL     1      67.945  50.233  66.740  1.00  0.00     0.174 HD
ENDBRANCH   1  26
TORSDOF 8
ENDMDL
