MODEL 1
REMARK VINA RESULT: -6.665949003      0.000      0.000
REMARK  11 active torsions:
REMARK  status: ('A' for Active; 'I' for Inactive)
REMARK    1  A    between atoms: N1_2  and  C2_3 
REMARK    2  A    between atoms: N1_2  and  C4_7 
REMARK    3  A    between atoms: C2_3  and  C3_4 
REMARK    4  A    between atoms: C3_4  and  O1_5 
REMARK    5  A    between atoms: C4_7  and  C5_8 
REMARK    6  A    between atoms: C5_8  and  C6_9 
REMARK    7  A    between atoms: C5_8  and  O2_23 
REMARK    8  A    between atoms: C6_9  and  N2_10 
REMARK    9  A    between atoms: N2_10  and  C7_12 
REMARK   10  A    between atoms: C10_17  and  N4_18 
REMARK   11  A    between atoms: O2_23  and  N6_24 
ROOT
HETATM    1  C6  UNL     1      68.151  51.466  64.279  1.00  0.00     0.157 C 
ENDROOT
BRANCH   1   2
HETATM    2  C5  UNL     1      67.072  51.940  63.309  1.00  0.00     0.197 C 
BRANCH   2   3
HETATM    3  C4  UNL     1      67.376  53.366  62.853  1.00  0.00     0.307 C 
BRANCH   3   4
HETATM    4  N1  UNL     1      67.062  53.589  61.467  1.00  0.00     0.088 N 
HETATM    5  C1  UNL     1      65.733  54.149  61.300  1.00  0.00     0.310 C 
BRANCH   4   6
HETATM    6  C2  UNL     1      68.057  54.359  60.756  1.00  0.00     0.297 C 
BRANCH   6   7
HETATM    7  C3  UNL     1      68.529  53.714  59.486  1.00  0.00     0.194 C 
BRANCH   7   8
HETATM    8  O1  UNL     1      68.189  52.363  59.560  1.00  0.00    -0.399 OA
ATOM      9  H1  UNL     1      68.022  52.067  58.673  1.00  0.00     0.209 HD
ENDBRANCH   7   8
ENDBRANCH   6   7
ENDBRANCH   4   6
ENDBRANCH   3   4
ENDBRANCH   2   3
BRANCH   2  10
HETATM   10  O2  UNL     1      67.102  51.149  62.156  1.00  0.00    -0.279 OA
BRANCH  10  11
HETATM   11  N6  UNL     1      68.213  50.348  62.182  1.00  0.00    -0.311 N 
ATOM     12  H62 UNL     1      68.401  49.600  61.515  1.00  0.00     0.184 HD
ATOM     13  H61 UNL     1      68.809  50.619  62.964  1.00  0.00     0.184 HD
ENDBRANCH  10  11
ENDBRANCH   2  10
ENDBRANCH   1   2
BRANCH   1  14
HETATM   14  N2  UNL     1      67.844  51.857  65.623  1.00  0.00    -0.373 N 
ATOM     15  H2  UNL     1      66.873  52.112  65.801  1.00  0.00     0.161 HD
BRANCH  14  16
HETATM   16  C7  UNL     1      68.623  51.927  66.615  1.00  0.00     0.118 A 
HETATM   17  C8  UNL     1      68.229  51.280  67.777  1.00  0.00     0.066 A 
HETATM   18  C9  UNL     1      69.047  51.334  68.871  1.00  0.00     0.110 A 
HETATM   19  N3  UNL     1      70.208  52.008  68.802  1.00  0.00    -0.202 N 
HETATM   20  C10 UNL     1      70.604  52.640  67.677  1.00  0.00     0.677 A 
ATOM     21  H3  UNL     1      70.809  52.042  69.625  1.00  0.00     0.183 HD
HETATM   22  N5  UNL     1      69.809  52.596  66.589  1.00  0.00    -0.177 N 
ATOM     23  H5  UNL     1      70.100  53.071  65.734  1.00  0.00     0.185 HD
BRANCH  20  24
HETATM   24  N4  UNL     1      71.724  53.282  67.640  1.00  0.00    -0.234 N 
ATOM     25  H42 UNL     1      72.425  53.052  66.935  1.00  0.00     0.174 HD
ATOM     26  H41 UNL     1      71.921  54.025  68.309  1.00  0.00     0.174 HD
ENDBRANCH  20  24
ENDBRANCH  14  16
ENDBRANCH   1  14
TORSDOF 11
ENDMDL
MODEL 2
REMARK VINA RESULT: -6.631466291      2.304      4.240
REMARK  11 active torsions:
REMARK  status: ('A' for Active; 'I' for Inactive)
REMARK    1  A    between atoms: N1_2  and  C2_3 
REMARK    2  A    between atoms: N1_2  and  C4_7 
REMARK    3  A    between atoms: C2_3  and  C3_4 
REMARK    4  A    between atoms: C3_4  and  O1_5 
REMARK    5  A    between atoms: C4_7  and  C5_8 
REMARK    6  A    between atoms: C5_8  and  C6_9 
REMARK    7  A    between atoms: C5_8  and  O2_23 
REMARK    8  A    between atoms: C6_9  and  N2_10 
REMARK    9  A    between atoms: N2_10  and  C7_12 
REMARK   10  A    between atoms: C10_17  and  N4_18 
REMARK   11  A    between atoms: O2_23  and  N6_24 
ROOT
HETATM    1  C6  UNL     1      66.176  53.381  61.061  1.00  0.00     0.157 C 
ENDROOT
BRANCH   1   2
HETATM    2  C5  UNL     1      66.836  53.823  59.757  1.00  0.00     0.197 C 
BRANCH   2   3
HETATM    3  C4  UNL     1      68.339  53.560  59.824  1.00  0.00     0.307 C 
BRANCH   3   4
HETATM    4  N1  UNL     1      69.104  54.752  60.079  1.00  0.00     0.088 N 
HETATM    5  C1  UNL     1      70.369  54.741  59.370  1.00  0.00     0.310 C 
BRANCH   4   6
HETATM    6  C2  UNL     1      68.374  55.978  59.848  1.00  0.00     0.297 C 
BRANCH   6   7
HETATM    7  C3  UNL     1      69.236  57.121  59.398  1.00  0.00     0.194 C 
BRANCH   7   8
HETATM    8  O1  UNL     1      68.448  57.933  58.581  1.00  0.00    -0.399 OA
ATOM      9  H1  UNL     1      69.021  58.304  57.920  1.00  0.00     0.209 HD
ENDBRANCH   7   8
ENDBRANCH   6   7
ENDBRANCH   4   6
ENDBRANCH   3   4
ENDBRANCH   2   3
BRANCH   2  10
HETATM   10  O2  UNL     1      66.351  53.042  58.703  1.00  0.00    -0.279 OA
BRANCH  10  11
HETATM   11  N6  UNL     1      64.998  53.218  58.589  1.00  0.00    -0.311 N 
ATOM     12  H62 UNL     1      64.485  54.014  58.968  1.00  0.00     0.184 HD
ATOM     13  H61 UNL     1      64.595  52.436  58.074  1.00  0.00     0.184 HD
ENDBRANCH  10  11
ENDBRANCH   2  10
ENDBRANCH   1   2
BRANCH   1  14
HETATM   14  N2  UNL     1      67.107  53.417  62.149  1.00  0.00    -0.373 N 
ATOM     15  H2  UNL     1      67.602  54.299  62.281  1.00  0.00     0.161 HD
BRANCH  14  16
HETATM   16  C7  UNL     1      67.395  52.496  62.964  1.00  0.00     0.118 A 
HETATM   17  C8  UNL     1      67.020  51.205  62.621  1.00  0.00     0.066 A 
HETATM   18  C9  UNL     1      67.314  50.184  63.480  1.00  0.00     0.110 A 
HETATM   19  N3  UNL     1      67.957  50.445  64.632  1.00  0.00    -0.202 N 
HETATM   20  C10 UNL     1      68.329  51.697  64.976  1.00  0.00     0.677 A 
ATOM     21  H3  UNL     1      68.171  49.674  65.265  1.00  0.00     0.183 HD
HETATM   22  N5  UNL     1      68.046  52.716  64.140  1.00  0.00    -0.177 N 
ATOM     23  H5  UNL     1      68.324  53.664  64.392  1.00  0.00     0.185 HD
BRANCH  20  24
HETATM   24  N4  UNL     1      68.943  51.919  66.089  1.00  0.00    -0.234 N 
ATOM     25  H42 UNL     1      68.452  52.356  66.870  1.00  0.00     0.174 HD
ATOM     26  H41 UNL     1      69.923  51.660  66.205  1.00  0.00     0.174 HD
ENDBRANCH  20  24
ENDBRANCH  14  16
ENDBRANCH   1  14
TORSDOF 11
ENDMDL
MODEL 3
REMARK VINA RESULT: -6.591530048      1.243      1.527
REMARK  11 active torsions:
REMARK  status: ('A' for Active; 'I' for Inactive)
REMARK    1  A    between atoms: N1_2  and  C2_3 
REMARK    2  A    between atoms: N1_2  and  C4_7 
REMARK    3  A    between atoms: C2_3  and  C3_4 
REMARK    4  A    between atoms: C3_4  and  O1_5 
REMARK    5  A    between atoms: C4_7  and  C5_8 
REMARK    6  A    between atoms: C5_8  and  C6_9 
REMARK    7  A    between atoms: C5_8  and  O2_23 
REMARK    8  A    between atoms: C6_9  and  N2_10 
REMARK    9  A    between atoms: N2_10  and  C7_12 
REMARK   10  A    between atoms: C10_17  and  N4_18 
REMARK   11  A    between atoms: O2_23  and  N6_24 
ROOT
HETATM    1  C6  UNL     1      68.269  51.481  64.517  1.00  0.00     0.157 C 
ENDROOT
BRANCH   1   2
HETATM    2  C5  UNL     1      66.990  51.357  63.693  1.00  0.00     0.197 C 
BRANCH   2   3
HETATM    3  C4  UNL     1      67.246  51.837  62.265  1.00  0.00     0.307 C 
BRANCH   3   4
HETATM    4  N1  UNL     1      66.757  53.169  62.026  1.00  0.00     0.088 N 
HETATM    5  C1  UNL     1      67.787  54.030  61.477  1.00  0.00     0.310 C 
BRANCH   4   6
HETATM    6  C2  UNL     1      65.547  53.217  61.238  1.00  0.00     0.297 C 
BRANCH   6   7
HETATM    7  C3  UNL     1      65.716  53.890  59.907  1.00  0.00     0.194 C 
BRANCH   7   8
HETATM    8  O1  UNL     1      64.910  53.207  58.996  1.00  0.00    -0.399 OA
ATOM      9  H1  UNL     1      64.958  52.284  59.217  1.00  0.00     0.209 HD
ENDBRANCH   7   8
ENDBRANCH   6   7
ENDBRANCH   4   6
ENDBRANCH   3   4
ENDBRANCH   2   3
BRANCH   2  10
HETATM   10  O2  UNL     1      66.630  50.010  63.592  1.00  0.00    -0.279 OA
BRANCH  10  11
HETATM   11  N6  UNL     1      67.496  49.368  62.747  1.00  0.00    -0.311 N 
ATOM     12  H62 UNL     1      68.030  48.534  62.992  1.00  0.00     0.184 HD
ATOM     13  H61 UNL     1      67.520  49.854  61.851  1.00  0.00     0.184 HD
ENDBRANCH  10  11
ENDBRANCH   2  10
ENDBRANCH   1   2
BRANCH   1  14
HETATM   14  N2  UNL     1      67.972  51.695  65.902  1.00  0.00    -0.373 N 
ATOM     15  H2  UNL     1      66.982  51.709  66.147  1.00  0.00     0.161 HD
BRANCH  14  16
HETATM   16  C7  UNL     1      68.779  51.868  66.858  1.00  0.00     0.118 A 
HETATM   17  C8  UNL     1      68.487  51.234  68.057  1.00  0.00     0.066 A 
HETATM   18  C9  UNL     1      69.338  51.398  69.114  1.00  0.00     0.110 A 
HETATM   19  N3  UNL     1      70.434  52.165  68.974  1.00  0.00    -0.202 N 
HETATM   20  C10 UNL     1      70.730  52.785  67.812  1.00  0.00     0.677 A 
ATOM     21  H3  UNL     1      71.061  52.281  69.770  1.00  0.00     0.183 HD
HETATM   22  N5  UNL     1      69.901  52.633  66.760  1.00  0.00    -0.177 N 
ATOM     23  H5  UNL     1      70.117  53.098  65.878  1.00  0.00     0.185 HD
BRANCH  20  24
HETATM   24  N4  UNL     1      71.788  53.517  67.707  1.00  0.00    -0.234 N 
ATOM     25  H42 UNL     1      71.877  54.375  68.252  1.00  0.00     0.174 HD
ATOM     26  H41 UNL     1      72.548  53.248  67.082  1.00  0.00     0.174 HD
ENDBRANCH  20  24
ENDBRANCH  14  16
ENDBRANCH   1  14
TORSDOF 11
ENDMDL
MODEL 4
REMARK VINA RESULT: -6.393117581      2.250      4.001
REMARK  11 active torsions:
REMARK  status: ('A' for Active; 'I' for Inactive)
REMARK    1  A    between atoms: N1_2  and  C2_3 
REMARK    2  A    between atoms: N1_2  and  C4_7 
REMARK    3  A    between atoms: C2_3  and  C3_4 
REMARK    4  A    between atoms: C3_4  and  O1_5 
REMARK    5  A    between atoms: C4_7  and  C5_8 
REMARK    6  A    between atoms: C5_8  and  C6_9 
REMARK    7  A    between atoms: C5_8  and  O2_23 
REMARK    8  A    between atoms: C6_9  and  N2_10 
REMARK    9  A    between atoms: N2_10  and  C7_12 
REMARK   10  A    between atoms: C10_17  and  N4_18 
REMARK   11  A    between atoms: O2_23  and  N6_24 
ROOT
HETATM    1  C6  UNL     1      66.067  53.331  61.014  1.00  0.00     0.157 C 
ENDROOT
BRANCH   1   2
HETATM    2  C5  UNL     1      66.758  53.863  59.761  1.00  0.00     0.197 C 
BRANCH   2   3
HETATM    3  C4  UNL     1      67.616  55.075  60.119  1.00  0.00     0.307 C 
BRANCH   3   4
HETATM    4  N1  UNL     1      67.307  56.233  59.323  1.00  0.00     0.088 N 
HETATM    5  C1  UNL     1      66.009  56.786  59.660  1.00  0.00     0.310 C 
BRANCH   4   6
HETATM    6  C2  UNL     1      68.337  57.246  59.337  1.00  0.00     0.297 C 
BRANCH   6   7
HETATM    7  C3  UNL     1      69.689  56.731  59.738  1.00  0.00     0.194 C 
BRANCH   7   8
HETATM    8  O1  UNL     1      70.197  56.020  58.651  1.00  0.00    -0.399 OA
ATOM      9  H1  UNL     1      71.045  55.680  58.911  1.00  0.00     0.209 HD
ENDBRANCH   7   8
ENDBRANCH   6   7
ENDBRANCH   4   6
ENDBRANCH   3   4
ENDBRANCH   2   3
BRANCH   2  10
HETATM   10  O2  UNL     1      67.639  52.895  59.268  1.00  0.00    -0.279 OA
BRANCH  10  11
HETATM   11  N6  UNL     1      68.929  53.324  59.436  1.00  0.00    -0.311 N 
ATOM     12  H62 UNL     1      69.755  52.775  59.200  1.00  0.00     0.184 HD
ATOM     13  H61 UNL     1      68.925  54.264  59.830  1.00  0.00     0.184 HD
ENDBRANCH  10  11
ENDBRANCH   2  10
ENDBRANCH   1   2
BRANCH   1  14
HETATM   14  N2  UNL     1      66.926  53.426  62.156  1.00  0.00    -0.373 N 
ATOM     15  H2  UNL     1      67.301  54.354  62.355  1.00  0.00     0.161 HD
BRANCH  14  16
HETATM   16  C7  UNL     1      67.280  52.508  62.949  1.00  0.00     0.118 A 
HETATM   17  C8  UNL     1      66.941  51.208  62.606  1.00  0.00     0.066 A 
HETATM   18  C9  UNL     1      67.307  50.189  63.439  1.00  0.00     0.110 A 
HETATM   19  N3  UNL     1      67.984  50.463  64.569  1.00  0.00    -0.202 N 
HETATM   20  C10 UNL     1      68.321  51.724  64.914  1.00  0.00     0.677 A 
ATOM     21  H3  UNL     1      68.251  49.695  65.184  1.00  0.00     0.183 HD
HETATM   22  N5  UNL     1      67.967  52.741  64.102  1.00  0.00    -0.177 N 
ATOM     23  H5  UNL     1      68.218  53.696  64.354  1.00  0.00     0.185 HD
BRANCH  20  24
HETATM   24  N4  UNL     1      68.969  51.958  66.006  1.00  0.00    -0.234 N 
ATOM     25  H42 UNL     1      68.604  52.623  66.688  1.00  0.00     0.174 HD
ATOM     26  H41 UNL     1      69.850  51.482  66.201  1.00  0.00     0.174 HD
ENDBRANCH  20  24
ENDBRANCH  14  16
ENDBRANCH   1  14
TORSDOF 11
ENDMDL
MODEL 5
REMARK VINA RESULT: -6.272553942      3.041      4.576
REMARK  11 active torsions:
REMARK  status: ('A' for Active; 'I' for Inactive)
REMARK    1  A    between atoms: N1_2  and  C2_3 
REMARK    2  A    between atoms: N1_2  and  C4_7 
REMARK    3  A    between atoms: C2_3  and  C3_4 
REMARK    4  A    between atoms: C3_4  and  O1_5 
REMARK    5  A    between atoms: C4_7  and  C5_8 
REMARK    6  A    between atoms: C5_8  and  C6_9 
REMARK    7  A    between atoms: C5_8  and  O2_23 
REMARK    8  A    between atoms: C6_9  and  N2_10 
REMARK    9  A    between atoms: N2_10  and  C7_12 
REMARK   10  A    between atoms: C10_17  and  N4_18 
REMARK   11  A    between atoms: O2_23  and  N6_24 
ROOT
HETATM    1  C6  UNL     1      65.684  53.393  61.507  1.00  0.00     0.157 C 
ENDROOT
BRANCH   1   2
HETATM    2  C5  UNL     1      65.993  54.369  60.374  1.00  0.00     0.197 C 
BRANCH   2   3
HETATM    3  C4  UNL     1      67.256  53.922  59.638  1.00  0.00     0.307 C 
BRANCH   3   4
HETATM    4  N1  UNL     1      68.412  54.704  59.988  1.00  0.00     0.088 N 
HETATM    5  C1  UNL     1      69.618  54.187  59.368  1.00  0.00     0.310 C 
BRANCH   4   6
HETATM    6  C2  UNL     1      68.257  56.120  59.750  1.00  0.00     0.297 C 
BRANCH   6   7
HETATM    7  C3  UNL     1      69.540  56.824  59.419  1.00  0.00     0.194 C 
BRANCH   7   8
HETATM    8  O1  UNL     1      69.396  57.362  58.140  1.00  0.00    -0.399 OA
ATOM      9  H1  UNL     1      70.263  57.396  57.752  1.00  0.00     0.209 HD
ENDBRANCH   7   8
ENDBRANCH   6   7
ENDBRANCH   4   6
ENDBRANCH   3   4
ENDBRANCH   2   3
BRANCH   2  10
HETATM   10  O2  UNL     1      64.960  54.331  59.432  1.00  0.00    -0.279 OA
BRANCH  10  11
HETATM   11  N6  UNL     1      65.105  53.224  58.639  1.00  0.00    -0.311 N 
ATOM     12  H62 UNL     1      65.968  52.686  58.551  1.00  0.00     0.184 HD
ATOM     13  H61 UNL     1      64.226  53.031  58.161  1.00  0.00     0.184 HD
ENDBRANCH  10  11
ENDBRANCH   2  10
ENDBRANCH   1   2
BRANCH   1  14
HETATM   14  N2  UNL     1      66.802  53.259  62.392  1.00  0.00    -0.373 N 
ATOM     15  H2  UNL     1      67.362  54.100  62.532  1.00  0.00     0.161 HD
BRANCH  14  16
HETATM   16  C7  UNL     1      67.183  52.232  63.023  1.00  0.00     0.118 A 
HETATM   17  C8  UNL     1      67.787  52.433  64.255  1.00  0.00     0.066 A 
HETATM   18  C9  UNL     1      68.213  51.347  64.966  1.00  0.00     0.110 A 
HETATM   19  N3  UNL     1      68.040  50.112  64.462  1.00  0.00    -0.202 N 
HETATM   20  C10 UNL     1      67.452  49.903  63.264  1.00  0.00     0.677 A 
ATOM     21  H3  UNL     1      68.362  49.308  65.001  1.00  0.00     0.183 HD
HETATM   22  N5  UNL     1      67.027  50.965  62.551  1.00  0.00    -0.177 N 
ATOM     23  H5  UNL     1      66.581  50.817  61.646  1.00  0.00     0.185 HD
BRANCH  20  24
HETATM   24  N4  UNL     1      67.301  48.706  62.804  1.00  0.00    -0.234 N 
ATOM     25  H42 UNL     1      67.221  47.915  63.443  1.00  0.00     0.174 HD
ATOM     26  H41 UNL     1      67.256  48.536  61.799  1.00  0.00     0.174 HD
ENDBRANCH  20  24
ENDBRANCH  14  16
ENDBRANCH   1  14
TORSDOF 11
ENDMDL
