MODEL 1
REMARK VINA RESULT: -5.447288517      0.000      0.000
REMARK  11 active torsions:
REMARK  status: ('A' for Active; 'I' for Inactive)
REMARK    1  A    between atoms: C2_2  and  N1_3 
REMARK    2  A    between atoms: N1_3  and  C3_5 
REMARK    3  A    between atoms: C4_8  and  N3_9 
REMARK    4  A    between atoms: N3_9  and  C5_11 
REMARK    5  A    between atoms: C5_11  and  C6_12 
REMARK    6  A    between atoms: C6_12  and  O1_13 
REMARK    7  A    between atoms: C7_17  and  N5_18 
REMARK    8  A    between atoms: N5_18  and  C8_20 
REMARK    9  A    between atoms: C8_20  and  C9_21 
REMARK   10  A    between atoms: C9_21  and  C10_22 
REMARK   11  A    between atoms: C10_22  and  N6_23 
ROOT
HETATM    1  C3  UNL     1      68.607  52.127  65.262  1.00  0.00     0.707 A 
HETATM    2  N2  UNL     1      67.954  50.970  65.049  1.00  0.00    -0.022 N 
ATOM      3  H2  UNL     1      68.007  50.228  65.746  1.00  0.00     0.203 HD
HETATM    4  C4  UNL     1      67.224  50.776  63.916  1.00  0.00     0.707 A 
HETATM    5  N4  UNL     1      67.128  51.730  62.972  1.00  0.00    -0.022 N 
ATOM      6  H4  UNL     1      66.580  51.580  62.125  1.00  0.00     0.203 HD
HETATM    7  C7  UNL     1      67.779  52.888  63.184  1.00  0.00     0.707 A 
HETATM    8  N7  UNL     1      68.498  53.068  64.306  1.00  0.00    -0.022 N 
ATOM      9  H7  UNL     1      68.981  53.956  64.439  1.00  0.00     0.203 HD
ENDROOT
BRANCH   7  10
HETATM   10  N5  UNL     1      67.703  53.823  62.288  1.00  0.00    -0.225 N 
ATOM     11  H5  UNL     1      68.261  54.667  62.423  1.00  0.00     0.177 HD
BRANCH  10  12
HETATM   12  C8  UNL     1      66.877  53.737  61.120  1.00  0.00     0.139 C 
BRANCH  12  13
HETATM   13  C9  UNL     1      67.769  53.790  59.899  1.00  0.00     0.047 C 
BRANCH  13  14
HETATM   14  C10 UNL     1      68.735  54.945  60.107  1.00  0.00     0.231 C 
BRANCH  14  15
HETATM   15  N6  UNL     1      70.070  54.542  59.682  1.00  0.00    -0.079 N 
ATOM     16  H63 UNL     1      70.789  55.193  59.998  1.00  0.00     0.274 HD
ATOM     17  H62 UNL     1      70.398  53.712  60.175  1.00  0.00     0.274 HD
ATOM     18  H61 UNL     1      70.079  54.418  58.670  1.00  0.00     0.274 HD
ENDBRANCH  14  15
ENDBRANCH  13  14
ENDBRANCH  12  13
ENDBRANCH  10  12
ENDBRANCH   7  10
BRANCH   4  19
HETATM   19  N3  UNL     1      66.622  49.645  63.770  1.00  0.00    -0.223 N 
ATOM     20  H3  UNL     1      66.048  49.294  64.537  1.00  0.00     0.177 HD
BRANCH  19  21
HETATM   21  C5  UNL     1      66.725  48.863  62.577  1.00  0.00     0.164 C 
BRANCH  21  22
HETATM   22  C6  UNL     1      68.210  48.654  62.272  1.00  0.00     0.184 C 
BRANCH  22  23
HETATM   23  O1  UNL     1      68.759  47.935  63.332  1.00  0.00    -0.399 OA
ATOM     24  H1  UNL     1      68.389  48.283  64.135  1.00  0.00     0.209 HD
ENDBRANCH  22  23
ENDBRANCH  21  22
ENDBRANCH  19  21
ENDBRANCH   4  19
BRANCH   1  25
HETATM   25  N1  UNL     1      69.311  52.349  66.327  1.00  0.00    -0.225 N 
ATOM     26  H1  UNL     1      70.209  52.822  66.219  1.00  0.00     0.177 HD
BRANCH  25  27
HETATM   27  C2  UNL     1      68.905  51.970  67.644  1.00  0.00     0.133 C 
HETATM   28  C1  UNL     1      70.103  51.863  68.558  1.00  0.00     0.027 C 
ENDBRANCH  25  27
ENDBRANCH   1  25
TORSDOF 11
ENDMDL
MODEL 2
REMARK VINA RESULT: -5.408168564      3.270      6.874
REMARK  11 active torsions:
REMARK  status: ('A' for Active; 'I' for Inactive)
REMARK    1  A    between atoms: C2_2  and  N1_3 
REMARK    2  A    between atoms: N1_3  and  C3_5 
REMARK    3  A    between atoms: C4_8  and  N3_9 
REMARK    4  A    between atoms: N3_9  and  C5_11 
REMARK    5  A    between atoms: C5_11  and  C6_12 
REMARK    6  A    between atoms: C6_12  and  O1_13 
REMARK    7  A    between atoms: C7_17  and  N5_18 
REMARK    8  A    between atoms: N5_18  and  C8_20 
REMARK    9  A    between atoms: C8_20  and  C9_21 
REMARK   10  A    between atoms: C9_21  and  C10_22 
REMARK   11  A    between atoms: C10_22  and  N6_23 
ROOT
HETATM    1  C3  UNL     1      66.197  54.377  60.073  1.00  0.00     0.707 A 
HETATM    2  N2  UNL     1      67.399  54.390  59.468  1.00  0.00    -0.022 N 
ATOM      3  H2  UNL     1      67.466  54.668  58.490  1.00  0.00     0.203 HD
HETATM    4  C4  UNL     1      68.527  54.035  60.144  1.00  0.00     0.707 A 
HETATM    5  N4  UNL     1      68.481  53.663  61.436  1.00  0.00    -0.022 N 
ATOM      6  H4  UNL     1      69.328  53.399  61.939  1.00  0.00     0.203 HD
HETATM    7  C7  UNL     1      67.280  53.651  62.043  1.00  0.00     0.707 A 
HETATM    8  N7  UNL     1      66.173  54.002  61.364  1.00  0.00    -0.022 N 
ATOM      9  H7  UNL     1      65.276  53.983  61.850  1.00  0.00     0.203 HD
ENDROOT
BRANCH   7  10
HETATM   10  N5  UNL     1      67.209  53.295  63.288  1.00  0.00    -0.225 N 
ATOM     11  H5  UNL     1      66.862  53.975  63.965  1.00  0.00     0.177 HD
BRANCH  10  12
HETATM   12  C8  UNL     1      67.593  52.000  63.766  1.00  0.00     0.139 C 
BRANCH  12  13
HETATM   13  C9  UNL     1      67.217  50.973  62.719  1.00  0.00     0.047 C 
BRANCH  13  14
HETATM   14  C10 UNL     1      67.779  49.640  63.188  1.00  0.00     0.231 C 
BRANCH  14  15
HETATM   15  N6  UNL     1      66.747  48.910  63.915  1.00  0.00    -0.079 N 
ATOM     16  H63 UNL     1      66.883  47.901  63.868  1.00  0.00     0.274 HD
ATOM     17  H62 UNL     1      66.835  49.021  64.925  1.00  0.00     0.274 HD
ATOM     18  H61 UNL     1      65.829  49.193  63.574  1.00  0.00     0.274 HD
ENDBRANCH  14  15
ENDBRANCH  13  14
ENDBRANCH  12  13
ENDBRANCH  10  12
ENDBRANCH   7  10
BRANCH   4  19
HETATM   19  N3  UNL     1      69.649  54.067  59.510  1.00  0.00    -0.223 N 
ATOM     20  H3  UNL     1      69.851  53.328  58.836  1.00  0.00     0.177 HD
BRANCH  19  21
HETATM   21  C5  UNL     1      70.622  55.094  59.713  1.00  0.00     0.164 C 
BRANCH  21  22
HETATM   22  C6  UNL     1      69.909  56.447  59.641  1.00  0.00     0.184 C 
BRANCH  22  23
HETATM   23  O1  UNL     1      69.779  56.781  58.294  1.00  0.00    -0.399 OA
ATOM     24  H1  UNL     1      69.427  57.662  58.250  1.00  0.00     0.209 HD
ENDBRANCH  22  23
ENDBRANCH  21  22
ENDBRANCH  19  21
ENDBRANCH   4  19
BRANCH   1  25
HETATM   25  N1  UNL     1      65.102  54.707  59.462  1.00  0.00    -0.225 N 
ATOM     26  H1  UNL     1      64.402  53.982  59.306  1.00  0.00     0.177 HD
BRANCH  25  27
HETATM   27  C2  UNL     1      64.818  56.026  58.994  1.00  0.00     0.133 C 
HETATM   28  C1  UNL     1      65.929  56.977  59.376  1.00  0.00     0.027 C 
ENDBRANCH  25  27
ENDBRANCH   1  25
TORSDOF 11
ENDMDL
MODEL 3
REMARK VINA RESULT: -5.382978134      3.194      6.606
REMARK  11 active torsions:
REMARK  status: ('A' for Active; 'I' for Inactive)
REMARK    1  A    between atoms: C2_2  and  N1_3 
REMARK    2  A    between atoms: N1_3  and  C3_5 
REMARK    3  A    between atoms: C4_8  and  N3_9 
REMARK    4  A    between atoms: N3_9  and  C5_11 
REMARK    5  A    between atoms: C5_11  and  C6_12 
REMARK    6  A    between atoms: C6_12  and  O1_13 
REMARK    7  A    between atoms: C7_17  and  N5_18 
REMARK    8  A    between atoms: N5_18  and  C8_20 
REMARK    9  A    between atoms: C8_20  and  C9_21 
REMARK   10  A    between atoms: C9_21  and  C10_22 
REMARK   11  A    between atoms: C10_22  and  N6_23 
ROOT
HETATM    1  C3  UNL     1      68.318  53.711  59.834  1.00  0.00     0.707 A 
HETATM    2  N2  UNL     1      67.203  54.284  59.345  1.00  0.00    -0.022 N 
ATOM      3  H2  UNL     1      67.264  54.874  58.516  1.00  0.00     0.203 HD
HETATM    4  C4  UNL     1      65.995  54.089  59.943  1.00  0.00     0.707 A 
HETATM    5  N4  UNL     1      65.873  53.317  61.038  1.00  0.00    -0.022 N 
ATOM      6  H4  UNL     1      64.966  53.173  61.482  1.00  0.00     0.203 HD
HETATM    7  C7  UNL     1      66.986  52.742  61.527  1.00  0.00     0.707 A 
HETATM    8  N7  UNL     1      68.173  52.943  60.929  1.00  0.00    -0.022 N 
ATOM      9  H7  UNL     1      69.000  52.494  61.323  1.00  0.00     0.203 HD
ENDROOT
BRANCH   7  10
HETATM   10  N5  UNL     1      66.894  51.994  62.583  1.00  0.00    -0.225 N 
ATOM     11  H5  UNL     1      66.455  52.388  63.416  1.00  0.00     0.177 HD
BRANCH  10  12
HETATM   12  C8  UNL     1      67.373  50.645  62.644  1.00  0.00     0.139 C 
BRANCH  12  13
HETATM   13  C9  UNL     1      67.684  50.312  64.087  1.00  0.00     0.047 C 
BRANCH  13  14
HETATM   14  C10 UNL     1      68.333  51.545  64.695  1.00  0.00     0.231 C 
BRANCH  14  15
HETATM   15  N6  UNL     1      67.827  51.740  66.048  1.00  0.00    -0.079 N 
ATOM     16  H63 UNL     1      66.902  51.331  66.178  1.00  0.00     0.274 HD
ATOM     17  H62 UNL     1      68.332  51.178  66.734  1.00  0.00     0.274 HD
ATOM     18  H61 UNL     1      67.846  52.734  66.276  1.00  0.00     0.274 HD
ENDBRANCH  14  15
ENDBRANCH  13  14
ENDBRANCH  12  13
ENDBRANCH  10  12
ENDBRANCH   7  10
BRANCH   4  19
HETATM   19  N3  UNL     1      64.964  54.666  59.427  1.00  0.00    -0.223 N 
ATOM     20  H3  UNL     1      64.101  54.129  59.330  1.00  0.00     0.177 HD
BRANCH  19  21
HETATM   21  C5  UNL     1      64.979  56.025  58.987  1.00  0.00     0.164 C 
BRANCH  21  22
HETATM   22  C6  UNL     1      66.007  56.787  59.827  1.00  0.00     0.184 C 
BRANCH  22  23
HETATM   23  O1  UNL     1      66.960  57.307  58.954  1.00  0.00    -0.399 OA
ATOM     24  H1  UNL     1      67.374  58.044  59.388  1.00  0.00     0.209 HD
ENDBRANCH  22  23
ENDBRANCH  21  22
ENDBRANCH  19  21
ENDBRANCH   4  19
BRANCH   1  25
HETATM   25  N1  UNL     1      69.485  53.873  59.293  1.00  0.00    -0.225 N 
ATOM     26  H1  UNL     1      69.715  53.314  58.471  1.00  0.00     0.177 HD
BRANCH  25  27
HETATM   27  C2  UNL     1      70.468  54.788  59.779  1.00  0.00     0.133 C 
HETATM   28  C1  UNL     1      70.049  56.214  59.505  1.00  0.00     0.027 C 
ENDBRANCH  25  27
ENDBRANCH   1  25
TORSDOF 11
ENDMDL
MODEL 4
REMARK VINA RESULT: -5.371003918      3.310      6.644
REMARK  11 active torsions:
REMARK  status: ('A' for Active; 'I' for Inactive)
REMARK    1  A    between atoms: C2_2  and  N1_3 
REMARK    2  A    between atoms: N1_3  and  C3_5 
REMARK    3  A    between atoms: C4_8  and  N3_9 
REMARK    4  A    between atoms: N3_9  and  C5_11 
REMARK    5  A    between atoms: C5_11  and  C6_12 
REMARK    6  A    between atoms: C6_12  and  O1_13 
REMARK    7  A    between atoms: C7_17  and  N5_18 
REMARK    8  A    between atoms: N5_18  and  C8_20 
REMARK    9  A    between atoms: C8_20  and  C9_21 
REMARK   10  A    between atoms: C9_21  and  C10_22 
REMARK   11  A    between atoms: C10_22  and  N6_23 
ROOT
HETATM    1  C3  UNL     1      68.263  53.729  59.868  1.00  0.00     0.707 A 
HETATM    2  N2  UNL     1      67.162  54.287  59.332  1.00  0.00    -0.022 N 
ATOM      3  H2  UNL     1      67.242  54.828  58.471  1.00  0.00     0.203 HD
HETATM    4  C4  UNL     1      65.944  54.140  59.922  1.00  0.00     0.707 A 
HETATM    5  N4  UNL     1      65.796  53.433  61.057  1.00  0.00    -0.022 N 
ATOM      6  H4  UNL     1      64.882  53.324  61.496  1.00  0.00     0.203 HD
HETATM    7  C7  UNL     1      66.896  52.873  61.594  1.00  0.00     0.707 A 
HETATM    8  N7  UNL     1      68.094  53.026  61.002  1.00  0.00    -0.022 N 
ATOM      9  H7  UNL     1      68.910  52.591  61.432  1.00  0.00     0.203 HD
ENDROOT
BRANCH   7  10
HETATM   10  N5  UNL     1      66.780  52.187  62.688  1.00  0.00    -0.225 N 
ATOM     11  H5  UNL     1      66.008  51.523  62.761  1.00  0.00     0.177 HD
BRANCH  10  12
HETATM   12  C8  UNL     1      67.675  52.309  63.800  1.00  0.00     0.139 C 
BRANCH  12  13
HETATM   13  C9  UNL     1      68.042  50.920  64.275  1.00  0.00     0.047 C 
BRANCH  13  14
HETATM   14  C10 UNL     1      67.510  49.944  63.238  1.00  0.00     0.231 C 
BRANCH  14  15
HETATM   15  N6  UNL     1      66.750  48.894  63.907  1.00  0.00    -0.079 N 
ATOM     16  H63 UNL     1      67.139  48.659  64.819  1.00  0.00     0.274 HD
ATOM     17  H62 UNL     1      65.835  49.219  64.218  1.00  0.00     0.274 HD
ATOM     18  H61 UNL     1      66.684  48.082  63.293  1.00  0.00     0.274 HD
ENDBRANCH  14  15
ENDBRANCH  13  14
ENDBRANCH  12  13
ENDBRANCH  10  12
ENDBRANCH   7  10
BRANCH   4  19
HETATM   19  N3  UNL     1      64.927  54.699  59.360  1.00  0.00    -0.223 N 
ATOM     20  H3  UNL     1      64.085  54.142  59.208  1.00  0.00     0.177 HD
BRANCH  19  21
HETATM   21  C5  UNL     1      64.930  56.065  58.941  1.00  0.00     0.164 C 
BRANCH  21  22
HETATM   22  C6  UNL     1      65.954  56.822  59.791  1.00  0.00     0.184 C 
BRANCH  22  23
HETATM   23  O1  UNL     1      66.939  57.303  58.930  1.00  0.00    -0.399 OA
ATOM     24  H1  UNL     1      67.748  57.359  59.425  1.00  0.00     0.209 HD
ENDBRANCH  22  23
ENDBRANCH  21  22
ENDBRANCH  19  21
ENDBRANCH   4  19
BRANCH   1  25
HETATM   25  N1  UNL     1      69.439  53.848  59.335  1.00  0.00    -0.225 N 
ATOM     26  H1  UNL     1      69.668  53.250  58.540  1.00  0.00     0.177 HD
BRANCH  25  27
HETATM   27  C2  UNL     1      70.433  54.764  59.795  1.00  0.00     0.133 C 
HETATM   28  C1  UNL     1      70.033  56.186  59.475  1.00  0.00     0.027 C 
ENDBRANCH  25  27
ENDBRANCH   1  25
TORSDOF 11
ENDMDL
MODEL 5
REMARK VINA RESULT: -5.300925823      3.079      6.812
REMARK  11 active torsions:
REMARK  status: ('A' for Active; 'I' for Inactive)
REMARK    1  A    between atoms: C2_2  and  N1_3 
REMARK    2  A    between atoms: N1_3  and  C3_5 
REMARK    3  A    between atoms: C4_8  and  N3_9 
REMARK    4  A    between atoms: N3_9  and  C5_11 
REMARK    5  A    between atoms: C5_11  and  C6_12 
REMARK    6  A    between atoms: C6_12  and  O1_13 
REMARK    7  A    between atoms: C7_17  and  N5_18 
REMARK    8  A    between atoms: N5_18  and  C8_20 
REMARK    9  A    between atoms: C8_20  and  C9_21 
REMARK   10  A    between atoms: C9_21  and  C10_22 
REMARK   11  A    between atoms: C10_22  and  N6_23 
ROOT
HETATM    1  C3  UNL     1      66.117  54.536  60.137  1.00  0.00     0.707 A 
HETATM    2  N2  UNL     1      67.303  54.580  59.503  1.00  0.00    -0.022 N 
ATOM      3  H2  UNL     1      67.429  55.217  58.718  1.00  0.00     0.203 HD
HETATM    4  C4  UNL     1      68.337  53.785  59.895  1.00  0.00     0.707 A 
HETATM    5  N4  UNL     1      68.211  52.930  60.927  1.00  0.00    -0.022 N 
ATOM      6  H4  UNL     1      68.987  52.337  61.218  1.00  0.00     0.203 HD
HETATM    7  C7  UNL     1      67.025  52.885  61.563  1.00  0.00     0.707 A 
HETATM    8  N7  UNL     1      66.012  53.675  61.165  1.00  0.00    -0.022 N 
ATOM      9  H7  UNL     1      65.125  53.619  61.666  1.00  0.00     0.203 HD
ENDROOT
BRANCH   7  10
HETATM   10  N5  UNL     1      66.879  52.069  62.560  1.00  0.00    -0.225 N 
ATOM     11  H5  UNL     1      66.410  52.413  63.399  1.00  0.00     0.177 HD
BRANCH  10  12
HETATM   12  C8  UNL     1      67.340  50.713  62.549  1.00  0.00     0.139 C 
BRANCH  12  13
HETATM   13  C9  UNL     1      67.737  50.330  63.959  1.00  0.00     0.047 C 
BRANCH  13  14
HETATM   14  C10 UNL     1      68.304  51.581  64.613  1.00  0.00     0.231 C 
BRANCH  14  15
HETATM   15  N6  UNL     1      67.820  51.670  65.984  1.00  0.00    -0.079 N 
ATOM     16  H63 UNL     1      67.136  52.417  66.105  1.00  0.00     0.274 HD
ATOM     17  H62 UNL     1      67.221  50.884  66.235  1.00  0.00     0.274 HD
ATOM     18  H61 UNL     1      68.614  51.767  66.617  1.00  0.00     0.274 HD
ENDBRANCH  14  15
ENDBRANCH  13  14
ENDBRANCH  12  13
ENDBRANCH  10  12
ENDBRANCH   7  10
BRANCH   4  19
HETATM   19  N3  UNL     1      69.448  53.873  59.248  1.00  0.00    -0.223 N 
ATOM     20  H3  UNL     1      69.559  53.332  58.390  1.00  0.00     0.177 HD
BRANCH  19  21
HETATM   21  C5  UNL     1      70.533  54.695  59.684  1.00  0.00     0.164 C 
BRANCH  21  22
HETATM   22  C6  UNL     1      70.054  56.149  59.693  1.00  0.00     0.184 C 
BRANCH  22  23
HETATM   23  O1  UNL     1      69.836  56.528  58.370  1.00  0.00    -0.399 OA
ATOM     24  H1  UNL     1      70.683  56.560  57.939  1.00  0.00     0.209 HD
ENDBRANCH  22  23
ENDBRANCH  21  22
ENDBRANCH  19  21
ENDBRANCH   4  19
BRANCH   1  25
HETATM   25  N1  UNL     1      65.110  55.276  59.792  1.00  0.00    -0.225 N 
ATOM     26  H1  UNL     1      64.176  54.979  60.077  1.00  0.00     0.177 HD
BRANCH  25  27
HETATM   27  C2  UNL     1      65.231  56.483  59.038  1.00  0.00     0.133 C 
HETATM   28  C1  UNL     1      66.507  57.208  59.396  1.00  0.00     0.027 C 
ENDBRANCH  25  27
ENDBRANCH   1  25
TORSDOF 11
ENDMDL
