MODEL 1
REMARK VINA RESULT: -6.112773992      0.000      0.000
REMARK  8 active torsions:
REMARK  status: ('A' for Active; 'I' for Inactive)
REMARK       I    between atoms: C2_2  and  N1_4 
REMARK    1  A    between atoms: N1_4  and  C3_5 
REMARK    2  A    between atoms: C4_6  and  N2_7 
REMARK    3  A    between atoms: N2_7  and  C5_9 
REMARK    4  A    between atoms: C5_9  and  N3_11 
REMARK    5  A    between atoms: N3_11  and  C6_13 
REMARK    6  A    between atoms: C6_13  and  C8_15 
REMARK    7  A    between atoms: C13_21  and  S3_23 
REMARK    8  A    between atoms: S3_23  and  O2_24 
ROOT
HETATM    1  N2  UNL     1      49.207  10.001   0.754  1.00  0.00    -0.359 N 
ATOM      2  H2  UNL     1      50.021  10.607   0.866  1.00  0.00     0.162 HD
ENDROOT
BRANCH   1   3
HETATM    3  C4  UNL     1      49.323   8.612   0.819  1.00  0.00     0.125 C 
HETATM    4  C3  UNL     1      50.760   8.048   1.151  1.00  0.00     0.225 C 
HETATM    5  C13 UNL     1      49.982   7.035   2.047  1.00  0.00     0.146 C 
HETATM    6  C12 UNL     1      48.778   7.970   2.040  1.00  0.00     0.071 C 
HETATM    7 CL1  UNL     1      49.657   5.477   1.274  1.00  0.00    -0.101 Cl
BRANCH   4   8
HETATM    8  N1  UNL     1      51.693   8.682   1.460  1.00  0.00    -0.405 NA
HETATM    9  C2  UNL     1      52.918   9.512   1.866  1.00  0.00     0.282 C 
HETATM   10  C1  UNL     1      53.551  10.309   0.807  1.00  0.00     0.134 C 
HETATM   11  O1  UNL     1      53.380   9.558   3.010  1.00  0.00    -0.258 OA
ENDBRANCH   4   8
BRANCH   5  12
HETATM   12  S3  UNL     1      50.616   6.832   3.708  1.00  0.00     0.015 SA
BRANCH  12  13
HETATM   13  O2  UNL     1      52.339   6.595   3.574  1.00  0.00    -0.328 OA
ATOM     14  H2  UNL     1      52.589   5.972   4.247  1.00  0.00     0.228 HD
ENDBRANCH  12  13
ENDBRANCH   5  12
ENDBRANCH   1   3
BRANCH   1  15
HETATM   15  C5  UNL     1      47.900  10.540   0.525  1.00  0.00     0.168 C 
HETATM   16  S1  UNL     1      47.308  10.365  -1.021  1.00  0.00    -0.041 SA
BRANCH  15  17
HETATM   17  N3  UNL     1      47.098  11.154   1.492  1.00  0.00    -0.358 N 
ATOM     18  H3  UNL     1      47.240  10.866   2.461  1.00  0.00     0.162 HD
BRANCH  17  19
HETATM   19  C6  UNL     1      46.106  12.136   1.256  1.00  0.00     0.120 C 
HETATM   20  C7  UNL     1      44.706  11.458   1.350  1.00  0.00     0.038 C 
BRANCH  19  21
HETATM   21  C8  UNL     1      46.089  13.304   2.209  1.00  0.00     0.005 A 
HETATM   22  C9  UNL     1      46.962  13.319   3.360  1.00  0.00     0.017 A 
HETATM   23  C10 UNL     1      46.821  14.440   4.104  1.00  0.00     0.008 A 
HETATM   24  C11 UNL     1      45.929  15.394   3.730  1.00  0.00     0.050 A 
HETATM   25  S2  UNL     1      45.271  14.743   2.334  1.00  0.00    -0.104 SA
ENDBRANCH  19  21
ENDBRANCH  17  19
ENDBRANCH  15  17
ENDBRANCH   1  15
TORSDOF 8
ENDMDL
MODEL 2
REMARK VINA RESULT: -6.087726211      4.969      8.195
REMARK  8 active torsions:
REMARK  status: ('A' for Active; 'I' for Inactive)
REMARK       I    between atoms: C2_2  and  N1_4 
REMARK    1  A    between atoms: N1_4  and  C3_5 
REMARK    2  A    between atoms: C4_6  and  N2_7 
REMARK    3  A    between atoms: N2_7  and  C5_9 
REMARK    4  A    between atoms: C5_9  and  N3_11 
REMARK    5  A    between atoms: N3_11  and  C6_13 
REMARK    6  A    between atoms: C6_13  and  C8_15 
REMARK    7  A    between atoms: C13_21  and  S3_23 
REMARK    8  A    between atoms: S3_23  and  O2_24 
ROOT
HETATM    1  N2  UNL     1      45.719  13.154   2.613  1.00  0.00    -0.359 N 
ATOM      2  H2  UNL     1      44.763  13.231   2.961  1.00  0.00     0.162 HD
ENDROOT
BRANCH   1   3
HETATM    3  C4  UNL     1      46.715  14.042   3.023  1.00  0.00     0.125 C 
HETATM    4  C3  UNL     1      46.511  15.553   2.613  1.00  0.00     0.225 C 
HETATM    5  C13 UNL     1      47.036  15.849   4.053  1.00  0.00     0.146 C 
HETATM    6  C12 UNL     1      46.700  14.418   4.458  1.00  0.00     0.071 C 
HETATM    7 CL1  UNL     1      48.766  16.209   4.139  1.00  0.00    -0.101 Cl
BRANCH   4   8
HETATM    8  N1  UNL     1      45.558  16.007   2.110  1.00  0.00    -0.405 NA
HETATM    9  C2  UNL     1      44.308  16.603   1.449  1.00  0.00     0.282 C 
HETATM   10  C1  UNL     1      43.974  16.105   0.108  1.00  0.00     0.134 C 
HETATM   11  O1  UNL     1      43.576  17.447   1.976  1.00  0.00    -0.258 OA
ENDBRANCH   4   8
BRANCH   5  12
HETATM   12  S3  UNL     1      46.068  17.018   5.000  1.00  0.00     0.015 SA
BRANCH  12  13
HETATM   13  O2  UNL     1      44.389  16.596   4.775  1.00  0.00    -0.328 OA
ATOM     14  H2  UNL     1      43.925  17.399   4.567  1.00  0.00     0.228 HD
ENDBRANCH  12  13
ENDBRANCH   5  12
ENDBRANCH   1   3
BRANCH   1  15
HETATM   15  C5  UNL     1      46.095  12.131   1.683  1.00  0.00     0.168 C 
HETATM   16  S1  UNL     1      44.847  11.444   0.822  1.00  0.00    -0.041 SA
BRANCH  15  17
HETATM   17  N3  UNL     1      47.405  11.708   1.433  1.00  0.00    -0.358 N 
ATOM     18  H3  UNL     1      48.152  12.211   1.912  1.00  0.00     0.162 HD
BRANCH  17  19
HETATM   19  C6  UNL     1      47.792  10.648   0.578  1.00  0.00     0.120 C 
HETATM   20  C7  UNL     1      48.806  11.202  -0.468  1.00  0.00     0.038 C 
BRANCH  19  21
HETATM   21  C8  UNL     1      48.453   9.468   1.242  1.00  0.00     0.005 A 
HETATM   22  C9  UNL     1      47.881   8.886   2.435  1.00  0.00     0.017 A 
HETATM   23  C10 UNL     1      48.596   7.835   2.895  1.00  0.00     0.008 A 
HETATM   24  C11 UNL     1      49.719   7.440   2.240  1.00  0.00     0.050 A 
HETATM   25  S2  UNL     1      49.795   8.530   0.970  1.00  0.00    -0.104 SA
ENDBRANCH  19  21
ENDBRANCH  17  19
ENDBRANCH  15  17
ENDBRANCH   1  15
TORSDOF 8
ENDMDL
MODEL 3
REMARK VINA RESULT: -6.019781149      6.002      8.257
REMARK  8 active torsions:
REMARK  status: ('A' for Active; 'I' for Inactive)
REMARK       I    between atoms: C2_2  and  N1_4 
REMARK    1  A    between atoms: N1_4  and  C3_5 
REMARK    2  A    between atoms: C4_6  and  N2_7 
REMARK    3  A    between atoms: N2_7  and  C5_9 
REMARK    4  A    between atoms: C5_9  and  N3_11 
REMARK    5  A    between atoms: N3_11  and  C6_13 
REMARK    6  A    between atoms: C6_13  and  C8_15 
REMARK    7  A    between atoms: C13_21  and  S3_23 
REMARK    8  A    between atoms: S3_23  and  O2_24 
ROOT
HETATM    1  N2  UNL     1      45.832  13.283   2.487  1.00  0.00    -0.359 N 
ATOM      2  H2  UNL     1      44.846  13.399   2.720  1.00  0.00     0.162 HD
ENDROOT
BRANCH   1   3
HETATM    3  C4  UNL     1      46.801  14.164   2.971  1.00  0.00     0.125 C 
HETATM    4  C3  UNL     1      46.566  15.694   2.662  1.00  0.00     0.225 C 
HETATM    5  C13 UNL     1      47.065  15.903   4.126  1.00  0.00     0.146 C 
HETATM    6  C12 UNL     1      46.758  14.441   4.428  1.00  0.00     0.071 C 
HETATM    7 CL1  UNL     1      48.784  16.295   4.263  1.00  0.00    -0.101 Cl
BRANCH   4   8
HETATM    8  N1  UNL     1      45.610  16.159   2.176  1.00  0.00    -0.405 NA
HETATM    9  C2  UNL     1      44.355  16.771   1.538  1.00  0.00     0.282 C 
HETATM   10  C1  UNL     1      43.939  16.214   0.245  1.00  0.00     0.134 C 
HETATM   11  O1  UNL     1      43.683  17.673   2.048  1.00  0.00    -0.258 OA
ENDBRANCH   4   8
BRANCH   5  12
HETATM   12  S3  UNL     1      46.057  16.982   5.136  1.00  0.00     0.015 SA
BRANCH  12  13
HETATM   13  O2  UNL     1      44.390  16.587   4.804  1.00  0.00    -0.328 OA
ATOM     14  H2  UNL     1      43.862  17.313   5.117  1.00  0.00     0.228 HD
ENDBRANCH  12  13
ENDBRANCH   5  12
ENDBRANCH   1   3
BRANCH   1  15
HETATM   15  C5  UNL     1      46.281  12.211   1.648  1.00  0.00     0.168 C 
HETATM   16  S1  UNL     1      46.947  10.907   2.439  1.00  0.00    -0.041 SA
BRANCH  15  17
HETATM   17  N3  UNL     1      46.166  12.174   0.255  1.00  0.00    -0.358 N 
ATOM     18  H3  UNL     1      47.029  12.050  -0.277  1.00  0.00     0.162 HD
BRANCH  17  19
HETATM   19  C6  UNL     1      44.968  12.292  -0.489  1.00  0.00     0.120 C 
HETATM   20  C7  UNL     1      45.208  13.293  -1.659  1.00  0.00     0.038 C 
BRANCH  19  21
HETATM   21  C8  UNL     1      44.442  11.021  -1.106  1.00  0.00     0.005 A 
HETATM   22  C9  UNL     1      44.366   9.807  -0.325  1.00  0.00     0.017 A 
HETATM   23  C10 UNL     1      43.868   8.766  -1.029  1.00  0.00     0.008 A 
HETATM   24  C11 UNL     1      43.505   8.938  -2.328  1.00  0.00     0.050 A 
HETATM   25  S2  UNL     1      43.853  10.555  -2.586  1.00  0.00    -0.104 SA
ENDBRANCH  19  21
ENDBRANCH  17  19
ENDBRANCH  15  17
ENDBRANCH   1  15
TORSDOF 8
ENDMDL
MODEL 4
REMARK VINA RESULT: -5.986654773      1.044      1.218
REMARK  8 active torsions:
REMARK  status: ('A' for Active; 'I' for Inactive)
REMARK       I    between atoms: C2_2  and  N1_4 
REMARK    1  A    between atoms: N1_4  and  C3_5 
REMARK    2  A    between atoms: C4_6  and  N2_7 
REMARK    3  A    between atoms: N2_7  and  C5_9 
REMARK    4  A    between atoms: C5_9  and  N3_11 
REMARK    5  A    between atoms: N3_11  and  C6_13 
REMARK    6  A    between atoms: C6_13  and  C8_15 
REMARK    7  A    between atoms: C13_21  and  S3_23 
REMARK    8  A    between atoms: S3_23  and  O2_24 
ROOT
HETATM    1  N2  UNL     1      48.662   9.410   1.816  1.00  0.00    -0.359 N 
ATOM      2  H2  UNL     1      49.419  10.064   2.018  1.00  0.00     0.162 HD
ENDROOT
BRANCH   1   3
HETATM    3  C4  UNL     1      48.873   8.031   1.819  1.00  0.00     0.125 C 
HETATM    4  C3  UNL     1      50.380   7.558   1.805  1.00  0.00     0.225 C 
HETATM    5  C13 UNL     1      49.887   6.488   2.828  1.00  0.00     0.146 C 
HETATM    6  C12 UNL     1      48.659   7.343   3.116  1.00  0.00     0.071 C 
HETATM    7 CL1  UNL     1      49.491   4.920   2.111  1.00  0.00    -0.101 Cl
BRANCH   4   8
HETATM    8  N1  UNL     1      51.318   8.247   1.911  1.00  0.00    -0.405 NA
HETATM    9  C2  UNL     1      52.551   9.151   2.050  1.00  0.00     0.282 C 
HETATM   10  C1  UNL     1      52.939   9.918   0.860  1.00  0.00     0.134 C 
HETATM   11  O1  UNL     1      53.209   9.277   3.088  1.00  0.00    -0.258 OA
ENDBRANCH   4   8
BRANCH   5  12
HETATM   12  S3  UNL     1      50.892   6.309   4.298  1.00  0.00     0.015 SA
BRANCH  12  13
HETATM   13  O2  UNL     1      52.552   6.188   3.774  1.00  0.00    -0.328 OA
ATOM     14  H2  UNL     1      52.937   7.052   3.863  1.00  0.00     0.228 HD
ENDBRANCH  12  13
ENDBRANCH   5  12
ENDBRANCH   1   3
BRANCH   1  15
HETATM   15  C5  UNL     1      47.339   9.871   1.516  1.00  0.00     0.168 C 
HETATM   16  S1  UNL     1      46.555   9.067   0.287  1.00  0.00    -0.041 SA
BRANCH  15  17
HETATM   17  N3  UNL     1      46.668  10.896   2.192  1.00  0.00    -0.358 N 
ATOM     18  H3  UNL     1      46.566  10.795   3.202  1.00  0.00     0.162 HD
BRANCH  17  19
HETATM   19  C6  UNL     1      46.117  12.061   1.607  1.00  0.00     0.120 C 
HETATM   20  C7  UNL     1      44.608  11.802   1.317  1.00  0.00     0.038 C 
BRANCH  19  21
HETATM   21  C8  UNL     1      46.191  13.319   2.435  1.00  0.00     0.005 A 
HETATM   22  C9  UNL     1      45.363  14.458   2.107  1.00  0.00     0.017 A 
HETATM   23  C10 UNL     1      45.551  15.497   2.952  1.00  0.00     0.008 A 
HETATM   24  C11 UNL     1      46.444  15.388   3.971  1.00  0.00     0.050 A 
HETATM   25  S2  UNL     1      47.036  13.835   3.766  1.00  0.00    -0.104 SA
ENDBRANCH  19  21
ENDBRANCH  17  19
ENDBRANCH  15  17
ENDBRANCH   1  15
TORSDOF 8
ENDMDL
MODEL 5
REMARK VINA RESULT: -5.846633304      4.425      5.771
REMARK  8 active torsions:
REMARK  status: ('A' for Active; 'I' for Inactive)
REMARK       I    between atoms: C2_2  and  N1_4 
REMARK    1  A    between atoms: N1_4  and  C3_5 
REMARK    2  A    between atoms: C4_6  and  N2_7 
REMARK    3  A    between atoms: N2_7  and  C5_9 
REMARK    4  A    between atoms: C5_9  and  N3_11 
REMARK    5  A    between atoms: N3_11  and  C6_13 
REMARK    6  A    between atoms: C6_13  and  C8_15 
REMARK    7  A    between atoms: C13_21  and  S3_23 
REMARK    8  A    between atoms: S3_23  and  O2_24 
ROOT
HETATM    1  N2  UNL     1      44.710  11.679   1.152  1.00  0.00    -0.359 N 
ATOM      2  H2  UNL     1      43.748  11.340   1.178  1.00  0.00     0.162 HD
ENDROOT
BRANCH   1   3
HETATM    3  C4  UNL     1      45.792  10.799   1.212  1.00  0.00     0.125 C 
HETATM    4  C3  UNL     1      45.638   9.453   0.401  1.00  0.00     0.225 C 
HETATM    5  C13 UNL     1      47.131   9.699   0.018  1.00  0.00     0.146 C 
HETATM    6  C12 UNL     1      46.975  11.167   0.395  1.00  0.00     0.071 C 
HETATM    7 CL1  UNL     1      48.297   8.840   1.034  1.00  0.00    -0.101 Cl
BRANCH   4   8
HETATM    8  N1  UNL     1      44.764   9.184  -0.327  1.00  0.00    -0.405 NA
HETATM    9  C2  UNL     1      43.616   8.832  -1.283  1.00  0.00     0.282 C 
HETATM   10  C1  UNL     1      43.534   9.612  -2.525  1.00  0.00     0.134 C 
HETATM   11  O1  UNL     1      42.788   7.940  -1.077  1.00  0.00    -0.258 OA
ENDBRANCH   4   8
BRANCH   5  12
HETATM   12  S3  UNL     1      47.516   9.530  -1.721  1.00  0.00     0.015 SA
BRANCH  12  13
HETATM   13  O2  UNL     1      46.990   7.940  -2.212  1.00  0.00    -0.328 OA
ATOM     14  H2  UNL     1      47.091   7.368  -1.460  1.00  0.00     0.228 HD
ENDBRANCH  12  13
ENDBRANCH   5  12
ENDBRANCH   1   3
BRANCH   1  15
HETATM   15  C5  UNL     1      45.007  13.078   1.054  1.00  0.00     0.168 C 
HETATM   16  S1  UNL     1      44.721  13.773  -0.431  1.00  0.00    -0.041 SA
BRANCH  15  17
HETATM   17  N3  UNL     1      45.472  13.881   2.100  1.00  0.00    -0.358 N 
ATOM     18  H3  UNL     1      45.944  13.407   2.871  1.00  0.00     0.162 HD
BRANCH  17  19
HETATM   19  C6  UNL     1      45.350  15.288   2.192  1.00  0.00     0.120 C 
HETATM   20  C7  UNL     1      43.898  15.630   2.641  1.00  0.00     0.038 C 
BRANCH  19  21
HETATM   21  C8  UNL     1      46.278  15.973   3.162  1.00  0.00     0.005 A 
HETATM   22  C9  UNL     1      47.608  15.454   3.390  1.00  0.00     0.017 A 
HETATM   23  C10 UNL     1      48.307  16.190   4.284  1.00  0.00     0.008 A 
HETATM   24  C11 UNL     1      47.737  17.283   4.855  1.00  0.00     0.050 A 
HETATM   25  S2  UNL     1      46.216  17.302   4.153  1.00  0.00    -0.104 SA
ENDBRANCH  19  21
ENDBRANCH  17  19
ENDBRANCH  15  17
ENDBRANCH   1  15
TORSDOF 8
ENDMDL
