MODEL 1
REMARK VINA RESULT: -7.542334888      0.000      0.000
REMARK  5 active torsions:
REMARK  status: ('A' for Active; 'I' for Inactive)
REMARK    1  A    between atoms: C2_2  and  N1_3 
REMARK    2  A    between atoms: C4_8  and  N3_9 
REMARK       I    between atoms: N3_9  and  C5_11 
REMARK    3  A    between atoms: C5_11  and  C6_13 
REMARK    4  A    between atoms: C11_18  and  C12_19 
REMARK       I    between atoms: C12_19  and  N4_21 
REMARK    5  A    between atoms: N4_21  and  C13_23 
ROOT
HETATM    1  C6  UNL     1      47.167  11.549   0.968  1.00  0.00     0.091 C 
HETATM    2  C7  UNL     1      46.875  11.521  -0.473  1.00  0.00     0.015 C 
HETATM    3  C8  UNL     1      45.499  11.137  -0.877  1.00  0.00     0.001 C 
HETATM    4  C9  UNL     1      44.700  10.484   0.203  1.00  0.00     0.001 C 
HETATM    5  C10 UNL     1      44.682  11.421   1.370  1.00  0.00     0.015 C 
HETATM    6  C11 UNL     1      46.019  11.810   1.882  1.00  0.00     0.091 C 
ENDROOT
BRANCH   1   7
HETATM    7  C5  UNL     1      47.889  10.272   1.396  1.00  0.00     0.227 C 
HETATM    8  N3  UNL     1      48.852   9.697   0.576  1.00  0.00    -0.321 N 
ATOM      9  H3  UNL     1      49.023  10.187  -0.302  1.00  0.00     0.169 HD
HETATM   10  O1  UNL     1      47.537   9.837   2.489  1.00  0.00    -0.273 OA
BRANCH   8  11
HETATM   11  C4  UNL     1      49.615   8.555   0.774  1.00  0.00     0.118 A 
HETATM   12  C3  UNL     1      51.012   8.536   0.658  1.00  0.00     0.148 A 
HETATM   13  N2  UNL     1      51.450   7.298   0.905  1.00  0.00    -0.284 N 
HETATM   14 CL1  UNL     1      52.017   9.914   0.253  1.00  0.00    -0.060 Cl
HETATM   15  N1  UNL     1      50.423   6.553   1.167  1.00  0.00    -0.276 N 
ATOM     16  H2  UNL     1      52.423   6.993   0.890  1.00  0.00     0.188 HD
HETATM   17  C18 UNL     1      49.277   7.272   1.100  1.00  0.00     0.163 A 
HETATM   18  N5  UNL     1      48.009   6.664   1.349  1.00  0.00    -0.079 NA
BRANCH  15  19
HETATM   19  C2  UNL     1      50.479   5.135   1.489  1.00  0.00     0.146 C 
HETATM   20  C1  UNL     1      50.822   4.916   2.941  1.00  0.00     0.028 C 
ENDBRANCH  15  19
ENDBRANCH   8  11
ENDBRANCH   1   7
BRANCH   6  21
HETATM   21  C12 UNL     1      45.958  13.267   2.266  1.00  0.00     0.223 C 
HETATM   22  O2  UNL     1      45.055  14.023   1.768  1.00  0.00    -0.273 OA
HETATM   23  N4  UNL     1      46.896  13.812   3.174  1.00  0.00    -0.356 N 
ATOM     24  H4  UNL     1      47.620  13.214   3.574  1.00  0.00     0.162 HD
BRANCH  23  25
HETATM   25  C13 UNL     1      46.839  15.185   3.536  1.00  0.00     0.084 C 
HETATM   26  C14 UNL     1      48.168  15.788   3.891  1.00  0.00     0.025 C 
HETATM   27  C15 UNL     1      47.738  17.135   4.486  1.00  0.00     0.002 C 
HETATM   28  C16 UNL     1      46.359  16.907   5.058  1.00  0.00     0.002 C 
HETATM   29  C17 UNL     1      46.038  15.435   4.809  1.00  0.00     0.025 C 
ENDBRANCH  23  25
ENDBRANCH   6  21
TORSDOF 5
ENDMDL
MODEL 2
REMARK VINA RESULT: -7.509445159      1.071      1.137
REMARK  5 active torsions:
REMARK  status: ('A' for Active; 'I' for Inactive)
REMARK    1  A    between atoms: C2_2  and  N1_3 
REMARK    2  A    between atoms: C4_8  and  N3_9 
REMARK       I    between atoms: N3_9  and  C5_11 
REMARK    3  A    between atoms: C5_11  and  C6_13 
REMARK    4  A    between atoms: C11_18  and  C12_19 
REMARK       I    between atoms: C12_19  and  N4_21 
REMARK    5  A    between atoms: N4_21  and  C13_23 
ROOT
HETATM    1  C6  UNL     1      47.224  11.382   1.040  1.00  0.00     0.091 C 
HETATM    2  C7  UNL     1      47.168  11.380  -0.430  1.00  0.00     0.015 C 
HETATM    3  C8  UNL     1      45.854  11.092  -1.058  1.00  0.00     0.001 C 
HETATM    4  C9  UNL     1      44.849  10.489  -0.131  1.00  0.00     0.001 C 
HETATM    5  C10 UNL     1      44.704  11.420   1.032  1.00  0.00     0.015 C 
HETATM    6  C11 UNL     1      45.962  11.715   1.760  1.00  0.00     0.091 C 
ENDROOT
BRANCH   1   7
HETATM    7  C5  UNL     1      47.781  10.056   1.559  1.00  0.00     0.227 C 
HETATM    8  N3  UNL     1      48.991   9.566   1.084  1.00  0.00    -0.321 N 
ATOM      9  H3  UNL     1      49.452  10.148   0.386  1.00  0.00     0.169 HD
HETATM   10  O1  UNL     1      47.072   9.507   2.398  1.00  0.00    -0.273 OA
BRANCH   8  11
HETATM   11  C4  UNL     1      49.665   8.399   1.420  1.00  0.00     0.118 A 
HETATM   12  C3  UNL     1      50.424   7.660   0.502  1.00  0.00     0.148 A 
HETATM   13  N2  UNL     1      50.944   6.599   1.125  1.00  0.00    -0.284 N 
HETATM   14 CL1  UNL     1      50.651   8.065  -1.188  1.00  0.00    -0.060 Cl
HETATM   15  N1  UNL     1      50.561   6.632   2.363  1.00  0.00    -0.276 N 
ATOM     16  H2  UNL     1      51.539   5.887   0.701  1.00  0.00     0.188 HD
HETATM   17  C18 UNL     1      49.778   7.712   2.596  1.00  0.00     0.163 A 
HETATM   18  N5  UNL     1      49.232   7.962   3.891  1.00  0.00    -0.079 NA
BRANCH  15  19
HETATM   19  C2  UNL     1      50.917   5.649   3.374  1.00  0.00     0.146 C 
HETATM   20  C1  UNL     1      52.120   6.090   4.169  1.00  0.00     0.028 C 
ENDBRANCH  15  19
ENDBRANCH   8  11
ENDBRANCH   1   7
BRANCH   6  21
HETATM   21  C12 UNL     1      45.936  13.171   2.151  1.00  0.00     0.223 C 
HETATM   22  O2  UNL     1      45.103  13.968   1.598  1.00  0.00    -0.273 OA
HETATM   23  N4  UNL     1      46.830  13.670   3.129  1.00  0.00    -0.356 N 
ATOM     24  H4  UNL     1      47.497  13.040   3.573  1.00  0.00     0.162 HD
BRANCH  23  25
HETATM   25  C13 UNL     1      46.805  15.042   3.498  1.00  0.00     0.084 C 
HETATM   26  C14 UNL     1      48.152  15.619   3.828  1.00  0.00     0.025 C 
HETATM   27  C15 UNL     1      47.759  16.971   4.438  1.00  0.00     0.002 C 
HETATM   28  C16 UNL     1      46.388  16.765   5.037  1.00  0.00     0.002 C 
HETATM   29  C17 UNL     1      46.036  15.301   4.789  1.00  0.00     0.025 C 
ENDBRANCH  23  25
ENDBRANCH   6  21
TORSDOF 5
ENDMDL
MODEL 3
REMARK VINA RESULT: -7.250542480      2.854      4.545
REMARK  5 active torsions:
REMARK  status: ('A' for Active; 'I' for Inactive)
REMARK    1  A    between atoms: C2_2  and  N1_3 
REMARK    2  A    between atoms: C4_8  and  N3_9 
REMARK       I    between atoms: N3_9  and  C5_11 
REMARK    3  A    between atoms: C5_11  and  C6_13 
REMARK    4  A    between atoms: C11_18  and  C12_19 
REMARK       I    between atoms: C12_19  and  N4_21 
REMARK    5  A    between atoms: N4_21  and  C13_23 
ROOT
HETATM    1  C6  UNL     1      49.388   8.620   1.730  1.00  0.00     0.091 C 
HETATM    2  C7  UNL     1      50.254   8.273   0.594  1.00  0.00     0.015 C 
HETATM    3  C8  UNL     1      49.631   7.535  -0.533  1.00  0.00     0.001 C 
HETATM    4  C9  UNL     1      48.305   6.926  -0.211  1.00  0.00     0.001 C 
HETATM    5  C10 UNL     1      47.417   8.030   0.274  1.00  0.00     0.015 C 
HETATM    6  C11 UNL     1      47.934   8.784   1.442  1.00  0.00     0.091 C 
ENDROOT
BRANCH   1   7
HETATM    7  C5  UNL     1      49.578   7.626   2.876  1.00  0.00     0.227 C 
HETATM    8  N3  UNL     1      50.496   6.590   2.764  1.00  0.00    -0.321 N 
ATOM      9  H3  UNL     1      51.008   6.555   1.883  1.00  0.00     0.169 HD
HETATM   10  O1  UNL     1      48.864   7.840   3.852  1.00  0.00    -0.273 OA
BRANCH   8  11
HETATM   11  C4  UNL     1      50.820   5.593   3.675  1.00  0.00     0.118 A 
HETATM   12  C3  UNL     1      50.040   4.443   3.864  1.00  0.00     0.148 A 
HETATM   13  N2  UNL     1      50.611   3.683   4.802  1.00  0.00    -0.284 N 
HETATM   14 CL1  UNL     1      48.557   4.069   3.009  1.00  0.00    -0.060 Cl
HETATM   15  N1  UNL     1      51.689   4.281   5.204  1.00  0.00    -0.276 N 
ATOM     16  H2  UNL     1      50.261   2.788   5.143  1.00  0.00     0.188 HD
HETATM   17  C18 UNL     1      51.863   5.453   4.547  1.00  0.00     0.163 A 
HETATM   18  N5  UNL     1      52.984   6.293   4.821  1.00  0.00    -0.079 NA
BRANCH  15  19
HETATM   19  C2  UNL     1      52.596   3.773   6.221  1.00  0.00     0.146 C 
HETATM   20  C1  UNL     1      51.868   3.473   7.507  1.00  0.00     0.028 C 
ENDBRANCH  15  19
ENDBRANCH   8  11
ENDBRANCH   1   7
BRANCH   6  21
HETATM   21  C12 UNL     1      47.587  10.237   1.240  1.00  0.00     0.223 C 
HETATM   22  O2  UNL     1      47.743  10.780   0.093  1.00  0.00    -0.273 OA
HETATM   23  N4  UNL     1      47.089  11.014   2.313  1.00  0.00    -0.356 N 
ATOM     24  H4  UNL     1      46.964  10.587   3.231  1.00  0.00     0.162 HD
BRANCH  23  25
HETATM   25  C13 UNL     1      46.762  12.384   2.123  1.00  0.00     0.084 C 
HETATM   26  C14 UNL     1      46.847  13.219   3.369  1.00  0.00     0.025 C 
HETATM   27  C15 UNL     1      46.183  14.522   2.904  1.00  0.00     0.002 C 
HETATM   28  C16 UNL     1      45.210  14.119   1.821  1.00  0.00     0.002 C 
HETATM   29  C17 UNL     1      45.311  12.600   1.707  1.00  0.00     0.025 C 
ENDBRANCH  23  25
ENDBRANCH   6  21
TORSDOF 5
ENDMDL
MODEL 4
REMARK VINA RESULT: -7.178570808      1.610      1.836
REMARK  5 active torsions:
REMARK  status: ('A' for Active; 'I' for Inactive)
REMARK    1  A    between atoms: C2_2  and  N1_3 
REMARK    2  A    between atoms: C4_8  and  N3_9 
REMARK       I    between atoms: N3_9  and  C5_11 
REMARK    3  A    between atoms: C5_11  and  C6_13 
REMARK    4  A    between atoms: C11_18  and  C12_19 
REMARK       I    between atoms: C12_19  and  N4_21 
REMARK    5  A    between atoms: N4_21  and  C13_23 
ROOT
HETATM    1  C6  UNL     1      47.303  11.255   1.051  1.00  0.00     0.091 C 
HETATM    2  C7  UNL     1      47.014  11.684  -0.326  1.00  0.00     0.015 C 
HETATM    3  C8  UNL     1      45.597  11.643  -0.765  1.00  0.00     0.001 C 
HETATM    4  C9  UNL     1      44.702  10.836   0.118  1.00  0.00     0.001 C 
HETATM    5  C10 UNL     1      44.827  11.392   1.502  1.00  0.00     0.015 C 
HETATM    6  C11 UNL     1      46.205  11.413   2.048  1.00  0.00     0.091 C 
ENDROOT
BRANCH   1   7
HETATM    7  C5  UNL     1      47.815   9.815   1.070  1.00  0.00     0.227 C 
HETATM    8  N3  UNL     1      48.413   9.295   2.211  1.00  0.00    -0.321 N 
ATOM      9  H3  UNL     1      48.477   9.938   3.000  1.00  0.00     0.169 HD
HETATM   10  O1  UNL     1      47.644   9.206   0.017  1.00  0.00    -0.273 OA
BRANCH   8  11
HETATM   11  C4  UNL     1      48.938   8.029   2.436  1.00  0.00     0.118 A 
HETATM   12  C3  UNL     1      50.106   7.562   1.818  1.00  0.00     0.148 A 
HETATM   13  N2  UNL     1      50.347   6.316   2.236  1.00  0.00    -0.284 N 
HETATM   14 CL1  UNL     1      51.086   8.466   0.681  1.00  0.00    -0.060 Cl
HETATM   15  N1  UNL     1      49.412   5.983   3.069  1.00  0.00    -0.276 N 
ATOM     16  H2  UNL     1      51.131   5.730   1.950  1.00  0.00     0.188 HD
HETATM   17  C18 UNL     1      48.525   6.994   3.227  1.00  0.00     0.163 A 
HETATM   18  N5  UNL     1      47.402   6.862   4.098  1.00  0.00    -0.079 NA
BRANCH  15  19
HETATM   19  C2  UNL     1      49.317   4.701   3.749  1.00  0.00     0.146 C 
HETATM   20  C1  UNL     1      50.205   4.658   4.968  1.00  0.00     0.028 C 
ENDBRANCH  15  19
ENDBRANCH   8  11
ENDBRANCH   1   7
BRANCH   6  21
HETATM   21  C12 UNL     1      46.371  12.692   2.830  1.00  0.00     0.223 C 
HETATM   22  O2  UNL     1      47.012  12.688   3.936  1.00  0.00    -0.273 OA
HETATM   23  N4  UNL     1      45.819  13.905   2.352  1.00  0.00    -0.356 N 
ATOM     24  H4  UNL     1      45.305  13.914   1.470  1.00  0.00     0.162 HD
BRANCH  23  25
HETATM   25  C13 UNL     1      45.975  15.110   3.088  1.00  0.00     0.084 C 
HETATM   26  C14 UNL     1      45.533  16.345   2.356  1.00  0.00     0.025 C 
HETATM   27  C15 UNL     1      46.078  17.448   3.271  1.00  0.00     0.002 C 
HETATM   28  C16 UNL     1      47.289  16.853   3.952  1.00  0.00     0.002 C 
HETATM   29  C17 UNL     1      47.432  15.439   3.395  1.00  0.00     0.025 C 
ENDBRANCH  23  25
ENDBRANCH   6  21
TORSDOF 5
ENDMDL
MODEL 5
REMARK VINA RESULT: -7.093958742      2.639      8.139
REMARK  5 active torsions:
REMARK  status: ('A' for Active; 'I' for Inactive)
REMARK    1  A    between atoms: C2_2  and  N1_3 
REMARK    2  A    between atoms: C4_8  and  N3_9 
REMARK       I    between atoms: N3_9  and  C5_11 
REMARK    3  A    between atoms: C5_11  and  C6_13 
REMARK    4  A    between atoms: C11_18  and  C12_19 
REMARK       I    between atoms: C12_19  and  N4_21 
REMARK    5  A    between atoms: N4_21  and  C13_23 
ROOT
HETATM    1  C6  UNL     1      45.853  11.142   1.249  1.00  0.00     0.091 C 
HETATM    2  C7  UNL     1      44.596  11.330   0.511  1.00  0.00     0.015 C 
HETATM    3  C8  UNL     1      44.697  11.575  -0.950  1.00  0.00     0.001 C 
HETATM    4  C9  UNL     1      46.064  11.957  -1.416  1.00  0.00     0.001 C 
HETATM    5  C10 UNL     1      47.000  10.874  -0.980  1.00  0.00     0.015 C 
HETATM    6  C11 UNL     1      47.011  10.604   0.479  1.00  0.00     0.091 C 
ENDROOT
BRANCH   1   7
HETATM    7  C5  UNL     1      46.261  12.435   1.956  1.00  0.00     0.227 C 
HETATM    8  N3  UNL     1      45.365  13.491   2.065  1.00  0.00    -0.321 N 
ATOM      9  H3  UNL     1      44.449  13.330   1.646  1.00  0.00     0.169 HD
HETATM   10  O1  UNL     1      47.409  12.430   2.392  1.00  0.00    -0.273 OA
BRANCH   8  11
HETATM   11  C4  UNL     1      45.531  14.734   2.661  1.00  0.00     0.118 A 
HETATM   12  C3  UNL     1      45.100  15.931   2.072  1.00  0.00     0.148 A 
HETATM   13  N2  UNL     1      45.402  16.947   2.886  1.00  0.00    -0.284 N 
HETATM   14 CL1  UNL     1      44.297  16.069   0.520  1.00  0.00    -0.060 Cl
HETATM   15  N1  UNL     1      45.988  16.461   3.935  1.00  0.00    -0.276 N 
ATOM     16  H2  UNL     1      45.207  17.932   2.711  1.00  0.00     0.188 HD
HETATM   17  C18 UNL     1      46.091  15.113   3.848  1.00  0.00     0.163 A 
HETATM   18  N5  UNL     1      46.704  14.351   4.889  1.00  0.00    -0.079 NA
BRANCH  15  19
HETATM   19  C2  UNL     1      46.472  17.246   5.060  1.00  0.00     0.146 C 
HETATM   20  C1  UNL     1      47.934  17.580   4.908  1.00  0.00     0.028 C 
ENDBRANCH  15  19
ENDBRANCH   8  11
ENDBRANCH   1   7
BRANCH   6  21
HETATM   21  C12 UNL     1      47.135   9.113   0.669  1.00  0.00     0.223 C 
HETATM   22  O2  UNL     1      46.563   8.313  -0.149  1.00  0.00    -0.273 OA
HETATM   23  N4  UNL     1      47.880   8.584   1.750  1.00  0.00    -0.356 N 
ATOM     24  H4  UNL     1      48.337   9.217   2.407  1.00  0.00     0.162 HD
BRANCH  23  25
HETATM   25  C13 UNL     1      47.996   7.180   1.930  1.00  0.00     0.084 C 
HETATM   26  C14 UNL     1      48.195   6.752   3.356  1.00  0.00     0.025 C 
HETATM   27  C15 UNL     1      48.558   5.272   3.178  1.00  0.00     0.002 C 
HETATM   28  C16 UNL     1      49.208   5.172   1.818  1.00  0.00     0.002 C 
HETATM   29  C17 UNL     1      49.233   6.592   1.258  1.00  0.00     0.025 C 
ENDBRANCH  23  25
ENDBRANCH   6  21
TORSDOF 5
ENDMDL
