MODEL 1
REMARK VINA RESULT: -6.934598550      0.000      0.000
REMARK  7 active torsions:
REMARK  status: ('A' for Active; 'I' for Inactive)
REMARK    1  A    between atoms: C2_2  and  C3_3 
REMARK    2  A    between atoms: C5_5  and  C6_6 
REMARK    3  A    between atoms: C9_11  and  N2_12 
REMARK    4  A    between atoms: C10_17  and  N4_18 
REMARK    5  A    between atoms: C13_21  and  C14_22 
REMARK    6  A    between atoms: C14_22  and  C15_23 
REMARK    7  A    between atoms: C15_23  and  O1_24 
ROOT
HETATM    1  C6  UNL     1      46.291  13.733   3.020  1.00  0.00     0.017 A 
HETATM    2  C7  UNL     1      46.966  12.537   3.144  1.00  0.00     0.056 A 
HETATM    3  C8  UNL     1      46.902  11.552   2.192  1.00  0.00     0.068 A 
HETATM    4  N1  UNL     1      47.585  10.405   2.332  1.00  0.00    -0.191 N 
ATOM      5  H1  UNL     1      48.158  10.241   3.160  1.00  0.00     0.184 HD
HETATM    6  C9  UNL     1      47.503   9.477   1.366  1.00  0.00     0.677 A 
HETATM    7  N3  UNL     1      46.772   9.639   0.270  1.00  0.00    -0.176 N 
ATOM      8  H3  UNL     1      46.751   8.896  -0.430  1.00  0.00     0.186 HD
HETATM    9  C10 UNL     1      46.032  10.801   0.052  1.00  0.00     0.135 A 
HETATM   10  C18 UNL     1      46.132  11.723   1.033  1.00  0.00     0.074 A 
HETATM   11  C19 UNL     1      45.477  12.910   0.934  1.00  0.00     0.120 A 
HETATM   12 CL1  UNL     1      44.518  13.360  -0.432  1.00  0.00    -0.063 Cl
HETATM   13  N5  UNL     1      45.561  13.875   1.902  1.00  0.00    -0.349 N 
ATOM     14  H5  UNL     1      45.045  14.743   1.768  1.00  0.00     0.166 HD
ENDROOT
BRANCH   9  15
HETATM   15  N4  UNL     1      45.268  10.777  -1.112  1.00  0.00    -0.366 N 
HETATM   16  C11 UNL     1      43.908  10.287  -1.104  1.00  0.00     0.125 C 
HETATM   17  C12 UNL     1      43.879   8.977  -1.944  1.00  0.00     0.024 C 
HETATM   18  C13 UNL     1      44.217   9.434  -3.339  1.00  0.00    -0.009 C 
HETATM   19  C16 UNL     1      45.639   9.923  -3.351  1.00  0.00     0.024 C 
HETATM   20  C17 UNL     1      45.838  11.114  -2.397  1.00  0.00     0.125 C 
BRANCH  18  21
HETATM   21  C14 UNL     1      44.030   8.368  -4.370  1.00  0.00     0.031 C 
BRANCH  21  22
HETATM   22  C15 UNL     1      42.650   7.803  -4.419  1.00  0.00     0.164 C 
BRANCH  22  23
HETATM   23  O1  UNL     1      42.737   6.439  -4.105  1.00  0.00    -0.401 OA
ATOM     24  H1  UNL     1      41.933   6.025  -4.393  1.00  0.00     0.209 HD
ENDBRANCH  22  23
ENDBRANCH  21  22
ENDBRANCH  18  21
ENDBRANCH   9  15
BRANCH   6  25
HETATM   25  N2  UNL     1      48.167   8.360   1.498  1.00  0.00    -0.234 N 
ATOM     26  H22 UNL     1      47.853   7.701   2.210  1.00  0.00     0.174 HD
ATOM     27  H21 UNL     1      48.969   8.183   0.892  1.00  0.00     0.174 HD
ENDBRANCH   6  25
BRANCH   1  28
HETATM   28  C5  UNL     1      46.339  14.821   4.016  1.00  0.00     0.040 A 
HETATM   29  C3  UNL     1      45.952  16.209   3.690  1.00  0.00    -0.004 A 
HETATM   30  C4  UNL     1      47.387  15.838   4.028  1.00  0.00     0.016 A 
BRANCH  29  31
HETATM   31  C2  UNL     1      45.729  16.737   2.320  1.00  0.00     0.001 C 
HETATM   32  C1  UNL     1      44.287  17.121   2.060  1.00  0.00     0.005 C 
ENDBRANCH  29  31
ENDBRANCH   1  28
TORSDOF 7
ENDMDL
MODEL 2
REMARK VINA RESULT: -6.912345758      2.120      3.778
REMARK  7 active torsions:
REMARK  status: ('A' for Active; 'I' for Inactive)
REMARK    1  A    between atoms: C2_2  and  C3_3 
REMARK    2  A    between atoms: C5_5  and  C6_6 
REMARK    3  A    between atoms: C9_11  and  N2_12 
REMARK    4  A    between atoms: C10_17  and  N4_18 
REMARK    5  A    between atoms: C13_21  and  C14_22 
REMARK    6  A    between atoms: C14_22  and  C15_23 
REMARK    7  A    between atoms: C15_23  and  O1_24 
ROOT
HETATM    1  C6  UNL     1      45.053  15.047   2.544  1.00  0.00     0.017 A 
HETATM    2  C7  UNL     1      44.432  15.594   1.441  1.00  0.00     0.056 A 
HETATM    3  C8  UNL     1      44.290  14.911   0.261  1.00  0.00     0.068 A 
HETATM    4  N1  UNL     1      43.663  15.463  -0.791  1.00  0.00    -0.191 N 
ATOM      5  H1  UNL     1      43.291  16.411  -0.733  1.00  0.00     0.184 HD
HETATM    6  C9  UNL     1      43.536  14.749  -1.919  1.00  0.00     0.677 A 
HETATM    7  N3  UNL     1      44.002  13.513  -2.050  1.00  0.00    -0.176 N 
ATOM      8  H3  UNL     1      43.873  13.022  -2.934  1.00  0.00     0.186 HD
HETATM    9  C10 UNL     1      44.666  12.872  -1.004  1.00  0.00     0.135 A 
HETATM   10  C18 UNL     1      44.781  13.605   0.123  1.00  0.00     0.074 A 
HETATM   11  C19 UNL     1      45.388  13.088   1.224  1.00  0.00     0.120 A 
HETATM   12 CL1  UNL     1      46.015  11.479   1.302  1.00  0.00    -0.063 Cl
HETATM   13  N5  UNL     1      45.514  13.796   2.390  1.00  0.00    -0.349 N 
ATOM     14  H5  UNL     1      45.981  13.351   3.180  1.00  0.00     0.166 HD
ENDROOT
BRANCH   9  15
HETATM   15  N4  UNL     1      45.152  11.608  -1.332  1.00  0.00    -0.366 N 
HETATM   16  C11 UNL     1      46.412  11.447  -2.022  1.00  0.00     0.125 C 
HETATM   17  C12 UNL     1      46.099  10.877  -3.436  1.00  0.00     0.024 C 
HETATM   18  C13 UNL     1      45.526   9.512  -3.158  1.00  0.00    -0.009 C 
HETATM   19  C16 UNL     1      44.205   9.682  -2.459  1.00  0.00     0.024 C 
HETATM   20  C17 UNL     1      44.363  10.416  -1.116  1.00  0.00     0.125 C 
BRANCH  18  21
HETATM   21  C14 UNL     1      45.355   8.682  -4.389  1.00  0.00     0.031 C 
BRANCH  21  22
HETATM   22  C15 UNL     1      43.960   8.202  -4.611  1.00  0.00     0.164 C 
BRANCH  22  23
HETATM   23  O1  UNL     1      44.023   6.830  -4.894  1.00  0.00    -0.401 OA
ATOM     24  H1  UNL     1      43.284   6.413  -4.466  1.00  0.00     0.209 HD
ENDBRANCH  22  23
ENDBRANCH  21  22
ENDBRANCH  18  21
ENDBRANCH   9  15
BRANCH   6  25
HETATM   25  N2  UNL     1      42.926  15.282  -2.945  1.00  0.00    -0.234 N 
ATOM     26  H22 UNL     1      42.594  16.243  -2.855  1.00  0.00     0.174 HD
ATOM     27  H21 UNL     1      42.803  14.729  -3.793  1.00  0.00     0.174 HD
ENDBRANCH   6  25
BRANCH   1  28
HETATM   28  C5  UNL     1      45.219  15.744   3.834  1.00  0.00     0.040 A 
HETATM   29  C3  UNL     1      46.518  16.292   4.276  1.00  0.00    -0.004 A 
HETATM   30  C4  UNL     1      45.858  15.126   4.992  1.00  0.00     0.016 A 
BRANCH  29  31
HETATM   31  C2  UNL     1      47.830  16.000   3.644  1.00  0.00     0.001 C 
HETATM   32  C1  UNL     1      48.996  16.625   4.381  1.00  0.00     0.005 C 
ENDBRANCH  29  31
ENDBRANCH   1  28
TORSDOF 7
ENDMDL
MODEL 3
REMARK VINA RESULT: -6.879228962      3.813      8.366
REMARK  7 active torsions:
REMARK  status: ('A' for Active; 'I' for Inactive)
REMARK    1  A    between atoms: C2_2  and  C3_3 
REMARK    2  A    between atoms: C5_5  and  C6_6 
REMARK    3  A    between atoms: C9_11  and  N2_12 
REMARK    4  A    between atoms: C10_17  and  N4_18 
REMARK    5  A    between atoms: C13_21  and  C14_22 
REMARK    6  A    between atoms: C14_22  and  C15_23 
REMARK    7  A    between atoms: C15_23  and  O1_24 
ROOT
HETATM    1  C6  UNL     1      44.258  11.024  -1.910  1.00  0.00     0.017 A 
HETATM    2  C7  UNL     1      44.161  12.302  -2.419  1.00  0.00     0.056 A 
HETATM    3  C8  UNL     1      44.308  13.419  -1.638  1.00  0.00     0.068 A 
HETATM    4  N1  UNL     1      44.227  14.652  -2.165  1.00  0.00    -0.191 N 
ATOM      5  H1  UNL     1      44.041  14.778  -3.159  1.00  0.00     0.184 HD
HETATM    6  C9  UNL     1      44.392  15.714  -1.362  1.00  0.00     0.677 A 
HETATM    7  N3  UNL     1      44.635  15.606  -0.061  1.00  0.00    -0.176 N 
ATOM      8  H3  UNL     1      44.752  16.453   0.497  1.00  0.00     0.186 HD
HETATM    9  C10 UNL     1      44.732  14.361   0.561  1.00  0.00     0.135 A 
HETATM   10  C18 UNL     1      44.565  13.306  -0.264  1.00  0.00     0.074 A 
HETATM   11  C19 UNL     1      44.657  12.037   0.212  1.00  0.00     0.120 A 
HETATM   12 CL1  UNL     1      45.025  11.659   1.859  1.00  0.00    -0.063 Cl
HETATM   13  N5  UNL     1      44.506  10.940  -0.594  1.00  0.00    -0.349 N 
ATOM     14  H5  UNL     1      44.586  10.014  -0.174  1.00  0.00     0.166 HD
ENDROOT
BRANCH   9  15
HETATM   15  N4  UNL     1      44.918  14.430   1.940  1.00  0.00    -0.366 N 
HETATM   16  C11 UNL     1      43.952  15.084   2.794  1.00  0.00     0.125 C 
HETATM   17  C12 UNL     1      44.634  16.350   3.387  1.00  0.00     0.024 C 
HETATM   18  C13 UNL     1      45.739  15.796   4.248  1.00  0.00    -0.009 C 
HETATM   19  C16 UNL     1      46.754  15.135   3.356  1.00  0.00     0.024 C 
HETATM   20  C17 UNL     1      46.140  13.971   2.560  1.00  0.00     0.125 C 
BRANCH  18  21
HETATM   21  C14 UNL     1      46.398  16.832   5.101  1.00  0.00     0.031 C 
BRANCH  21  22
HETATM   22  C15 UNL     1      47.427  17.642   4.388  1.00  0.00     0.164 C 
BRANCH  22  23
HETATM   23  O1  UNL     1      48.589  17.641   5.175  1.00  0.00    -0.401 OA
ATOM     24  H1  UNL     1      49.288  17.263   4.655  1.00  0.00     0.209 HD
ENDBRANCH  22  23
ENDBRANCH  21  22
ENDBRANCH  18  21
ENDBRANCH   9  15
BRANCH   6  25
HETATM   25  N2  UNL     1      44.315  16.915  -1.871  1.00  0.00    -0.234 N 
ATOM     26  H22 UNL     1      44.119  16.998  -2.868  1.00  0.00     0.174 HD
ATOM     27  H21 UNL     1      44.451  17.723  -1.262  1.00  0.00     0.174 HD
ENDBRANCH   6  25
BRANCH   1  28
HETATM   28  C5  UNL     1      44.115   9.797  -2.717  1.00  0.00     0.040 A 
HETATM   29  C3  UNL     1      42.852   9.437  -3.393  1.00  0.00    -0.004 A 
HETATM   30  C4  UNL     1      43.403   8.614  -2.241  1.00  0.00     0.016 A 
BRANCH  29  31
HETATM   31  C2  UNL     1      41.537  10.084  -3.151  1.00  0.00     0.001 C 
HETATM   32  C1  UNL     1      41.152  11.068  -4.236  1.00  0.00     0.005 C 
ENDBRANCH  29  31
ENDBRANCH   1  28
TORSDOF 7
ENDMDL
MODEL 4
REMARK VINA RESULT: -6.806442994      0.834      1.378
REMARK  7 active torsions:
REMARK  status: ('A' for Active; 'I' for Inactive)
REMARK    1  A    between atoms: C2_2  and  C3_3 
REMARK    2  A    between atoms: C5_5  and  C6_6 
REMARK    3  A    between atoms: C9_11  and  N2_12 
REMARK    4  A    between atoms: C10_17  and  N4_18 
REMARK    5  A    between atoms: C13_21  and  C14_22 
REMARK    6  A    between atoms: C14_22  and  C15_23 
REMARK    7  A    between atoms: C15_23  and  O1_24 
ROOT
HETATM    1  C6  UNL     1      45.663  14.262   2.565  1.00  0.00     0.017 A 
HETATM    2  C7  UNL     1      46.389  13.129   2.863  1.00  0.00     0.056 A 
HETATM    3  C8  UNL     1      46.500  12.075   1.993  1.00  0.00     0.068 A 
HETATM    4  N1  UNL     1      47.230  10.992   2.303  1.00  0.00    -0.191 N 
ATOM      5  H1  UNL     1      47.708  10.929   3.202  1.00  0.00     0.184 HD
HETATM    6  C9  UNL     1      47.321   9.993   1.412  1.00  0.00     0.677 A 
HETATM    7  N3  UNL     1      46.720  10.022   0.229  1.00  0.00    -0.176 N 
ATOM      8  H3  UNL     1      46.828   9.230  -0.406  1.00  0.00     0.186 HD
HETATM    9  C10 UNL     1      45.942  11.111  -0.166  1.00  0.00     0.135 A 
HETATM   10  C18 UNL     1      45.866  12.106   0.742  1.00  0.00     0.074 A 
HETATM   11  C19 UNL     1      45.158  13.234   0.473  1.00  0.00     0.120 A 
HETATM   12 CL1  UNL     1      44.344  13.515  -1.027  1.00  0.00    -0.063 Cl
HETATM   13  N5  UNL     1      45.066  14.271   1.363  1.00  0.00    -0.349 N 
ATOM     14  H5  UNL     1      44.518  15.089   1.100  1.00  0.00     0.166 HD
ENDROOT
BRANCH   9  15
HETATM   15  N4  UNL     1      45.327  10.948  -1.405  1.00  0.00    -0.366 N 
HETATM   16  C11 UNL     1      43.958  10.495  -1.506  1.00  0.00     0.125 C 
HETATM   17  C12 UNL     1      43.980   9.086  -2.165  1.00  0.00     0.024 C 
HETATM   18  C13 UNL     1      44.505   9.343  -3.553  1.00  0.00    -0.009 C 
HETATM   19  C16 UNL     1      45.936   9.793  -3.447  1.00  0.00     0.024 C 
HETATM   20  C17 UNL     1      46.064  11.096  -2.639  1.00  0.00     0.125 C 
BRANCH  18  21
HETATM   21  C14 UNL     1      44.404   8.153  -4.452  1.00  0.00     0.031 C 
BRANCH  21  22
HETATM   22  C15 UNL     1      43.006   7.699  -4.706  1.00  0.00     0.164 C 
BRANCH  22  23
HETATM   23  O1  UNL     1      42.855   6.437  -4.112  1.00  0.00    -0.401 OA
ATOM     24  H1  UNL     1      41.942   6.188  -4.193  1.00  0.00     0.209 HD
ENDBRANCH  22  23
ENDBRANCH  21  22
ENDBRANCH  18  21
ENDBRANCH   9  15
BRANCH   6  25
HETATM   25  N2  UNL     1      48.032   8.937   1.710  1.00  0.00    -0.234 N 
ATOM     26  H22 UNL     1      47.774   8.409   2.543  1.00  0.00     0.174 HD
ATOM     27  H21 UNL     1      48.812   8.676   1.106  1.00  0.00     0.174 HD
ENDBRANCH   6  25
BRANCH   1  28
HETATM   28  C5  UNL     1      45.524  15.421   3.469  1.00  0.00     0.040 A 
HETATM   29  C3  UNL     1      46.686  16.212   3.924  1.00  0.00    -0.004 A 
HETATM   30  C4  UNL     1      45.870  15.366   4.887  1.00  0.00     0.016 A 
BRANCH  29  31
HETATM   31  C2  UNL     1      48.108  15.816   3.764  1.00  0.00     0.001 C 
HETATM   32  C1  UNL     1      49.064  16.720   4.514  1.00  0.00     0.005 C 
ENDBRANCH  29  31
ENDBRANCH   1  28
TORSDOF 7
ENDMDL
MODEL 5
REMARK VINA RESULT: -6.679572229      3.784      8.377
REMARK  7 active torsions:
REMARK  status: ('A' for Active; 'I' for Inactive)
REMARK    1  A    between atoms: C2_2  and  C3_3 
REMARK    2  A    between atoms: C5_5  and  C6_6 
REMARK    3  A    between atoms: C9_11  and  N2_12 
REMARK    4  A    between atoms: C10_17  and  N4_18 
REMARK    5  A    between atoms: C13_21  and  C14_22 
REMARK    6  A    between atoms: C14_22  and  C15_23 
REMARK    7  A    between atoms: C15_23  and  O1_24 
ROOT
HETATM    1  C6  UNL     1      44.361  10.877  -1.851  1.00  0.00     0.017 A 
HETATM    2  C7  UNL     1      44.192  12.133  -2.393  1.00  0.00     0.056 A 
HETATM    3  C8  UNL     1      44.293  13.278  -1.645  1.00  0.00     0.068 A 
HETATM    4  N1  UNL     1      44.142  14.489  -2.204  1.00  0.00    -0.191 N 
ATOM      5  H1  UNL     1      43.936  14.579  -3.199  1.00  0.00     0.184 HD
HETATM    6  C9  UNL     1      44.265  15.581  -1.434  1.00  0.00     0.677 A 
HETATM    7  N3  UNL     1      44.532  15.522  -0.134  1.00  0.00    -0.176 N 
ATOM      8  H3  UNL     1      44.615  16.388   0.398  1.00  0.00     0.186 HD
HETATM    9  C10 UNL     1      44.701  14.301   0.520  1.00  0.00     0.135 A 
HETATM   10  C18 UNL     1      44.576  13.217  -0.273  1.00  0.00     0.074 A 
HETATM   11  C19 UNL     1      44.740  11.967   0.236  1.00  0.00     0.120 A 
HETATM   12 CL1  UNL     1      45.151  11.654   1.886  1.00  0.00    -0.063 Cl
HETATM   13  N5  UNL     1      44.633  10.842  -0.538  1.00  0.00    -0.349 N 
ATOM     14  H5  UNL     1      44.765   9.934  -0.094  1.00  0.00     0.166 HD
ENDROOT
BRANCH   9  15
HETATM   15  N4  UNL     1      44.904  14.418   1.893  1.00  0.00    -0.366 N 
HETATM   16  C11 UNL     1      43.957  15.116   2.733  1.00  0.00     0.125 C 
HETATM   17  C12 UNL     1      44.664  16.394   3.272  1.00  0.00     0.024 C 
HETATM   18  C13 UNL     1      45.771  15.856   4.140  1.00  0.00    -0.009 C 
HETATM   19  C16 UNL     1      46.767  15.149   3.262  1.00  0.00     0.024 C 
HETATM   20  C17 UNL     1      46.127  13.965   2.517  1.00  0.00     0.125 C 
BRANCH  18  21
HETATM   21  C14 UNL     1      46.454  16.913   4.947  1.00  0.00     0.031 C 
BRANCH  21  22
HETATM   22  C15 UNL     1      47.925  16.999   4.716  1.00  0.00     0.164 C 
BRANCH  22  23
HETATM   23  O1  UNL     1      48.371  18.210   5.266  1.00  0.00    -0.401 OA
ATOM     24  H1  UNL     1      49.253  18.362   4.949  1.00  0.00     0.209 HD
ENDBRANCH  22  23
ENDBRANCH  21  22
ENDBRANCH  18  21
ENDBRANCH   9  15
BRANCH   6  25
HETATM   25  N2  UNL     1      44.120  16.762  -1.974  1.00  0.00    -0.234 N 
ATOM     26  H22 UNL     1      44.087  17.569  -1.351  1.00  0.00     0.174 HD
ATOM     27  H21 UNL     1      44.045  16.839  -2.988  1.00  0.00     0.174 HD
ENDBRANCH   6  25
BRANCH   1  28
HETATM   28  C5  UNL     1      44.269   9.621  -2.622  1.00  0.00     0.040 A 
HETATM   29  C3  UNL     1      45.419   9.059  -3.358  1.00  0.00    -0.004 A 
HETATM   30  C4  UNL     1      44.192   9.590  -4.080  1.00  0.00     0.016 A 
BRANCH  29  31
HETATM   31  C2  UNL     1      46.690   9.773  -3.637  1.00  0.00     0.001 C 
HETATM   32  C1  UNL     1      47.754   9.522  -2.589  1.00  0.00     0.005 C 
ENDBRANCH  29  31
ENDBRANCH   1  28
TORSDOF 7
ENDMDL
