MODEL 1
REMARK VINA RESULT: -7.475303706      0.000      0.000
REMARK  6 active torsions:
REMARK  status: ('A' for Active; 'I' for Inactive)
REMARK    1  A    between atoms: N1_1  and  C1_5 
REMARK    2  A    between atoms: C1_5  and  C2_6 
REMARK    3  A    between atoms: C1_5  and  C14_29 
REMARK    4  A    between atoms: C2_6  and  N2_7 
REMARK    5  A    between atoms: C4_12  and  C5_13 
REMARK    6  A    between atoms: C8_18  and  C9_19 
ROOT
HETATM    1  N2  UNL     1      45.473  13.051   0.813  1.00  0.00    -0.203 N 
ATOM      2  H2  UNL     1      45.917  13.100   1.731  1.00  0.00     0.183 HD
HETATM    3  C3  UNL     1      45.875  12.041   0.218  1.00  0.00     0.682 A 
HETATM    4  N3  UNL     1      46.782  11.187   0.791  1.00  0.00    -0.186 N 
ATOM      5  H3  UNL     1      47.127  11.421   1.722  1.00  0.00     0.184 HD
HETATM    6  C4  UNL     1      47.243  10.081   0.225  1.00  0.00     0.116 A 
HETATM    7  C12 UNL     1      46.792   9.743  -1.032  1.00  0.00     0.081 A 
HETATM    8 CL1  UNL     1      47.349   8.305  -1.861  1.00  0.00    -0.080 Cl
HETATM    9  C13 UNL     1      45.892  10.567  -1.629  1.00  0.00     0.132 A 
HETATM   10  N6  UNL     1      45.451  11.688  -1.001  1.00  0.00    -0.200 N 
ATOM     11  H6  UNL     1      44.772  12.283  -1.476  1.00  0.00     0.183 HD
ENDROOT
BRANCH   1  12
HETATM   12  C2  UNL     1      44.627  14.134   0.656  1.00  0.00     0.112 C 
BRANCH  12  13
HETATM   13  C1  UNL     1      44.324  14.855   1.943  1.00  0.00     0.226 C 
BRANCH  13  14
HETATM   14  N1  UNL     1      43.517  16.058   1.693  1.00  0.00    -0.070 N 
ATOM     15  H13 UNL     1      43.972  16.687   1.031  1.00  0.00     0.275 HD
ATOM     16  H12 UNL     1      42.679  15.845   1.152  1.00  0.00     0.275 HD
ATOM     17  H11 UNL     1      43.290  16.533   2.568  1.00  0.00     0.275 HD
ENDBRANCH  13  14
BRANCH  13  18
HETATM   18  C14 UNL     1      45.599  15.373   2.593  1.00  0.00     0.021 C 
HETATM   19  C15 UNL     1      45.226  16.531   3.488  1.00  0.00     0.007 C 
HETATM   20  C16 UNL     1      46.483  17.367   3.648  1.00  0.00     0.000 C 
HETATM   21  C17 UNL     1      47.687  16.469   3.499  1.00  0.00     0.000 C 
HETATM   22  C18 UNL     1      47.499  15.099   4.067  1.00  0.00     0.000 C 
HETATM   23  C19 UNL     1      46.331  14.370   3.407  1.00  0.00     0.007 C 
ENDBRANCH  13  18
ENDBRANCH  12  13
ENDBRANCH   1  12
BRANCH   6  24
HETATM   24  C5  UNL     1      48.208   9.226   0.904  1.00  0.00     0.135 A 
HETATM   25  N4  UNL     1      49.535   9.433   0.661  1.00  0.00    -0.350 N 
HETATM   26  C6  UNL     1      50.443   8.655   1.271  1.00  0.00     0.091 A 
ATOM     27  H4  UNL     1      49.834  10.171   0.024  1.00  0.00     0.166 HD
HETATM   28  C7  UNL     1      50.091   7.656   2.134  1.00  0.00     0.042 A 
HETATM   29  C8  UNL     1      48.727   7.457   2.370  1.00  0.00     0.016 A 
HETATM   30  N5  UNL     1      47.870   8.261   1.737  1.00  0.00    -0.344 N 
ATOM     31  H5  UNL     1      46.875   8.117   1.910  1.00  0.00     0.167 HD
BRANCH  29  32
HETATM   32  C9  UNL     1      48.370   6.364   3.297  1.00  0.00     0.036 A 
HETATM   33  C10 UNL     1      48.075   6.744   4.751  1.00  0.00     0.011 A 
HETATM   34  C11 UNL     1      49.285   5.945   4.403  1.00  0.00     0.011 A 
ENDBRANCH  29  32
ENDBRANCH   6  24
TORSDOF 6
ENDMDL
MODEL 2
REMARK VINA RESULT: -7.468422646      2.092      8.559
REMARK  6 active torsions:
REMARK  status: ('A' for Active; 'I' for Inactive)
REMARK    1  A    between atoms: N1_1  and  C1_5 
REMARK    2  A    between atoms: C1_5  and  C2_6 
REMARK    3  A    between atoms: C1_5  and  C14_29 
REMARK    4  A    between atoms: C2_6  and  N2_7 
REMARK    5  A    between atoms: C4_12  and  C5_13 
REMARK    6  A    between atoms: C8_18  and  C9_19 
ROOT
HETATM    1  N2  UNL     1      48.524   8.061   3.045  1.00  0.00    -0.203 N 
ATOM      2  H2  UNL     1      48.111   8.411   3.910  1.00  0.00     0.183 HD
HETATM    3  C3  UNL     1      48.294   8.863   2.128  1.00  0.00     0.682 A 
HETATM    4  N3  UNL     1      47.579  10.013   2.347  1.00  0.00    -0.186 N 
ATOM      5  H3  UNL     1      47.229  10.179   3.290  1.00  0.00     0.184 HD
HETATM    6  C4  UNL     1      47.310  10.924   1.423  1.00  0.00     0.116 A 
HETATM    7  C12 UNL     1      47.772  10.723   0.140  1.00  0.00     0.081 A 
HETATM    8 CL1  UNL     1      47.461  11.868  -1.147  1.00  0.00    -0.080 Cl
HETATM    9  C13 UNL     1      48.485   9.594  -0.111  1.00  0.00     0.132 A 
HETATM   10  N6  UNL     1      48.734   8.694   0.876  1.00  0.00    -0.200 N 
ATOM     11  H6  UNL     1      49.276   7.859   0.655  1.00  0.00     0.183 HD
ENDROOT
BRANCH   1  12
HETATM   12  C2  UNL     1      49.151   6.854   3.294  1.00  0.00     0.112 C 
BRANCH  12  13
HETATM   13  C1  UNL     1      50.581   6.997   3.743  1.00  0.00     0.226 C 
BRANCH  13  14
HETATM   14  N1  UNL     1      51.446   7.397   2.624  1.00  0.00    -0.070 N 
ATOM     15  H13 UNL     1      51.335   6.777   1.821  1.00  0.00     0.275 HD
ATOM     16  H12 UNL     1      51.128   8.265   2.193  1.00  0.00     0.275 HD
ATOM     17  H11 UNL     1      52.421   7.458   2.920  1.00  0.00     0.275 HD
ENDBRANCH  13  14
BRANCH  13  18
HETATM   18  C14 UNL     1      51.144   5.663   4.210  1.00  0.00     0.021 C 
HETATM   19  C15 UNL     1      52.499   5.921   4.827  1.00  0.00     0.007 C 
HETATM   20  C16 UNL     1      53.261   4.611   4.744  1.00  0.00     0.000 C 
HETATM   21  C17 UNL     1      52.272   3.471   4.763  1.00  0.00     0.000 C 
HETATM   22  C18 UNL     1      51.084   3.709   5.637  1.00  0.00     0.000 C 
HETATM   23  C19 UNL     1      50.305   4.950   5.206  1.00  0.00     0.007 C 
ENDBRANCH  13  18
ENDBRANCH  12  13
ENDBRANCH   1  12
BRANCH   6  24
HETATM   24  C5  UNL     1      46.542  12.121   1.738  1.00  0.00     0.135 A 
HETATM   25  N4  UNL     1      45.348  12.307   1.102  1.00  0.00    -0.350 N 
HETATM   26  C6  UNL     1      44.625  13.405   1.373  1.00  0.00     0.091 A 
ATOM     27  H4  UNL     1      45.010  11.619   0.429  1.00  0.00     0.166 HD
HETATM   28  C7  UNL     1      45.037  14.352   2.268  1.00  0.00     0.042 A 
HETATM   29  C8  UNL     1      46.262  14.146   2.908  1.00  0.00     0.016 A 
HETATM   30  N5  UNL     1      46.938  13.037   2.601  1.00  0.00    -0.344 N 
ATOM     31  H5  UNL     1      47.831  12.885   3.070  1.00  0.00     0.167 HD
BRANCH  29  32
HETATM   32  C9  UNL     1      46.691  15.189   3.863  1.00  0.00     0.036 A 
HETATM   33  C10 UNL     1      47.069  16.556   3.286  1.00  0.00     0.011 A 
HETATM   34  C11 UNL     1      48.103  15.678   3.904  1.00  0.00     0.011 A 
ENDBRANCH  29  32
ENDBRANCH   6  24
TORSDOF 6
ENDMDL
MODEL 3
REMARK VINA RESULT: -7.460217823      0.875      2.159
REMARK  6 active torsions:
REMARK  status: ('A' for Active; 'I' for Inactive)
REMARK    1  A    between atoms: N1_1  and  C1_5 
REMARK    2  A    between atoms: C1_5  and  C2_6 
REMARK    3  A    between atoms: C1_5  and  C14_29 
REMARK    4  A    between atoms: C2_6  and  N2_7 
REMARK    5  A    between atoms: C4_12  and  C5_13 
REMARK    6  A    between atoms: C8_18  and  C9_19 
ROOT
HETATM    1  N2  UNL     1      45.597  12.837   1.043  1.00  0.00    -0.203 N 
ATOM      2  H2  UNL     1      46.047  12.950   1.952  1.00  0.00     0.183 HD
HETATM    3  C3  UNL     1      45.998  11.790   0.514  1.00  0.00     0.682 A 
HETATM    4  N3  UNL     1      46.912  10.980   1.138  1.00  0.00    -0.186 N 
ATOM      5  H3  UNL     1      47.264  11.277   2.048  1.00  0.00     0.184 HD
HETATM    6  C4  UNL     1      47.373   9.839   0.645  1.00  0.00     0.116 A 
HETATM    7  C12 UNL     1      46.913   9.415  -0.583  1.00  0.00     0.081 A 
HETATM    8 CL1  UNL     1      47.469   7.926  -1.317  1.00  0.00    -0.080 Cl
HETATM    9  C13 UNL     1      46.006  10.194  -1.228  1.00  0.00     0.132 A 
HETATM   10  N6  UNL     1      45.566  11.354  -0.674  1.00  0.00    -0.200 N 
ATOM     11  H6  UNL     1      44.881  11.913  -1.183  1.00  0.00     0.183 HD
ENDROOT
BRANCH   1  12
HETATM   12  C2  UNL     1      44.746  13.905   0.819  1.00  0.00     0.112 C 
BRANCH  12  13
HETATM   13  C1  UNL     1      44.414  14.684   2.064  1.00  0.00     0.226 C 
BRANCH  13  14
HETATM   14  N1  UNL     1      43.547  15.828   1.752  1.00  0.00    -0.070 N 
ATOM     15  H13 UNL     1      43.457  15.971   0.747  1.00  0.00     0.275 HD
ATOM     16  H12 UNL     1      42.569  15.630   1.967  1.00  0.00     0.275 HD
ATOM     17  H11 UNL     1      43.873  16.672   2.224  1.00  0.00     0.275 HD
ENDBRANCH  13  14
BRANCH  13  18
HETATM   18  C14 UNL     1      45.665  15.301   2.672  1.00  0.00     0.021 C 
HETATM   19  C15 UNL     1      45.236  16.466   3.533  1.00  0.00     0.007 C 
HETATM   20  C16 UNL     1      46.442  17.383   3.640  1.00  0.00     0.000 C 
HETATM   21  C17 UNL     1      47.696  16.555   3.501  1.00  0.00     0.000 C 
HETATM   22  C18 UNL     1      47.602  15.197   4.120  1.00  0.00     0.000 C 
HETATM   23  C19 UNL     1      46.470  14.375   3.508  1.00  0.00     0.007 C 
ENDBRANCH  13  18
ENDBRANCH  12  13
ENDBRANCH   1  12
BRANCH   6  24
HETATM   24  C5  UNL     1      48.346   9.035   1.372  1.00  0.00     0.135 A 
HETATM   25  N4  UNL     1      47.904   8.278   2.418  1.00  0.00    -0.350 N 
HETATM   26  C6  UNL     1      48.783   7.533   3.106  1.00  0.00     0.091 A 
ATOM     27  H4  UNL     1      46.916   8.278   2.674  1.00  0.00     0.166 HD
HETATM   28  C7  UNL     1      50.114   7.499   2.799  1.00  0.00     0.042 A 
HETATM   29  C8  UNL     1      50.549   8.282   1.726  1.00  0.00     0.016 A 
HETATM   30  N5  UNL     1      49.632   9.002   1.077  1.00  0.00    -0.344 N 
ATOM     31  H5  UNL     1      49.949   9.571   0.293  1.00  0.00     0.167 HD
BRANCH  29  32
HETATM   32  C9  UNL     1      51.995   8.238   1.420  1.00  0.00     0.036 A 
HETATM   33  C10 UNL     1      52.857   9.393   1.937  1.00  0.00     0.011 A 
HETATM   34  C11 UNL     1      52.624   9.210   0.475  1.00  0.00     0.011 A 
ENDBRANCH  29  32
ENDBRANCH   6  24
TORSDOF 6
ENDMDL
MODEL 4
REMARK VINA RESULT: -7.285941481      1.893      8.466
REMARK  6 active torsions:
REMARK  status: ('A' for Active; 'I' for Inactive)
REMARK    1  A    between atoms: N1_1  and  C1_5 
REMARK    2  A    between atoms: C1_5  and  C2_6 
REMARK    3  A    between atoms: C1_5  and  C14_29 
REMARK    4  A    between atoms: C2_6  and  N2_7 
REMARK    5  A    between atoms: C4_12  and  C5_13 
REMARK    6  A    between atoms: C8_18  and  C9_19 
ROOT
HETATM    1  N2  UNL     1      48.830   8.172   2.743  1.00  0.00    -0.203 N 
ATOM      2  H2  UNL     1      48.481   8.515   3.638  1.00  0.00     0.183 HD
HETATM    3  C3  UNL     1      48.478   8.947   1.842  1.00  0.00     0.682 A 
HETATM    4  N3  UNL     1      47.729  10.063   2.113  1.00  0.00    -0.186 N 
ATOM      5  H3  UNL     1      47.458  10.227   3.083  1.00  0.00     0.184 HD
HETATM    6  C4  UNL     1      47.330  10.946   1.207  1.00  0.00     0.116 A 
HETATM    7  C12 UNL     1      47.683  10.747  -0.110  1.00  0.00     0.081 A 
HETATM    8 CL1  UNL     1      47.198  11.855  -1.376  1.00  0.00    -0.080 Cl
HETATM    9  C13 UNL     1      48.426   9.651  -0.413  1.00  0.00     0.132 A 
HETATM   10  N6  UNL     1      48.809   8.780   0.557  1.00  0.00    -0.200 N 
ATOM     11  H6  UNL     1      49.370   7.969   0.296  1.00  0.00     0.183 HD
ENDROOT
BRANCH   1  12
HETATM   12  C2  UNL     1      49.538   7.001   2.947  1.00  0.00     0.112 C 
BRANCH  12  13
HETATM   13  C1  UNL     1      48.849   6.033   3.872  1.00  0.00     0.226 C 
BRANCH  13  14
HETATM   14  N1  UNL     1      48.006   6.743   4.844  1.00  0.00    -0.070 N 
ATOM     15  H13 UNL     1      48.556   7.117   5.617  1.00  0.00     0.275 HD
ATOM     16  H12 UNL     1      47.654   7.622   4.465  1.00  0.00     0.275 HD
ATOM     17  H11 UNL     1      47.249   6.145   5.175  1.00  0.00     0.275 HD
ENDBRANCH  13  14
BRANCH  13  18
HETATM   18  C14 UNL     1      49.860   5.273   4.718  1.00  0.00     0.021 C 
HETATM   19  C15 UNL     1      49.770   3.811   4.348  1.00  0.00     0.007 C 
HETATM   20  C16 UNL     1      50.307   3.036   5.537  1.00  0.00     0.000 C 
HETATM   21  C17 UNL     1      51.306   3.899   6.269  1.00  0.00     0.000 C 
HETATM   22  C18 UNL     1      52.133   4.765   5.375  1.00  0.00     0.000 C 
HETATM   23  C19 UNL     1      51.267   5.712   4.547  1.00  0.00     0.007 C 
ENDBRANCH  13  18
ENDBRANCH  12  13
ENDBRANCH   1  12
BRANCH   6  24
HETATM   24  C5  UNL     1      46.535  12.108   1.578  1.00  0.00     0.135 A 
HETATM   25  N4  UNL     1      45.324  12.281   0.972  1.00  0.00    -0.350 N 
HETATM   26  C6  UNL     1      44.575  13.347   1.295  1.00  0.00     0.091 A 
ATOM     27  H4  UNL     1      44.992  11.606   0.283  1.00  0.00     0.166 HD
HETATM   28  C7  UNL     1      44.977  14.275   2.214  1.00  0.00     0.042 A 
HETATM   29  C8  UNL     1      46.221  14.083   2.823  1.00  0.00     0.016 A 
HETATM   30  N5  UNL     1      46.922  13.005   2.465  1.00  0.00    -0.344 N 
ATOM     31  H5  UNL     1      47.828  12.864   2.911  1.00  0.00     0.167 HD
BRANCH  29  32
HETATM   32  C9  UNL     1      46.639  15.105   3.804  1.00  0.00     0.036 A 
HETATM   33  C10 UNL     1      46.902  16.519   3.277  1.00  0.00     0.011 A 
HETATM   34  C11 UNL     1      48.019  15.679   3.797  1.00  0.00     0.011 A 
ENDBRANCH  29  32
ENDBRANCH   6  24
TORSDOF 6
ENDMDL
MODEL 5
REMARK VINA RESULT: -7.194655921      1.951      3.314
REMARK  6 active torsions:
REMARK  status: ('A' for Active; 'I' for Inactive)
REMARK    1  A    between atoms: N1_1  and  C1_5 
REMARK    2  A    between atoms: C1_5  and  C2_6 
REMARK    3  A    between atoms: C1_5  and  C14_29 
REMARK    4  A    between atoms: C2_6  and  N2_7 
REMARK    5  A    between atoms: C4_12  and  C5_13 
REMARK    6  A    between atoms: C8_18  and  C9_19 
ROOT
HETATM    1  N2  UNL     1      47.203  10.895   1.499  1.00  0.00    -0.203 N 
ATOM      2  H2  UNL     1      46.678  10.555   2.305  1.00  0.00     0.183 HD
HETATM    3  C3  UNL     1      48.117  10.099   1.240  1.00  0.00     0.682 A 
HETATM    4  N3  UNL     1      48.311   8.966   1.988  1.00  0.00    -0.186 N 
ATOM      5  H3  UNL     1      47.683   8.807   2.776  1.00  0.00     0.184 HD
HETATM    6  C4  UNL     1      49.252   8.060   1.761  1.00  0.00     0.116 A 
HETATM    7  C12 UNL     1      50.112   8.251   0.702  1.00  0.00     0.081 A 
HETATM    8 CL1  UNL     1      51.390   7.114   0.329  1.00  0.00    -0.080 Cl
HETATM    9  C13 UNL     1      49.948   9.364  -0.060  1.00  0.00     0.132 A 
HETATM   10  N6  UNL     1      48.963  10.258   0.217  1.00  0.00    -0.200 N 
ATOM     11  H6  UNL     1      48.865  11.081  -0.378  1.00  0.00     0.183 HD
ENDROOT
BRANCH   1  12
HETATM   12  C2  UNL     1      46.653  12.088   1.066  1.00  0.00     0.112 C 
BRANCH  12  13
HETATM   13  C1  UNL     1      45.706  12.711   2.057  1.00  0.00     0.226 C 
BRANCH  13  14
HETATM   14  N1  UNL     1      44.433  13.068   1.414  1.00  0.00    -0.070 N 
ATOM     15  H13 UNL     1      43.916  13.759   1.958  1.00  0.00     0.275 HD
ATOM     16  H12 UNL     1      44.580  13.618   0.567  1.00  0.00     0.275 HD
ATOM     17  H11 UNL     1      43.871  12.236   1.230  1.00  0.00     0.275 HD
ENDBRANCH  13  14
BRANCH  13  18
HETATM   18  C14 UNL     1      46.255  14.028   2.584  1.00  0.00     0.021 C 
HETATM   19  C15 UNL     1      45.104  15.000   2.695  1.00  0.00     0.007 C 
HETATM   20  C16 UNL     1      45.714  16.390   2.645  1.00  0.00     0.000 C 
HETATM   21  C17 UNL     1      47.119  16.324   3.191  1.00  0.00     0.000 C 
HETATM   22  C18 UNL     1      47.290  15.360   4.320  1.00  0.00     0.000 C 
HETATM   23  C19 UNL     1      46.918  13.937   3.910  1.00  0.00     0.007 C 
ENDBRANCH  13  18
ENDBRANCH  12  13
ENDBRANCH   1  12
BRANCH   6  24
HETATM   24  C5  UNL     1      49.391   6.881   2.605  1.00  0.00     0.135 A 
HETATM   25  N4  UNL     1      48.454   5.894   2.493  1.00  0.00    -0.350 N 
HETATM   26  C6  UNL     1      48.559   4.800   3.264  1.00  0.00     0.091 A 
ATOM     27  H4  UNL     1      47.684   5.987   1.831  1.00  0.00     0.166 HD
HETATM   28  C7  UNL     1      49.574   4.631   4.163  1.00  0.00     0.042 A 
HETATM   29  C8  UNL     1      50.523   5.652   4.265  1.00  0.00     0.016 A 
HETATM   30  N5  UNL     1      50.370   6.717   3.474  1.00  0.00    -0.344 N 
ATOM     31  H5  UNL     1      51.064   7.460   3.547  1.00  0.00     0.167 HD
BRANCH  29  32
HETATM   32  C9  UNL     1      51.605   5.452   5.252  1.00  0.00     0.036 A 
HETATM   33  C10 UNL     1      52.920   4.856   4.741  1.00  0.00     0.011 A 
HETATM   34  C11 UNL     1      52.042   4.084   5.666  1.00  0.00     0.011 A 
ENDBRANCH  29  32
ENDBRANCH   6  24
TORSDOF 6
ENDMDL
