MODEL 1
REMARK VINA RESULT: -8.126397224      0.000      0.000
REMARK  7 active torsions:
REMARK  status: ('A' for Active; 'I' for Inactive)
REMARK    1  A    between atoms: C5_5  and  O1_6 
REMARK    2  A    between atoms: O1_6  and  C6_7 
REMARK    3  A    between atoms: C8_9  and  N1_10 
REMARK    4  A    between atoms: N1_10  and  C9_12 
REMARK    5  A    between atoms: C11_15  and  O3_16 
REMARK    6  A    between atoms: C12_18  and  O4_19 
REMARK    7  A    between atoms: C14_23  and  C15_24 
ROOT
HETATM    1  C6  UNL     1      46.998  10.837   2.150  1.00  0.00     0.072 A 
HETATM    2  C7  UNL     1      46.942  12.086   2.715  1.00  0.00     0.069 A 
HETATM    3  C8  UNL     1      46.092  13.076   2.258  1.00  0.00     0.072 A 
HETATM    4  C13 UNL     1      45.275  12.770   1.190  1.00  0.00     0.149 A 
HETATM    5  F1  UNL     1      44.423  13.742   0.725  1.00  0.00    -0.203 F 
HETATM    6  C14 UNL     1      45.288  11.522   0.579  1.00  0.00    -0.010 A 
HETATM    7  C19 UNL     1      46.161  10.583   1.085  1.00  0.00     0.047 A 
ENDROOT
BRANCH   3   8
HETATM    8  N1  UNL     1      46.028  14.353   2.833  1.00  0.00    -0.359 N 
ATOM      9  H1  UNL     1      45.365  15.026   2.450  1.00  0.00     0.162 HD
BRANCH   8  10
HETATM   10  C9  UNL     1      46.862  14.761   3.949  1.00  0.00     0.252 C 
HETATM   11  O2  UNL     1      47.877  15.567   3.509  1.00  0.00    -0.361 OA
HETATM   12  C10 UNL     1      48.120  16.522   4.494  1.00  0.00     0.205 C 
HETATM   13  C11 UNL     1      46.682  16.904   4.870  1.00  0.00     0.175 C 
HETATM   14  C12 UNL     1      46.061  15.525   4.964  1.00  0.00     0.197 C 
BRANCH  13  15
HETATM   15  O3  UNL     1      46.109  17.722   3.935  1.00  0.00    -0.391 OA
ATOM     16  H3  UNL     1      45.252  17.411   3.669  1.00  0.00     0.210 HD
ENDBRANCH  13  15
BRANCH  14  17
HETATM   17  O4  UNL     1      44.722  15.645   4.593  1.00  0.00    -0.389 OA
ATOM     18  H4  UNL     1      44.273  16.318   5.091  1.00  0.00     0.210 HD
ENDBRANCH  14  17
ENDBRANCH   8  10
ENDBRANCH   3   8
BRANCH   1  19
HETATM   19  O1  UNL     1      47.833   9.887   2.608  1.00  0.00    -0.346 OA
BRANCH  19  20
HETATM   20  C5  UNL     1      48.064   8.583   2.243  1.00  0.00     0.129 C 
HETATM   21  C4  UNL     1      47.712   7.553   3.271  1.00  0.00     0.033 C 
HETATM   22  C3  UNL     1      48.624   6.402   3.371  1.00  0.00     0.007 C 
HETATM   23  C2  UNL     1      49.279   5.950   2.109  1.00  0.00    -0.019 C 
HETATM   24  C1  UNL     1      48.496   4.845   1.434  1.00  0.00     0.010 C 
HETATM   25  C21 UNL     1      49.514   7.037   1.102  1.00  0.00     0.007 C 
HETATM   26  C20 UNL     1      49.526   8.386   1.815  1.00  0.00     0.033 C 
ENDBRANCH  19  20
ENDBRANCH   1  19
BRANCH   6  27
HETATM   27  C15 UNL     1      44.378  11.307  -0.549  1.00  0.00     0.022 C 
HETATM   28  C16 UNL     1      44.384   9.974  -1.198  1.00  0.00     0.009 C 
HETATM   29  C17 UNL     1      45.461  10.472  -2.142  1.00  0.00     0.001 C 
HETATM   30  C18 UNL     1      44.989  11.892  -1.821  1.00  0.00     0.009 C 
ENDBRANCH   6  27
TORSDOF 7
ENDMDL
MODEL 2
REMARK VINA RESULT: -8.123609968      2.243      3.253
REMARK  7 active torsions:
REMARK  status: ('A' for Active; 'I' for Inactive)
REMARK    1  A    between atoms: C5_5  and  O1_6 
REMARK    2  A    between atoms: O1_6  and  C6_7 
REMARK    3  A    between atoms: C8_9  and  N1_10 
REMARK    4  A    between atoms: N1_10  and  C9_12 
REMARK    5  A    between atoms: C11_15  and  O3_16 
REMARK    6  A    between atoms: C12_18  and  O4_19 
REMARK    7  A    between atoms: C14_23  and  C15_24 
ROOT
HETATM    1  C6  UNL     1      44.821  12.574   0.304  1.00  0.00     0.072 A 
HETATM    2  C7  UNL     1      44.901  13.273   1.481  1.00  0.00     0.069 A 
HETATM    3  C8  UNL     1      44.681  14.636   1.558  1.00  0.00     0.072 A 
HETATM    4  C13 UNL     1      44.369  15.297   0.389  1.00  0.00     0.149 A 
HETATM    5  F1  UNL     1      44.145  16.650   0.448  1.00  0.00    -0.203 F 
HETATM    6  C14 UNL     1      44.273  14.640  -0.833  1.00  0.00    -0.010 A 
HETATM    7  C19 UNL     1      44.507  13.282  -0.836  1.00  0.00     0.047 A 
ENDROOT
BRANCH   3   8
HETATM    8  N1  UNL     1      44.758  15.355   2.759  1.00  0.00    -0.359 N 
ATOM      9  H1  UNL     1      44.042  16.055   2.954  1.00  0.00     0.162 HD
BRANCH   8  10
HETATM   10  C9  UNL     1      45.809  15.150   3.738  1.00  0.00     0.252 C 
HETATM   11  O2  UNL     1      47.031  15.418   3.182  1.00  0.00    -0.361 OA
HETATM   12  C10 UNL     1      47.832  15.989   4.169  1.00  0.00     0.205 C 
HETATM   13  C11 UNL     1      46.832  16.962   4.809  1.00  0.00     0.175 C 
HETATM   14  C12 UNL     1      45.622  16.057   4.921  1.00  0.00     0.197 C 
BRANCH  13  15
HETATM   15  O3  UNL     1      46.638  18.076   4.039  1.00  0.00    -0.391 OA
ATOM     16  H3  UNL     1      45.811  18.045   3.573  1.00  0.00     0.210 HD
ENDBRANCH  13  15
BRANCH  14  17
HETATM   17  O4  UNL     1      44.489  16.859   4.794  1.00  0.00    -0.389 OA
ATOM     18  H4  UNL     1      44.324  17.372   5.576  1.00  0.00     0.210 HD
ENDBRANCH  14  17
ENDBRANCH   8  10
ENDBRANCH   3   8
BRANCH   1  19
HETATM   19  O1  UNL     1      45.040  11.248   0.250  1.00  0.00    -0.346 OA
BRANCH  19  20
HETATM   20  C5  UNL     1      46.077  10.448   0.665  1.00  0.00     0.129 C 
HETATM   21  C4  UNL     1      47.450  10.998   0.427  1.00  0.00     0.033 C 
HETATM   22  C3  UNL     1      48.475  10.021   0.022  1.00  0.00     0.007 C 
HETATM   23  C2  UNL     1      48.349   8.642   0.578  1.00  0.00    -0.019 C 
HETATM   24  C1  UNL     1      49.161   8.469   1.842  1.00  0.00     0.010 C 
HETATM   25  C21 UNL     1      46.941   8.211   0.866  1.00  0.00     0.007 C 
HETATM   26  C20 UNL     1      45.978   9.052   0.033  1.00  0.00     0.033 C 
ENDBRANCH  19  20
ENDBRANCH   1  19
BRANCH   6  27
HETATM   27  C15 UNL     1      43.935  15.442  -2.011  1.00  0.00     0.022 C 
HETATM   28  C16 UNL     1      42.505  15.751  -2.250  1.00  0.00     0.009 C 
HETATM   29  C17 UNL     1      42.396  14.478  -3.066  1.00  0.00     0.001 C 
HETATM   30  C18 UNL     1      43.913  14.549  -3.251  1.00  0.00     0.009 C 
ENDBRANCH   6  27
TORSDOF 7
ENDMDL
MODEL 3
REMARK VINA RESULT: -8.000785160      3.866      6.562
REMARK  7 active torsions:
REMARK  status: ('A' for Active; 'I' for Inactive)
REMARK    1  A    between atoms: C5_5  and  O1_6 
REMARK    2  A    between atoms: O1_6  and  C6_7 
REMARK    3  A    between atoms: C8_9  and  N1_10 
REMARK    4  A    between atoms: N1_10  and  C9_12 
REMARK    5  A    between atoms: C11_15  and  O3_16 
REMARK    6  A    between atoms: C12_18  and  O4_19 
REMARK    7  A    between atoms: C14_23  and  C15_24 
ROOT
HETATM    1  C6  UNL     1      45.001  13.476   0.753  1.00  0.00     0.072 A 
HETATM    2  C7  UNL     1      44.440  14.294  -0.193  1.00  0.00     0.069 A 
HETATM    3  C8  UNL     1      44.246  15.648   0.008  1.00  0.00     0.072 A 
HETATM    4  C13 UNL     1      44.643  16.174   1.220  1.00  0.00     0.149 A 
HETATM    5  F1  UNL     1      44.459  17.517   1.436  1.00  0.00    -0.203 F 
HETATM    6  C14 UNL     1      45.218  15.393   2.216  1.00  0.00    -0.010 A 
HETATM    7  C19 UNL     1      45.379  14.051   1.947  1.00  0.00     0.047 A 
ENDROOT
BRANCH   3   8
HETATM    8  N1  UNL     1      43.677  16.490  -0.957  1.00  0.00    -0.359 N 
ATOM      9  H1  UNL     1      43.040  17.224  -0.647  1.00  0.00     0.162 HD
BRANCH   8  10
HETATM   10  C9  UNL     1      43.951  16.366  -2.376  1.00  0.00     0.252 C 
HETATM   11  O2  UNL     1      42.798  16.524  -3.096  1.00  0.00    -0.361 OA
HETATM   12  C10 UNL     1      43.122  17.180  -4.282  1.00  0.00     0.205 C 
HETATM   13  C11 UNL     1      44.078  18.256  -3.751  1.00  0.00     0.175 C 
HETATM   14  C12 UNL     1      44.931  17.413  -2.825  1.00  0.00     0.197 C 
BRANCH  13  15
HETATM   15  O3  UNL     1      43.409  19.276  -3.133  1.00  0.00    -0.391 OA
ATOM     16  H3  UNL     1      42.745  19.657  -3.696  1.00  0.00     0.210 HD
ENDBRANCH  13  15
BRANCH  14  17
HETATM   17  O4  UNL     1      45.341  18.233  -1.774  1.00  0.00    -0.389 OA
ATOM     18  H4  UNL     1      45.701  17.733  -1.050  1.00  0.00     0.210 HD
ENDBRANCH  14  17
ENDBRANCH   8  10
ENDBRANCH   3   8
BRANCH   1  19
HETATM   19  O1  UNL     1      45.180  12.160   0.538  1.00  0.00    -0.346 OA
BRANCH  19  20
HETATM   20  C5  UNL     1      44.481  11.221  -0.181  1.00  0.00     0.129 C 
HETATM   21  C4  UNL     1      44.612   9.810   0.301  1.00  0.00     0.033 C 
HETATM   22  C3  UNL     1      44.680   8.774  -0.744  1.00  0.00     0.007 C 
HETATM   23  C2  UNL     1      43.908   9.028  -1.995  1.00  0.00    -0.019 C 
HETATM   24  C1  UNL     1      42.529   8.409  -1.941  1.00  0.00     0.010 C 
HETATM   25  C21 UNL     1      43.755  10.477  -2.352  1.00  0.00     0.007 C 
HETATM   26  C20 UNL     1      44.857  11.281  -1.669  1.00  0.00     0.033 C 
ENDBRANCH  19  20
ENDBRANCH   1  19
BRANCH   6  27
HETATM   27  C15 UNL     1      45.601  16.056   3.464  1.00  0.00     0.022 C 
HETATM   28  C16 UNL     1      46.709  17.040   3.413  1.00  0.00     0.009 C 
HETATM   29  C17 UNL     1      47.683  15.913   3.694  1.00  0.00     0.001 C 
HETATM   30  C18 UNL     1      46.505  15.133   4.280  1.00  0.00     0.009 C 
ENDBRANCH   6  27
TORSDOF 7
ENDMDL
MODEL 4
REMARK VINA RESULT: -7.989597018      4.082      7.578
REMARK  7 active torsions:
REMARK  status: ('A' for Active; 'I' for Inactive)
REMARK    1  A    between atoms: C5_5  and  O1_6 
REMARK    2  A    between atoms: O1_6  and  C6_7 
REMARK    3  A    between atoms: C8_9  and  N1_10 
REMARK    4  A    between atoms: N1_10  and  C9_12 
REMARK    5  A    between atoms: C11_15  and  O3_16 
REMARK    6  A    between atoms: C12_18  and  O4_19 
REMARK    7  A    between atoms: C14_23  and  C15_24 
ROOT
HETATM    1  C6  UNL     1      44.374  16.243  -0.794  1.00  0.00     0.072 A 
HETATM    2  C7  UNL     1      44.358  16.387   0.570  1.00  0.00     0.069 A 
HETATM    3  C8  UNL     1      44.424  15.312   1.436  1.00  0.00     0.072 A 
HETATM    4  C13 UNL     1      44.509  14.052   0.881  1.00  0.00     0.149 A 
HETATM    5  F1  UNL     1      44.577  12.973   1.727  1.00  0.00    -0.203 F 
HETATM    6  C14 UNL     1      44.530  13.846  -0.494  1.00  0.00    -0.010 A 
HETATM    7  C19 UNL     1      44.460  14.963  -1.297  1.00  0.00     0.047 A 
ENDROOT
BRANCH   3   8
HETATM    8  N1  UNL     1      44.412  15.452   2.831  1.00  0.00    -0.359 N 
ATOM      9  H1  UNL     1      43.552  15.767   3.281  1.00  0.00     0.162 HD
BRANCH   8  10
HETATM   10  C9  UNL     1      45.565  15.171   3.664  1.00  0.00     0.252 C 
HETATM   11  O2  UNL     1      46.720  15.408   2.968  1.00  0.00    -0.361 OA
HETATM   12  C10 UNL     1      47.661  15.912   3.863  1.00  0.00     0.205 C 
HETATM   13  C11 UNL     1      46.793  16.902   4.651  1.00  0.00     0.175 C 
HETATM   14  C12 UNL     1      45.567  16.043   4.887  1.00  0.00     0.197 C 
BRANCH  13  15
HETATM   15  O3  UNL     1      46.555  18.048   3.944  1.00  0.00    -0.391 OA
ATOM     16  H3  UNL     1      45.738  18.460   4.200  1.00  0.00     0.210 HD
ENDBRANCH  13  15
BRANCH  14  17
HETATM   17  O4  UNL     1      44.464  16.895   4.926  1.00  0.00    -0.389 OA
ATOM     18  H4  UNL     1      44.334  17.273   5.788  1.00  0.00     0.210 HD
ENDBRANCH  14  17
ENDBRANCH   8  10
ENDBRANCH   3   8
BRANCH   1  19
HETATM   19  O1  UNL     1      44.308  17.303  -1.620  1.00  0.00    -0.346 OA
BRANCH  19  20
HETATM   20  C5  UNL     1      44.518  17.457  -2.970  1.00  0.00     0.129 C 
HETATM   21  C4  UNL     1      45.948  17.409  -3.410  1.00  0.00     0.033 C 
HETATM   22  C3  UNL     1      46.323  18.339  -4.488  1.00  0.00     0.007 C 
HETATM   23  C2  UNL     1      45.278  18.649  -5.505  1.00  0.00    -0.019 C 
HETATM   24  C1  UNL     1      45.378  17.739  -6.710  1.00  0.00     0.010 C 
HETATM   25  C21 UNL     1      43.869  18.588  -4.993  1.00  0.00     0.007 C 
HETATM   26  C20 UNL     1      43.879  18.759  -3.477  1.00  0.00     0.033 C 
ENDBRANCH  19  20
ENDBRANCH   1  19
BRANCH   6  27
HETATM   27  C15 UNL     1      44.622  12.465  -0.973  1.00  0.00     0.022 C 
HETATM   28  C16 UNL     1      45.905  11.748  -0.774  1.00  0.00     0.009 C 
HETATM   29  C17 UNL     1      46.369  12.264  -2.122  1.00  0.00     0.001 C 
HETATM   30  C18 UNL     1      44.894  12.461  -2.477  1.00  0.00     0.009 C 
ENDBRANCH   6  27
TORSDOF 7
ENDMDL
MODEL 5
REMARK VINA RESULT: -7.887632945      3.913      6.144
REMARK  7 active torsions:
REMARK  status: ('A' for Active; 'I' for Inactive)
REMARK    1  A    between atoms: C5_5  and  O1_6 
REMARK    2  A    between atoms: O1_6  and  C6_7 
REMARK    3  A    between atoms: C8_9  and  N1_10 
REMARK    4  A    between atoms: N1_10  and  C9_12 
REMARK    5  A    between atoms: C11_15  and  O3_16 
REMARK    6  A    between atoms: C12_18  and  O4_19 
REMARK    7  A    between atoms: C14_23  and  C15_24 
ROOT
HETATM    1  C6  UNL     1      44.706  13.452   1.067  1.00  0.00     0.072 A 
HETATM    2  C7  UNL     1      44.293  14.175  -0.023  1.00  0.00     0.069 A 
HETATM    3  C8  UNL     1      44.304  15.557  -0.051  1.00  0.00     0.072 A 
HETATM    4  C13 UNL     1      44.754  16.213   1.075  1.00  0.00     0.149 A 
HETATM    5  F1  UNL     1      44.773  17.586   1.064  1.00  0.00    -0.203 F 
HETATM    6  C14 UNL     1      45.186  15.532   2.209  1.00  0.00    -0.010 A 
HETATM    7  C19 UNL     1      45.146  14.155   2.167  1.00  0.00     0.047 A 
ENDROOT
BRANCH   3   8
HETATM    8  N1  UNL     1      43.887  16.302  -1.163  1.00  0.00    -0.359 N 
ATOM      9  H1  UNL     1      43.124  16.969  -1.043  1.00  0.00     0.162 HD
BRANCH   8  10
HETATM   10  C9  UNL     1      44.490  16.169  -2.476  1.00  0.00     0.252 C 
HETATM   11  O2  UNL     1      43.540  15.823  -3.398  1.00  0.00    -0.361 OA
HETATM   12  C10 UNL     1      43.865  16.449  -4.600  1.00  0.00     0.205 C 
HETATM   13  C11 UNL     1      44.248  17.845  -4.091  1.00  0.00     0.175 C 
HETATM   14  C12 UNL     1      45.118  17.462  -2.910  1.00  0.00     0.197 C 
BRANCH  13  15
HETATM   15  O3  UNL     1      43.149  18.591  -3.768  1.00  0.00    -0.391 OA
ATOM     16  H3  UNL     1      43.217  19.482  -4.092  1.00  0.00     0.210 HD
ENDBRANCH  13  15
BRANCH  14  17
HETATM   17  O4  UNL     1      44.977  18.462  -1.949  1.00  0.00    -0.389 OA
ATOM     18  H4  UNL     1      45.762  18.566  -1.423  1.00  0.00     0.210 HD
ENDBRANCH  14  17
ENDBRANCH   8  10
ENDBRANCH   3   8
BRANCH   1  19
HETATM   19  O1  UNL     1      44.687  12.107   1.075  1.00  0.00    -0.346 OA
BRANCH  19  20
HETATM   20  C5  UNL     1      45.440  11.152   0.436  1.00  0.00     0.129 C 
HETATM   21  C4  UNL     1      44.666  10.044  -0.207  1.00  0.00     0.033 C 
HETATM   22  C3  UNL     1      45.265   8.701  -0.118  1.00  0.00     0.007 C 
HETATM   23  C2  UNL     1      46.755   8.626  -0.130  1.00  0.00    -0.019 C 
HETATM   24  C1  UNL     1      47.296   8.410  -1.526  1.00  0.00     0.010 C 
HETATM   25  C21 UNL     1      47.446   9.821   0.457  1.00  0.00     0.007 C 
HETATM   26  C20 UNL     1      46.483  10.550   1.390  1.00  0.00     0.033 C 
ENDBRANCH  19  20
ENDBRANCH   1  19
BRANCH   6  27
HETATM   27  C15 UNL     1      45.643  16.330   3.349  1.00  0.00     0.022 C 
HETATM   28  C16 UNL     1      46.909  17.087   3.199  1.00  0.00     0.009 C 
HETATM   29  C17 UNL     1      47.659  15.878   3.724  1.00  0.00     0.001 C 
HETATM   30  C18 UNL     1      46.344  15.425   4.361  1.00  0.00     0.009 C 
ENDBRANCH   6  27
TORSDOF 7
ENDMDL
