MODEL 1
REMARK VINA RESULT: -5.951072062      0.000      0.000
REMARK  7 active torsions:
REMARK  status: ('A' for Active; 'I' for Inactive)
REMARK    1  A    between atoms: C2_2  and  O1_3 
REMARK    2  A    between atoms: C2_2  and  C3_5 
REMARK    3  A    between atoms: C3_5  and  C4_6 
REMARK    4  A    between atoms: C3_5  and  N2_19 
REMARK    5  A    between atoms: C4_6  and  C5_7 
REMARK    6  A    between atoms: C4_6  and  N1_13 
REMARK    7  A    between atoms: C17_24  and  N4_25 
ROOT
HETATM    1  C3  UNL     1      47.867  10.466  -0.430  1.00  0.00     0.070 C 
ENDROOT
BRANCH   1   2
HETATM    2  C2  UNL     1      48.872  10.828  -1.497  1.00  0.00     0.166 C 
HETATM    3  C1  UNL     1      50.123  11.465  -0.934  1.00  0.00     0.046 C 
BRANCH   2   4
HETATM    4  O1  UNL     1      48.474  11.500  -2.584  1.00  0.00    -0.390 OA
ATOM      5  H1  UNL     1      47.561  11.745  -2.493  1.00  0.00     0.210 HD
ENDBRANCH   2   4
ENDBRANCH   1   2
BRANCH   1   6
HETATM    6  C4  UNL     1      46.592  11.174  -0.443  1.00  0.00     0.039 C 
BRANCH   6   7
HETATM    7  C5  UNL     1      46.266  12.280   0.508  1.00  0.00     0.037 C 
HETATM    8  C6  UNL     1      44.895  12.396   1.016  1.00  0.00     0.011 C 
HETATM    9  C7  UNL     1      44.753  13.826   1.588  1.00  0.00     0.001 C 
HETATM   10  C8  UNL     1      45.847  14.053   2.613  1.00  0.00     0.000 C 
HETATM   11  C9  UNL     1      46.530  12.743   2.952  1.00  0.00     0.001 C 
HETATM   12  C10 UNL     1      47.124  12.045   1.760  1.00  0.00     0.011 C 
ENDBRANCH   6   7
BRANCH   6  13
HETATM   13  N1  UNL     1      45.513  10.440  -0.934  1.00  0.00    -0.352 N 
HETATM   14  C11 UNL     1      44.645   9.748  -0.028  1.00  0.00     0.126 C 
HETATM   15  C12 UNL     1      43.857   8.817  -0.903  1.00  0.00     0.024 C 
HETATM   16  C13 UNL     1      44.305   9.117  -2.303  1.00  0.00     0.061 C 
HETATM   17  C14 UNL     1      44.847  10.574  -2.129  1.00  0.00     0.271 C 
HETATM   18  F1  UNL     1      43.600  11.229  -1.907  1.00  0.00    -0.227 F 
ENDBRANCH   6  13
ENDBRANCH   1   6
BRANCH   1  19
HETATM   19  N2  UNL     1      47.923   9.035  -0.236  1.00  0.00    -0.291 N 
HETATM   20  C15 UNL     1      47.997   8.123  -1.221  1.00  0.00     0.191 A 
HETATM   21  N3  UNL     1      48.065   6.895  -0.704  1.00  0.00    -0.346 N 
HETATM   22  C16 UNL     1      48.038   6.958   0.636  1.00  0.00     0.122 A 
ATOM     23  H3  UNL     1      48.127   6.034  -1.248  1.00  0.00     0.167 HD
HETATM   24  C17 UNL     1      48.084   5.989   1.618  1.00  0.00     0.131 A 
HETATM   25  C19 UNL     1      47.947   8.323   0.916  1.00  0.00     0.145 A 
HETATM   26  N5  UNL     1      48.039   6.415   2.887  1.00  0.00    -0.337 N 
HETATM   27  C18 UNL     1      47.952   7.721   3.188  1.00  0.00     0.183 A 
ATOM     28  H5  UNL     1      48.071   5.731   3.643  1.00  0.00     0.168 HD
HETATM   29  N6  UNL     1      47.909   8.626   2.216  1.00  0.00    -0.336 N 
ATOM     30  H6  UNL     1      47.843   9.610   2.478  1.00  0.00     0.168 HD
BRANCH  24  31
HETATM   31  N4  UNL     1      48.167   4.724   1.303  1.00  0.00    -0.383 N 
ATOM     32  H42 UNL     1      48.899   4.355   0.697  1.00  0.00     0.157 HD
ATOM     33  H41 UNL     1      47.488   4.053   1.663  1.00  0.00     0.157 HD
ENDBRANCH  24  31
ENDBRANCH   1  19
TORSDOF 7
ENDMDL
MODEL 2
REMARK VINA RESULT: -5.725152782      1.947      3.892
REMARK  7 active torsions:
REMARK  status: ('A' for Active; 'I' for Inactive)
REMARK    1  A    between atoms: C2_2  and  O1_3 
REMARK    2  A    between atoms: C2_2  and  C3_5 
REMARK    3  A    between atoms: C3_5  and  C4_6 
REMARK    4  A    between atoms: C3_5  and  N2_19 
REMARK    5  A    between atoms: C4_6  and  C5_7 
REMARK    6  A    between atoms: C4_6  and  N1_13 
REMARK    7  A    between atoms: C17_24  and  N4_25 
ROOT
HETATM    1  C3  UNL     1      48.113   9.094  -0.671  1.00  0.00     0.070 C 
ENDROOT
BRANCH   1   2
HETATM    2  C2  UNL     1      47.312   8.266  -1.646  1.00  0.00     0.166 C 
HETATM    3  C1  UNL     1      48.056   7.991  -2.933  1.00  0.00     0.046 C 
BRANCH   2   4
HETATM    4  O1  UNL     1      46.046   8.604  -1.921  1.00  0.00    -0.390 OA
ATOM      5  H1  UNL     1      45.724   9.206  -1.261  1.00  0.00     0.210 HD
ENDBRANCH   2   4
ENDBRANCH   1   2
BRANCH   1   6
HETATM    6  C4  UNL     1      47.932  10.540  -0.712  1.00  0.00     0.039 C 
BRANCH   6   7
HETATM    7  C5  UNL     1      49.036  11.490  -1.048  1.00  0.00     0.037 C 
HETATM    8  C6  UNL     1      50.401  10.969  -1.184  1.00  0.00     0.011 C 
HETATM    9  C7  UNL     1      51.351  12.187  -1.087  1.00  0.00     0.001 C 
HETATM   10  C8  UNL     1      50.939  13.211  -2.128  1.00  0.00     0.000 C 
HETATM   11  C9  UNL     1      49.942  12.606  -3.096  1.00  0.00     0.001 C 
HETATM   12  C10 UNL     1      48.704  12.070  -2.431  1.00  0.00     0.011 C 
ENDBRANCH   6   7
BRANCH   6  13
HETATM   13  N1  UNL     1      46.919  11.033   0.111  1.00  0.00    -0.352 N 
HETATM   14  C11 UNL     1      47.241  11.576   1.398  1.00  0.00     0.126 C 
HETATM   15  C12 UNL     1      45.921  11.664   2.107  1.00  0.00     0.024 C 
HETATM   16  C13 UNL     1      44.902  11.216   1.101  1.00  0.00     0.061 C 
HETATM   17  C14 UNL     1      45.670  11.491  -0.234  1.00  0.00     0.271 C 
HETATM   18  F1  UNL     1      45.657  12.916  -0.185  1.00  0.00    -0.227 F 
ENDBRANCH   6  13
ENDBRANCH   1   6
BRANCH   1  19
HETATM   19  N2  UNL     1      48.150   8.383   0.587  1.00  0.00    -0.291 N 
HETATM   20  C15 UNL     1      47.081   7.855   1.210  1.00  0.00     0.191 A 
HETATM   21  N3  UNL     1      47.461   7.240   2.331  1.00  0.00    -0.346 N 
HETATM   22  C16 UNL     1      48.790   7.343   2.484  1.00  0.00     0.122 A 
ATOM     23  H3  UNL     1      46.833   6.762   2.978  1.00  0.00     0.167 HD
HETATM   24  C17 UNL     1      49.657   6.885   3.456  1.00  0.00     0.131 A 
HETATM   25  C19 UNL     1      49.211   8.071   1.370  1.00  0.00     0.145 A 
HETATM   26  N5  UNL     1      50.954   7.171   3.289  1.00  0.00    -0.337 N 
HETATM   27  C18 UNL     1      51.390   7.869   2.227  1.00  0.00     0.183 A 
ATOM     28  H5  UNL     1      51.628   6.851   3.985  1.00  0.00     0.168 HD
HETATM   29  N6  UNL     1      50.527   8.294   1.311  1.00  0.00    -0.336 N 
ATOM     30  H6  UNL     1      50.889   8.822   0.517  1.00  0.00     0.168 HD
BRANCH  24  31
HETATM   31  N4  UNL     1      49.211   6.209   4.481  1.00  0.00    -0.383 N 
ATOM     32  H42 UNL     1      48.287   5.778   4.496  1.00  0.00     0.157 HD
ATOM     33  H41 UNL     1      49.787   6.088   5.314  1.00  0.00     0.157 HD
ENDBRANCH  24  31
ENDBRANCH   1  19
TORSDOF 7
ENDMDL
MODEL 3
REMARK VINA RESULT: -5.707253793      2.516      5.876
REMARK  7 active torsions:
REMARK  status: ('A' for Active; 'I' for Inactive)
REMARK    1  A    between atoms: C2_2  and  O1_3 
REMARK    2  A    between atoms: C2_2  and  C3_5 
REMARK    3  A    between atoms: C3_5  and  C4_6 
REMARK    4  A    between atoms: C3_5  and  N2_19 
REMARK    5  A    between atoms: C4_6  and  C5_7 
REMARK    6  A    between atoms: C4_6  and  N1_13 
REMARK    7  A    between atoms: C17_24  and  N4_25 
ROOT
HETATM    1  C3  UNL     1      45.972   9.882  -0.157  1.00  0.00     0.070 C 
ENDROOT
BRANCH   1   2
HETATM    2  C2  UNL     1      44.930   9.344  -1.106  1.00  0.00     0.166 C 
HETATM    3  C1  UNL     1      43.793   8.643  -0.395  1.00  0.00     0.046 C 
BRANCH   2   4
HETATM    4  O1  UNL     1      45.308   8.623  -2.169  1.00  0.00    -0.390 OA
ATOM      5  H1  UNL     1      45.576   9.204  -2.871  1.00  0.00     0.210 HD
ENDBRANCH   2   4
ENDBRANCH   1   2
BRANCH   1   6
HETATM    6  C4  UNL     1      47.357   9.484  -0.385  1.00  0.00     0.039 C 
BRANCH   6   7
HETATM    7  C5  UNL     1      48.115   8.600   0.551  1.00  0.00     0.037 C 
HETATM    8  C6  UNL     1      47.573   8.360   1.893  1.00  0.00     0.011 C 
HETATM    9  C7  UNL     1      48.738   7.809   2.750  1.00  0.00     0.001 C 
HETATM   10  C8  UNL     1      49.320   6.592   2.057  1.00  0.00     0.000 C 
HETATM   11  C9  UNL     1      48.412   6.144   0.929  1.00  0.00     0.001 C 
HETATM   12  C10 UNL     1      48.159   7.210  -0.102  1.00  0.00     0.011 C 
ENDBRANCH   6   7
BRANCH   6  13
HETATM   13  N1  UNL     1      48.113  10.379  -1.142  1.00  0.00    -0.352 N 
HETATM   14  C11 UNL     1      49.387  10.826  -0.661  1.00  0.00     0.126 C 
HETATM   15  C12 UNL     1      49.720  12.005  -1.527  1.00  0.00     0.024 C 
HETATM   16  C13 UNL     1      48.600  12.094  -2.521  1.00  0.00     0.061 C 
HETATM   17  C14 UNL     1      48.068  10.623  -2.494  1.00  0.00     0.271 C 
HETATM   18  F1  UNL     1      49.180   9.994  -3.126  1.00  0.00    -0.227 F 
ENDBRANCH   6  13
ENDBRANCH   1   6
BRANCH   1  19
HETATM   19  N2  UNL     1      45.632  11.254   0.143  1.00  0.00    -0.291 N 
HETATM   20  C15 UNL     1      44.866  12.048  -0.627  1.00  0.00     0.191 A 
HETATM   21  N3  UNL     1      44.720  13.242  -0.051  1.00  0.00    -0.346 N 
HETATM   22  C16 UNL     1      45.383  13.275   1.115  1.00  0.00     0.122 A 
ATOM     23  H3  UNL     1      44.182  14.017  -0.440  1.00  0.00     0.167 HD
HETATM   24  C17 UNL     1      45.541  14.256   2.073  1.00  0.00     0.131 A 
HETATM   25  C19 UNL     1      45.956  12.006   1.222  1.00  0.00     0.145 A 
HETATM   26  N5  UNL     1      46.285  13.941   3.141  1.00  0.00    -0.337 N 
HETATM   27  C18 UNL     1      46.849  12.729   3.273  1.00  0.00     0.183 A 
ATOM     28  H5  UNL     1      46.426  14.638   3.872  1.00  0.00     0.168 HD
HETATM   29  N6  UNL     1      46.675  11.809   2.330  1.00  0.00    -0.336 N 
ATOM     30  H6  UNL     1      47.117  10.899   2.460  1.00  0.00     0.168 HD
BRANCH  24  31
HETATM   31  N4  UNL     1      44.985  15.429   1.924  1.00  0.00    -0.383 N 
ATOM     32  H42 UNL     1      44.816  15.844   1.008  1.00  0.00     0.157 HD
ATOM     33  H41 UNL     1      44.695  15.974   2.735  1.00  0.00     0.157 HD
ENDBRANCH  24  31
ENDBRANCH   1  19
TORSDOF 7
ENDMDL
MODEL 4
REMARK VINA RESULT: -5.636361195      2.834      6.093
REMARK  7 active torsions:
REMARK  status: ('A' for Active; 'I' for Inactive)
REMARK    1  A    between atoms: C2_2  and  O1_3 
REMARK    2  A    between atoms: C2_2  and  C3_5 
REMARK    3  A    between atoms: C3_5  and  C4_6 
REMARK    4  A    between atoms: C3_5  and  N2_19 
REMARK    5  A    between atoms: C4_6  and  C5_7 
REMARK    6  A    between atoms: C4_6  and  N1_13 
REMARK    7  A    between atoms: C17_24  and  N4_25 
ROOT
HETATM    1  C3  UNL     1      45.520  10.276  -1.006  1.00  0.00     0.070 C 
ENDROOT
BRANCH   1   2
HETATM    2  C2  UNL     1      44.606   9.445  -1.873  1.00  0.00     0.166 C 
HETATM    3  C1  UNL     1      43.563   8.694  -1.076  1.00  0.00     0.046 C 
BRANCH   2   4
HETATM    4  O1  UNL     1      45.128   8.638  -2.805  1.00  0.00    -0.390 OA
ATOM      5  H1  UNL     1      45.507   9.158  -3.504  1.00  0.00     0.210 HD
ENDBRANCH   2   4
ENDBRANCH   1   2
BRANCH   1   6
HETATM    6  C4  UNL     1      46.945   9.971  -1.048  1.00  0.00     0.039 C 
BRANCH   6   7
HETATM    7  C5  UNL     1      47.669   9.305   0.077  1.00  0.00     0.037 C 
HETATM    8  C6  UNL     1      47.063   9.313   1.413  1.00  0.00     0.011 C 
HETATM    9  C7  UNL     1      48.192   8.969   2.413  1.00  0.00     0.001 C 
HETATM   10  C8  UNL     1      48.829   7.657   1.997  1.00  0.00     0.000 C 
HETATM   11  C9  UNL     1      47.989   6.977   0.935  1.00  0.00     0.001 C 
HETATM   12  C10 UNL     1      47.771   7.817  -0.293  1.00  0.00     0.011 C 
ENDBRANCH   6   7
BRANCH   6  13
HETATM   13  N1  UNL     1      47.705  10.808  -1.865  1.00  0.00    -0.352 N 
HETATM   14  C11 UNL     1      48.900  11.415  -1.356  1.00  0.00     0.126 C 
HETATM   15  C12 UNL     1      49.231  12.484  -2.356  1.00  0.00     0.024 C 
HETATM   16  C13 UNL     1      48.199  12.347  -3.437  1.00  0.00     0.061 C 
HETATM   17  C14 UNL     1      47.765  10.858  -3.237  1.00  0.00     0.271 C 
HETATM   18  F1  UNL     1      48.967  10.235  -3.683  1.00  0.00    -0.227 F 
ENDBRANCH   6  13
ENDBRANCH   1   6
BRANCH   1  19
HETATM   19  N2  UNL     1      45.048  11.642  -1.048  1.00  0.00    -0.291 N 
HETATM   20  C15 UNL     1      44.458  12.224  -2.107  1.00  0.00     0.191 A 
HETATM   21  N3  UNL     1      44.115  13.479  -1.808  1.00  0.00    -0.346 N 
HETATM   22  C16 UNL     1      44.468  13.763  -0.545  1.00  0.00     0.122 A 
ATOM     23  H3  UNL     1      43.653  14.127  -2.446  1.00  0.00     0.167 HD
HETATM   24  C17 UNL     1      44.336  14.898   0.229  1.00  0.00     0.131 A 
HETATM   25  C19 UNL     1      45.059  12.587  -0.078  1.00  0.00     0.145 A 
HETATM   26  N5  UNL     1      44.808  14.833   1.481  1.00  0.00    -0.337 N 
HETATM   27  C18 UNL     1      45.381  13.716   1.959  1.00  0.00     0.183 A 
ATOM     28  H5  UNL     1      44.730  15.650   2.085  1.00  0.00     0.168 HD
HETATM   29  N6  UNL     1      45.492  12.641   1.185  1.00  0.00    -0.336 N 
ATOM     30  H6  UNL     1      45.932  11.809   1.577  1.00  0.00     0.168 HD
BRANCH  24  31
HETATM   31  N4  UNL     1      43.777  15.975  -0.256  1.00  0.00    -0.383 N 
ATOM     32  H42 UNL     1      43.980  16.908   0.101  1.00  0.00     0.157 HD
ATOM     33  H41 UNL     1      43.109  15.913  -1.025  1.00  0.00     0.157 HD
ENDBRANCH  24  31
ENDBRANCH   1  19
TORSDOF 7
ENDMDL
MODEL 5
REMARK VINA RESULT: -5.626571159      2.415      5.105
REMARK  7 active torsions:
REMARK  status: ('A' for Active; 'I' for Inactive)
REMARK    1  A    between atoms: C2_2  and  O1_3 
REMARK    2  A    between atoms: C2_2  and  C3_5 
REMARK    3  A    between atoms: C3_5  and  C4_6 
REMARK    4  A    between atoms: C3_5  and  N2_19 
REMARK    5  A    between atoms: C4_6  and  C5_7 
REMARK    6  A    between atoms: C4_6  and  N1_13 
REMARK    7  A    between atoms: C17_24  and  N4_25 
ROOT
HETATM    1  C3  UNL     1      46.115  10.464  -1.532  1.00  0.00     0.070 C 
ENDROOT
BRANCH   1   2
HETATM    2  C2  UNL     1      47.153  11.149  -2.387  1.00  0.00     0.166 C 
HETATM    3  C1  UNL     1      47.911  10.186  -3.274  1.00  0.00     0.046 C 
BRANCH   2   4
HETATM    4  O1  UNL     1      48.008  12.015  -1.829  1.00  0.00    -0.390 OA
ATOM      5  H1  UNL     1      47.771  12.902  -2.075  1.00  0.00     0.210 HD
ENDBRANCH   2   4
ENDBRANCH   1   2
BRANCH   1   6
HETATM    6  C4  UNL     1      46.271  10.557  -0.085  1.00  0.00     0.039 C 
BRANCH   6   7
HETATM    7  C5  UNL     1      46.095  11.832   0.673  1.00  0.00     0.037 C 
HETATM    8  C6  UNL     1      44.773  12.155   1.221  1.00  0.00     0.011 C 
HETATM    9  C7  UNL     1      44.783  13.668   1.541  1.00  0.00     0.001 C 
HETATM   10  C8  UNL     1      45.955  13.966   2.456  1.00  0.00     0.000 C 
HETATM   11  C9  UNL     1      46.552  12.677   2.984  1.00  0.00     0.001 C 
HETATM   12  C10 UNL     1      47.011  11.737   1.903  1.00  0.00     0.011 C 
ENDBRANCH   6   7
BRANCH   6  13
HETATM   13  N1  UNL     1      47.130   9.614   0.479  1.00  0.00    -0.352 N 
HETATM   14  C11 UNL     1      46.640   8.310   0.817  1.00  0.00     0.126 C 
HETATM   15  C12 UNL     1      47.709   7.726   1.694  1.00  0.00     0.024 C 
HETATM   16  C13 UNL     1      48.799   8.756   1.727  1.00  0.00     0.061 C 
HETATM   17  C14 UNL     1      48.501   9.539   0.406  1.00  0.00     0.271 C 
HETATM   18  F1  UNL     1      48.872   8.521  -0.521  1.00  0.00    -0.227 F 
ENDBRANCH   6  13
ENDBRANCH   1   6
BRANCH   1  19
HETATM   19  N2  UNL     1      44.826  10.662  -2.157  1.00  0.00    -0.291 N 
HETATM   20  C15 UNL     1      44.439  11.781  -2.795  1.00  0.00     0.191 A 
HETATM   21  N3  UNL     1      43.207  11.627  -3.283  1.00  0.00    -0.346 N 
HETATM   22  C16 UNL     1      42.744  10.403  -2.984  1.00  0.00     0.122 A 
ATOM     23  H3  UNL     1      42.693  12.335  -3.807  1.00  0.00     0.167 HD
HETATM   24  C17 UNL     1      41.552   9.763  -3.258  1.00  0.00     0.131 A 
HETATM   25  C19 UNL     1      43.783   9.805  -2.270  1.00  0.00     0.145 A 
HETATM   26  N5  UNL     1      41.421   8.511  -2.801  1.00  0.00    -0.337 N 
HETATM   27  C18 UNL     1      42.404   7.909  -2.110  1.00  0.00     0.183 A 
ATOM     28  H5  UNL     1      40.556   8.003  -2.982  1.00  0.00     0.168 HD
HETATM   29  N6  UNL     1      43.538   8.556  -1.865  1.00  0.00    -0.336 N 
ATOM     30  H6  UNL     1      44.264   8.071  -1.339  1.00  0.00     0.168 HD
BRANCH  24  31
HETATM   31  N4  UNL     1      40.609  10.369  -3.930  1.00  0.00    -0.383 N 
ATOM     32  H42 UNL     1      39.743  10.688  -3.495  1.00  0.00     0.157 HD
ATOM     33  H41 UNL     1      40.714  10.546  -4.929  1.00  0.00     0.157 HD
ENDBRANCH  24  31
ENDBRANCH   1  19
TORSDOF 7
ENDMDL
