MODEL 1
REMARK VINA RESULT: -6.412336283      0.000      0.000
REMARK  7 active torsions:
REMARK  status: ('A' for Active; 'I' for Inactive)
REMARK    1  A    between atoms: N2_6  and  C4_8 
REMARK    2  A    between atoms: C10_16  and  O2_17 
REMARK    3  A    between atoms: C11_19  and  C12_20 
REMARK    4  A    between atoms: C12_20  and  O3_21 
REMARK    5  A    between atoms: C12_20  and  N3_23 
REMARK    6  A    between atoms: N3_23  and  C13_24 
REMARK    7  A    between atoms: N3_23  and  C16_27 
ROOT
HETATM    1  C1  UNL     1      44.107  15.326  -0.075  1.00  0.00     0.069 C 
HETATM    2  C2  UNL     1      44.834  14.230   0.531  1.00  0.00     0.020 A 
HETATM    3  N1  UNL     1      45.357  14.430   1.771  1.00  0.00    -0.344 N 
ATOM      4  H1  UNL     1      45.207  15.334   2.221  1.00  0.00     0.167 HD
HETATM    5  C3  UNL     1      46.049  13.512   2.424  1.00  0.00     0.126 A 
HETATM    6  N2  UNL     1      46.563  13.669   3.594  1.00  0.00    -0.370 N 
ATOM      7  H2  UNL     1      47.071  12.866   3.964  1.00  0.00     0.161 HD
HETATM    8  C9  UNL     1      46.247  12.297   1.809  1.00  0.00     0.111 A 
HETATM    9 CL1  UNL     1      47.137  10.997   2.551  1.00  0.00    -0.077 Cl
HETATM   10  C10 UNL     1      45.720  12.066   0.530  1.00  0.00     0.103 A 
HETATM   11  C11 UNL     1      44.995  13.026  -0.148  1.00  0.00     0.047 A 
ENDROOT
BRANCH  11  12
HETATM   12  C12 UNL     1      44.421  12.896  -1.490  1.00  0.00     0.255 C 
BRANCH  12  13
HETATM   13  O3  UNL     1      44.063  11.563  -1.765  1.00  0.00    -0.372 OA
ATOM     14  H3  UNL     1      43.222  11.346  -1.383  1.00  0.00     0.212 HD
ENDBRANCH  12  13
BRANCH  12  15
HETATM   15  N3  UNL     1      45.310  13.301  -2.548  1.00  0.00    -0.377 N 
BRANCH  15  16
HETATM   16  C13 UNL     1      46.130  12.265  -3.064  1.00  0.00     0.074 C 
HETATM   17  C14 UNL     1      47.587  12.337  -2.783  1.00  0.00     0.031 C 
HETATM   18  C15 UNL     1      45.963  11.993  -4.553  1.00  0.00     0.031 C 
ENDBRANCH  15  16
BRANCH  15  19
HETATM   19  C16 UNL     1      44.827  14.199  -3.517  1.00  0.00     0.074 C 
HETATM   20  C17 UNL     1      45.439  15.579  -3.467  1.00  0.00     0.031 C 
HETATM   21  C18 UNL     1      43.331  14.361  -3.369  1.00  0.00     0.031 C 
ENDBRANCH  15  19
ENDBRANCH  12  15
ENDBRANCH  11  12
BRANCH  10  22
HETATM   22  O2  UNL     1      45.932  10.838  -0.087  1.00  0.00    -0.358 OA
ATOM     23  H2  UNL     1      45.193  10.358  -0.442  1.00  0.00     0.217 HD
ENDBRANCH  10  22
BRANCH   6  24
HETATM   24  C4  UNL     1      46.517  14.807   4.436  1.00  0.00     0.087 C 
HETATM   25  C5  UNL     1      45.220  15.540   4.466  1.00  0.00     0.051 C 
HETATM   26  C6  UNL     1      45.392  17.015   4.085  1.00  0.00     0.169 C 
HETATM   27  O1  UNL     1      46.327  17.521   4.986  1.00  0.00    -0.391 OA
HETATM   28  C7  UNL     1      47.575  17.094   4.609  1.00  0.00     0.169 C 
HETATM   29  C8  UNL     1      47.637  15.743   3.993  1.00  0.00     0.051 C 
ENDBRANCH   6  24
TORSDOF 7
ENDMDL
MODEL 2
REMARK VINA RESULT: -6.188739680      1.472      2.483
REMARK  7 active torsions:
REMARK  status: ('A' for Active; 'I' for Inactive)
REMARK    1  A    between atoms: N2_6  and  C4_8 
REMARK    2  A    between atoms: C10_16  and  O2_17 
REMARK    3  A    between atoms: C11_19  and  C12_20 
REMARK    4  A    between atoms: C12_20  and  O3_21 
REMARK    5  A    between atoms: C12_20  and  N3_23 
REMARK    6  A    between atoms: N3_23  and  C13_24 
REMARK    7  A    between atoms: N3_23  and  C16_27 
ROOT
HETATM    1  C1  UNL     1      43.989  13.668  -1.414  1.00  0.00     0.069 C 
HETATM    2  C2  UNL     1      44.711  13.006  -0.347  1.00  0.00     0.020 A 
HETATM    3  N1  UNL     1      45.147  13.773   0.689  1.00  0.00    -0.344 N 
ATOM      4  H1  UNL     1      44.940  14.772   0.673  1.00  0.00     0.167 HD
HETATM    5  C3  UNL     1      45.824  13.288   1.715  1.00  0.00     0.126 A 
HETATM    6  N2  UNL     1      46.257  13.984   2.708  1.00  0.00    -0.370 N 
ATOM      7  H2  UNL     1      46.766  13.464   3.423  1.00  0.00     0.161 HD
HETATM    8  C9  UNL     1      46.099  11.940   1.727  1.00  0.00     0.111 A 
HETATM    9 CL1  UNL     1      46.981  11.166   3.014  1.00  0.00    -0.077 Cl
HETATM   10  C10 UNL     1      45.662  11.128   0.669  1.00  0.00     0.103 A 
HETATM   11  C11 UNL     1      44.952  11.636  -0.400  1.00  0.00     0.047 A 
ENDROOT
BRANCH  11  12
HETATM   12  C12 UNL     1      44.470  10.884  -1.560  1.00  0.00     0.255 C 
BRANCH  12  13
HETATM   13  O3  UNL     1      43.981   9.620  -1.182  1.00  0.00    -0.372 OA
ATOM     14  H3  UNL     1      43.609   9.158  -1.923  1.00  0.00     0.212 HD
ENDBRANCH  12  13
BRANCH  12  15
HETATM   15  N3  UNL     1      45.477  10.643  -2.561  1.00  0.00    -0.377 N 
BRANCH  15  16
HETATM   16  C13 UNL     1      44.989  10.587  -3.892  1.00  0.00     0.074 C 
HETATM   17  C14 UNL     1      43.651  11.174  -4.159  1.00  0.00     0.031 C 
HETATM   18  C15 UNL     1      45.020   9.205  -4.532  1.00  0.00     0.031 C 
ENDBRANCH  15  16
BRANCH  15  19
HETATM   19  C16 UNL     1      46.721  11.284  -2.423  1.00  0.00     0.074 C 
HETATM   20  C17 UNL     1      47.057  12.265  -3.522  1.00  0.00     0.031 C 
HETATM   21  C18 UNL     1      47.829  10.256  -2.380  1.00  0.00     0.031 C 
ENDBRANCH  15  19
ENDBRANCH  12  15
ENDBRANCH  11  12
BRANCH  10  22
HETATM   22  O2  UNL     1      45.953   9.768   0.685  1.00  0.00    -0.358 OA
ATOM     23  H2  UNL     1      45.354   9.167   1.114  1.00  0.00     0.217 HD
ENDBRANCH  10  22
BRANCH   6  24
HETATM   24  C4  UNL     1      46.122  15.374   2.941  1.00  0.00     0.087 C 
HETATM   25  C5  UNL     1      47.356  16.080   3.389  1.00  0.00     0.051 C 
HETATM   26  C6  UNL     1      47.143  16.807   4.721  1.00  0.00     0.169 C 
HETATM   27  O1  UNL     1      46.069  17.669   4.503  1.00  0.00    -0.391 OA
HETATM   28  C7  UNL     1      44.910  16.936   4.514  1.00  0.00     0.169 C 
HETATM   29  C8  UNL     1      45.013  15.556   3.972  1.00  0.00     0.051 C 
ENDBRANCH   6  24
TORSDOF 7
ENDMDL
MODEL 3
REMARK VINA RESULT: -6.055472530      0.853      1.631
REMARK  7 active torsions:
REMARK  status: ('A' for Active; 'I' for Inactive)
REMARK    1  A    between atoms: N2_6  and  C4_8 
REMARK    2  A    between atoms: C10_16  and  O2_17 
REMARK    3  A    between atoms: C11_19  and  C12_20 
REMARK    4  A    between atoms: C12_20  and  O3_21 
REMARK    5  A    between atoms: C12_20  and  N3_23 
REMARK    6  A    between atoms: N3_23  and  C13_24 
REMARK    7  A    between atoms: N3_23  and  C16_27 
ROOT
HETATM    1  C1  UNL     1      43.964  14.827  -0.676  1.00  0.00     0.069 C 
HETATM    2  C2  UNL     1      44.706  13.829   0.065  1.00  0.00     0.020 A 
HETATM    3  N1  UNL     1      45.179  14.178   1.293  1.00  0.00    -0.344 N 
ATOM      4  H1  UNL     1      44.983  15.118   1.638  1.00  0.00     0.167 HD
HETATM    5  C3  UNL     1      45.879  13.361   2.060  1.00  0.00     0.126 A 
HETATM    6  N2  UNL     1      46.346  13.659   3.222  1.00  0.00    -0.370 N 
ATOM      7  H2  UNL     1      46.868  12.918   3.691  1.00  0.00     0.161 HD
HETATM    8  C9  UNL     1      46.138  12.095   1.585  1.00  0.00     0.111 A 
HETATM    9 CL1  UNL     1      47.046  10.915   2.488  1.00  0.00    -0.077 Cl
HETATM   10  C10 UNL     1      45.664  11.712   0.322  1.00  0.00     0.103 A 
HETATM   11  C11 UNL     1      44.931  12.567  -0.477  1.00  0.00     0.047 A 
ENDROOT
BRANCH  11  12
HETATM   12  C12 UNL     1      44.408  12.275  -1.814  1.00  0.00     0.255 C 
BRANCH  12  13
HETATM   13  O3  UNL     1      43.919  10.959  -1.895  1.00  0.00    -0.372 OA
ATOM     14  H3  UNL     1      44.562  10.375  -2.279  1.00  0.00     0.212 HD
ENDBRANCH  12  13
BRANCH  12  15
HETATM   15  N3  UNL     1      45.384  12.408  -2.865  1.00  0.00    -0.377 N 
BRANCH  15  16
HETATM   16  C13 UNL     1      44.850  12.767  -4.129  1.00  0.00     0.074 C 
HETATM   17  C14 UNL     1      43.499  13.386  -4.153  1.00  0.00     0.031 C 
HETATM   18  C15 UNL     1      44.866  11.659  -5.173  1.00  0.00     0.031 C 
ENDBRANCH  15  16
BRANCH  15  19
HETATM   19  C16 UNL     1      46.615  13.015  -2.559  1.00  0.00     0.074 C 
HETATM   20  C17 UNL     1      46.937  14.246  -3.373  1.00  0.00     0.031 C 
HETATM   21  C18 UNL     1      47.742  12.028  -2.765  1.00  0.00     0.031 C 
ENDBRANCH  15  19
ENDBRANCH  12  15
ENDBRANCH  11  12
BRANCH  10  22
HETATM   22  O2  UNL     1      45.939  10.434  -0.154  1.00  0.00    -0.358 OA
ATOM     23  H2  UNL     1      46.835  10.193  -0.357  1.00  0.00     0.217 HD
ENDBRANCH  10  22
BRANCH   6  24
HETATM   24  C4  UNL     1      46.233  14.876   3.936  1.00  0.00     0.087 C 
HETATM   25  C5  UNL     1      45.007  15.678   3.662  1.00  0.00     0.051 C 
HETATM   26  C6  UNL     1      45.348  17.095   3.189  1.00  0.00     0.169 C 
HETATM   27  O1  UNL     1      46.142  17.638   4.198  1.00  0.00    -0.391 OA
HETATM   28  C7  UNL     1      47.403  17.109   4.095  1.00  0.00     0.169 C 
HETATM   29  C8  UNL     1      47.477  15.702   3.624  1.00  0.00     0.051 C 
ENDBRANCH   6  24
TORSDOF 7
ENDMDL
MODEL 4
REMARK VINA RESULT: -5.962042340      6.825      9.145
REMARK  7 active torsions:
REMARK  status: ('A' for Active; 'I' for Inactive)
REMARK    1  A    between atoms: N2_6  and  C4_8 
REMARK    2  A    between atoms: C10_16  and  O2_17 
REMARK    3  A    between atoms: C11_19  and  C12_20 
REMARK    4  A    between atoms: C12_20  and  O3_21 
REMARK    5  A    between atoms: C12_20  and  N3_23 
REMARK    6  A    between atoms: N3_23  and  C13_24 
REMARK    7  A    between atoms: N3_23  and  C16_27 
ROOT
HETATM    1  C1  UNL     1      48.436   6.787   4.623  1.00  0.00     0.069 C 
HETATM    2  C2  UNL     1      48.996   7.422   3.448  1.00  0.00     0.020 A 
HETATM    3  N1  UNL     1      48.259   8.392   2.843  1.00  0.00    -0.344 N 
ATOM      4  H1  UNL     1      47.353   8.635   3.247  1.00  0.00     0.167 HD
HETATM    5  C3  UNL     1      48.655   9.036   1.760  1.00  0.00     0.126 A 
HETATM    6  N2  UNL     1      47.981   9.954   1.159  1.00  0.00    -0.370 N 
ATOM      7  H2  UNL     1      48.423  10.356   0.332  1.00  0.00     0.161 HD
HETATM    8  C9  UNL     1      49.877   8.701   1.223  1.00  0.00     0.111 A 
HETATM    9 CL1  UNL     1      50.526   9.467  -0.201  1.00  0.00    -0.077 Cl
HETATM   10  C10 UNL     1      50.657   7.703   1.826  1.00  0.00     0.103 A 
HETATM   11  C11 UNL     1      50.240   7.033   2.960  1.00  0.00     0.047 A 
ENDROOT
BRANCH  11  12
HETATM   12  C12 UNL     1      50.964   5.965   3.654  1.00  0.00     0.255 C 
BRANCH  12  13
HETATM   13  O3  UNL     1      52.347   6.222   3.686  1.00  0.00    -0.372 OA
ATOM     14  H3  UNL     1      52.565   7.000   3.186  1.00  0.00     0.212 HD
ENDBRANCH  12  13
BRANCH  12  15
HETATM   15  N3  UNL     1      50.810   4.666   3.051  1.00  0.00    -0.377 N 
BRANCH  15  16
HETATM   16  C13 UNL     1      50.828   3.582   3.965  1.00  0.00     0.074 C 
HETATM   17  C14 UNL     1      50.613   3.891   5.402  1.00  0.00     0.031 C 
HETATM   18  C15 UNL     1      52.049   2.677   3.867  1.00  0.00     0.031 C 
ENDBRANCH  15  16
BRANCH  15  19
HETATM   19  C16 UNL     1      49.888   4.525   1.998  1.00  0.00     0.074 C 
HETATM   20  C17 UNL     1      48.737   3.590   2.281  1.00  0.00     0.031 C 
HETATM   21  C18 UNL     1      50.593   4.016   0.761  1.00  0.00     0.031 C 
ENDBRANCH  15  19
ENDBRANCH  12  15
ENDBRANCH  11  12
BRANCH  10  22
HETATM   22  O2  UNL     1      51.886   7.364   1.271  1.00  0.00    -0.358 OA
ATOM     23  H2  UNL     1      52.644   7.910   1.445  1.00  0.00     0.217 HD
ENDBRANCH  10  22
BRANCH   6  24
HETATM   24  C4  UNL     1      46.709  10.479   1.491  1.00  0.00     0.087 C 
HETATM   25  C5  UNL     1      45.648  10.313   0.457  1.00  0.00     0.051 C 
HETATM   26  C6  UNL     1      45.036  11.658   0.048  1.00  0.00     0.169 C 
HETATM   27  O1  UNL     1      44.563  12.220   1.232  1.00  0.00    -0.391 OA
HETATM   28  C7  UNL     1      45.628  12.718   1.938  1.00  0.00     0.169 C 
HETATM   29  C8  UNL     1      46.899  11.958   1.811  1.00  0.00     0.051 C 
ENDBRANCH   6  24
TORSDOF 7
ENDMDL
MODEL 5
REMARK VINA RESULT: -5.913230016      3.176      6.561
REMARK  7 active torsions:
REMARK  status: ('A' for Active; 'I' for Inactive)
REMARK    1  A    between atoms: N2_6  and  C4_8 
REMARK    2  A    between atoms: C10_16  and  O2_17 
REMARK    3  A    between atoms: C11_19  and  C12_20 
REMARK    4  A    between atoms: C12_20  and  O3_21 
REMARK    5  A    between atoms: C12_20  and  N3_23 
REMARK    6  A    between atoms: N3_23  and  C13_24 
REMARK    7  A    between atoms: N3_23  and  C16_27 
ROOT
HETATM    1  C1  UNL     1      46.944  13.448   4.215  1.00  0.00     0.069 C 
HETATM    2  C2  UNL     1      46.551  13.028   2.886  1.00  0.00     0.020 A 
HETATM    3  N1  UNL     1      47.205  11.967   2.341  1.00  0.00    -0.344 N 
ATOM      4  H1  UNL     1      47.933  11.511   2.893  1.00  0.00     0.167 HD
HETATM    5  C3  UNL     1      46.946  11.496   1.134  1.00  0.00     0.126 A 
HETATM    6  N2  UNL     1      47.549  10.499   0.585  1.00  0.00    -0.370 N 
ATOM      7  H2  UNL     1      47.236  10.257  -0.355  1.00  0.00     0.161 HD
HETATM    8  C9  UNL     1      45.964  12.119   0.397  1.00  0.00     0.111 A 
HETATM    9 CL1  UNL     1      45.517  11.605  -1.206  1.00  0.00    -0.077 Cl
HETATM   10  C10 UNL     1      45.276  13.216   0.935  1.00  0.00     0.103 A 
HETATM   11  C11 UNL     1      45.547  13.704   2.198  1.00  0.00     0.047 A 
ENDROOT
BRANCH  11  12
HETATM   12  C12 UNL     1      44.905  14.851   2.844  1.00  0.00     0.255 C 
BRANCH  12  13
HETATM   13  O3  UNL     1      43.511  14.826   2.661  1.00  0.00    -0.372 OA
ATOM     14  H3  UNL     1      43.130  14.032   3.018  1.00  0.00     0.212 HD
ENDBRANCH  12  13
BRANCH  12  15
HETATM   15  N3  UNL     1      45.353  16.127   2.348  1.00  0.00    -0.377 N 
BRANCH  15  16
HETATM   16  C13 UNL     1      44.429  16.793   1.502  1.00  0.00     0.074 C 
HETATM   17  C14 UNL     1      44.909  17.225   0.164  1.00  0.00     0.031 C 
HETATM   18  C15 UNL     1      43.712  17.977   2.137  1.00  0.00     0.031 C 
ENDBRANCH  15  16
BRANCH  15  19
HETATM   19  C16 UNL     1      46.055  16.974   3.224  1.00  0.00     0.074 C 
HETATM   20  C17 UNL     1      47.546  16.740   3.277  1.00  0.00     0.031 C 
HETATM   21  C18 UNL     1      45.522  16.817   4.630  1.00  0.00     0.031 C 
ENDBRANCH  15  19
ENDBRANCH  12  15
ENDBRANCH  11  12
BRANCH  10  22
HETATM   22  O2  UNL     1      44.292  13.844   0.180  1.00  0.00    -0.358 OA
ATOM     23  H2  UNL     1      44.535  14.306  -0.614  1.00  0.00     0.217 HD
ENDBRANCH  10  22
BRANCH   6  24
HETATM   24  C4  UNL     1      48.589   9.695   1.111  1.00  0.00     0.087 C 
HETATM   25  C5  UNL     1      49.523   9.106   0.111  1.00  0.00     0.051 C 
HETATM   26  C6  UNL     1      49.584   7.578   0.219  1.00  0.00     0.169 C 
HETATM   27  O1  UNL     1      49.959   7.318   1.536  1.00  0.00    -0.391 OA
HETATM   28  C7  UNL     1      48.870   7.510   2.348  1.00  0.00     0.169 C 
HETATM   29  C8  UNL     1      47.934   8.587   1.930  1.00  0.00     0.051 C 
ENDBRANCH   6  24
TORSDOF 7
ENDMDL
