MODEL 1
REMARK VINA RESULT: -7.287576946      0.000      0.000
REMARK  6 active torsions:
REMARK  status: ('A' for Active; 'I' for Inactive)
REMARK    1  A    between atoms: O1_2  and  C2_3 
REMARK    2  A    between atoms: C6_10  and  C7_11 
REMARK    3  A    between atoms: C7_11  and  C8_12 
REMARK    4  A    between atoms: C14_22  and  N4_23 
REMARK    5  A    between atoms: N4_23  and  C15_25 
REMARK    6  A    between atoms: C15_25  and  C16_26 
ROOT
HETATM    1  C2  UNL     1      46.820  11.228   1.876  1.00  0.00     0.225 A 
HETATM    2  N1  UNL     1      46.302  11.208   0.640  1.00  0.00    -0.321 N 
ATOM      3  H1  UNL     1      46.478  10.391   0.057  1.00  0.00     0.169 HD
HETATM    4  C3  UNL     1      45.566  12.203   0.131  1.00  0.00     0.051 A 
HETATM    5  C4  UNL     1      45.041  12.170  -1.139  1.00  0.00     0.055 A 
HETATM    6  C5  UNL     1      44.288  13.202  -1.645  1.00  0.00     0.043 A 
HETATM    7 CL1  UNL     1      43.661  13.118  -3.280  1.00  0.00    -0.084 Cl
HETATM    8  C6  UNL     1      44.054  14.311  -0.840  1.00  0.00    -0.024 A 
HETATM    9  C11 UNL     1      44.562  14.408   0.468  1.00  0.00    -0.037 A 
HETATM   10  C12 UNL     1      44.306  15.572   1.307  1.00  0.00     0.050 C 
HETATM   11  C13 UNL     1      45.317  13.317   0.907  1.00  0.00     0.041 A 
HETATM   12  C14 UNL     1      45.858  13.323   2.178  1.00  0.00     0.117 A 
HETATM   13  N5  UNL     1      46.606  12.284   2.662  1.00  0.00    -0.308 N 
ATOM     14  H5  UNL     1      46.992  12.317   3.605  1.00  0.00     0.171 HD
ENDROOT
BRANCH   8  15
HETATM   15  C7  UNL     1      43.222  15.413  -1.388  1.00  0.00     0.099 C 
BRANCH  15  16
HETATM   16  C8  UNL     1      43.977  16.381  -2.210  1.00  0.00     0.029 A 
HETATM   17  C9  UNL     1      44.927  17.309  -1.831  1.00  0.00     0.114 A 
HETATM   18  N2  UNL     1      45.336  17.953  -2.921  1.00  0.00    -0.360 N 
HETATM   19  C10 UNL     1      44.691  17.484  -4.006  1.00  0.00     0.180 A 
ATOM     20  H2  UNL     1      46.037  18.694  -2.933  1.00  0.00     0.166 HD
HETATM   21  N3  UNL     1      43.871  16.528  -3.539  1.00  0.00    -0.354 N 
ATOM     22  H3  UNL     1      43.242  15.979  -4.126  1.00  0.00     0.166 HD
ENDBRANCH  15  16
ENDBRANCH   8  15
BRANCH  12  23
HETATM   23  N4  UNL     1      45.661  14.326   2.927  1.00  0.00    -0.375 N 
ATOM     24  H4  UNL     1      44.773  14.826   2.880  1.00  0.00     0.161 HD
BRANCH  23  25
HETATM   25  C15 UNL     1      46.680  14.763   3.841  1.00  0.00     0.126 C 
BRANCH  25  26
HETATM   26  C16 UNL     1      47.414  15.990   3.332  1.00  0.00     0.003 A 
HETATM   27  C17 UNL     1      47.880  16.924   4.467  1.00  0.00     0.007 A 
HETATM   28  C18 UNL     1      46.717  17.287   3.602  1.00  0.00     0.007 A 
ENDBRANCH  25  26
ENDBRANCH  23  25
ENDBRANCH  12  23
BRANCH   1  29
HETATM   29  O1  UNL     1      47.584  10.130   2.327  1.00  0.00    -0.327 OA
HETATM   30  C1  UNL     1      47.980   9.135   1.404  1.00  0.00     0.213 C 
ENDBRANCH   1  29
TORSDOF 6
ENDMDL
MODEL 2
REMARK VINA RESULT: -7.073598120      2.618      5.861
REMARK  6 active torsions:
REMARK  status: ('A' for Active; 'I' for Inactive)
REMARK    1  A    between atoms: O1_2  and  C2_3 
REMARK    2  A    between atoms: C6_10  and  C7_11 
REMARK    3  A    between atoms: C7_11  and  C8_12 
REMARK    4  A    between atoms: C14_22  and  N4_23 
REMARK    5  A    between atoms: N4_23  and  C15_25 
REMARK    6  A    between atoms: C15_25  and  C16_26 
ROOT
HETATM    1  C2  UNL     1      44.087  14.996   0.066  1.00  0.00     0.225 A 
HETATM    2  N1  UNL     1      44.114  13.832  -0.597  1.00  0.00    -0.321 N 
ATOM      3  H1  UNL     1      43.630  13.775  -1.492  1.00  0.00     0.169 HD
HETATM    4  C3  UNL     1      44.743  12.740  -0.146  1.00  0.00     0.051 A 
HETATM    5  C4  UNL     1      44.762  11.551  -0.836  1.00  0.00     0.055 A 
HETATM    6  C5  UNL     1      45.413  10.439  -0.357  1.00  0.00     0.043 A 
HETATM    7 CL1  UNL     1      45.388   8.941  -1.268  1.00  0.00    -0.084 Cl
HETATM    8  C6  UNL     1      46.071  10.528   0.864  1.00  0.00    -0.024 A 
HETATM    9  C11 UNL     1      46.089  11.715   1.620  1.00  0.00    -0.037 A 
HETATM   10  C12 UNL     1      46.786  11.801   2.898  1.00  0.00     0.050 C 
HETATM   11  C13 UNL     1      45.404  12.799   1.064  1.00  0.00     0.041 A 
HETATM   12  C14 UNL     1      45.366  14.005   1.736  1.00  0.00     0.117 A 
HETATM   13  N5  UNL     1      44.711  15.099   1.241  1.00  0.00    -0.308 N 
ATOM     14  H5  UNL     1      44.701  15.978   1.759  1.00  0.00     0.171 HD
ENDROOT
BRANCH   8  15
HETATM   15  C7  UNL     1      46.788   9.328   1.365  1.00  0.00     0.099 C 
BRANCH  15  16
HETATM   16  C8  UNL     1      48.204   9.260   0.952  1.00  0.00     0.029 A 
HETATM   17  C9  UNL     1      48.868   9.953  -0.042  1.00  0.00     0.114 A 
HETATM   18  N2  UNL     1      50.141   9.565  -0.038  1.00  0.00    -0.360 N 
HETATM   19  C10 UNL     1      50.342   8.643   0.922  1.00  0.00     0.180 A 
ATOM     20  H2  UNL     1      50.860   9.916  -0.671  1.00  0.00     0.166 HD
HETATM   21  N3  UNL     1      49.144   8.480   1.507  1.00  0.00    -0.354 N 
ATOM     22  H3  UNL     1      48.969   7.838   2.281  1.00  0.00     0.166 HD
ENDBRANCH  15  16
ENDBRANCH   8  15
BRANCH  12  23
HETATM   23  N4  UNL     1      45.954  14.107   2.852  1.00  0.00    -0.375 N 
ATOM     24  H4  UNL     1      46.672  13.429   3.111  1.00  0.00     0.161 HD
BRANCH  23  25
HETATM   25  C15 UNL     1      45.618  15.172   3.758  1.00  0.00     0.126 C 
BRANCH  25  26
HETATM   26  C16 UNL     1      46.843  15.735   4.456  1.00  0.00     0.003 A 
HETATM   27  C17 UNL     1      47.145  17.192   4.054  1.00  0.00     0.007 A 
HETATM   28  C18 UNL     1      47.982  16.065   3.542  1.00  0.00     0.007 A 
ENDBRANCH  25  26
ENDBRANCH  23  25
ENDBRANCH  12  23
BRANCH   1  29
HETATM   29  O1  UNL     1      43.396  16.096  -0.488  1.00  0.00    -0.327 OA
HETATM   30  C1  UNL     1      43.100  16.102  -1.871  1.00  0.00     0.213 C 
ENDBRANCH   1  29
TORSDOF 6
ENDMDL
MODEL 3
REMARK VINA RESULT: -6.844190193      1.815      2.324
REMARK  6 active torsions:
REMARK  status: ('A' for Active; 'I' for Inactive)
REMARK    1  A    between atoms: O1_2  and  C2_3 
REMARK    2  A    between atoms: C6_10  and  C7_11 
REMARK    3  A    between atoms: C7_11  and  C8_12 
REMARK    4  A    between atoms: C14_22  and  N4_23 
REMARK    5  A    between atoms: N4_23  and  C15_25 
REMARK    6  A    between atoms: C15_25  and  C16_26 
ROOT
HETATM    1  C2  UNL     1      45.609  11.527   1.144  1.00  0.00     0.225 A 
HETATM    2  N1  UNL     1      45.257  11.541  -0.150  1.00  0.00    -0.321 N 
ATOM      3  H1  UNL     1      45.354  10.679  -0.686  1.00  0.00     0.169 HD
HETATM    4  C3  UNL     1      44.785  12.626  -0.775  1.00  0.00     0.051 A 
HETATM    5  C4  UNL     1      44.429  12.627  -2.103  1.00  0.00     0.055 A 
HETATM    6  C5  UNL     1      43.947  13.751  -2.729  1.00  0.00     0.043 A 
HETATM    7 CL1  UNL     1      43.528  13.703  -4.431  1.00  0.00    -0.084 Cl
HETATM    8  C6  UNL     1      43.817  14.920  -1.989  1.00  0.00    -0.024 A 
HETATM    9  C11 UNL     1      44.164  14.987  -0.627  1.00  0.00    -0.037 A 
HETATM   10  C12 UNL     1      44.020  16.216   0.143  1.00  0.00     0.050 C 
HETATM   11  C13 UNL     1      44.646  13.801  -0.066  1.00  0.00     0.041 A 
HETATM   12  C14 UNL     1      45.013  13.772   1.266  1.00  0.00     0.117 A 
HETATM   13  N5  UNL     1      45.492  12.640   1.869  1.00  0.00    -0.308 N 
ATOM     14  H5  UNL     1      45.755  12.648   2.854  1.00  0.00     0.171 HD
ENDROOT
BRANCH   8  15
HETATM   15  C7  UNL     1      43.277  16.126  -2.668  1.00  0.00     0.099 C 
BRANCH  15  16
HETATM   16  C8  UNL     1      41.823  16.071  -2.920  1.00  0.00     0.029 A 
HETATM   17  C9  UNL     1      41.109  16.420  -4.050  1.00  0.00     0.114 A 
HETATM   18  N2  UNL     1      39.820  16.189  -3.813  1.00  0.00    -0.360 N 
HETATM   19  C10 UNL     1      39.657  15.700  -2.569  1.00  0.00     0.180 A 
ATOM     20  H2  UNL     1      39.065  16.358  -4.478  1.00  0.00     0.166 HD
HETATM   21  N3  UNL     1      40.895  15.640  -2.052  1.00  0.00    -0.354 N 
ATOM     22  H3  UNL     1      41.105  15.307  -1.111  1.00  0.00     0.166 HD
ENDBRANCH  15  16
ENDBRANCH   8  15
BRANCH  12  23
HETATM   23  N4  UNL     1      44.908  14.827   1.958  1.00  0.00    -0.375 N 
ATOM     24  H4  UNL     1      44.208  15.527   1.711  1.00  0.00     0.161 HD
BRANCH  23  25
HETATM   25  C15 UNL     1      45.769  15.045   3.088  1.00  0.00     0.126 C 
BRANCH  25  26
HETATM   26  C16 UNL     1      46.658  16.261   2.901  1.00  0.00     0.003 A 
HETATM   27  C17 UNL     1      48.006  16.136   3.638  1.00  0.00     0.007 A 
HETATM   28  C18 UNL     1      46.928  17.032   4.156  1.00  0.00     0.007 A 
ENDBRANCH  25  26
ENDBRANCH  23  25
ENDBRANCH  12  23
BRANCH   1  29
HETATM   29  O1  UNL     1      46.097  10.333   1.718  1.00  0.00    -0.327 OA
HETATM   30  C1  UNL     1      47.473  10.028   1.615  1.00  0.00     0.213 C 
ENDBRANCH   1  29
TORSDOF 6
ENDMDL
MODEL 4
REMARK VINA RESULT: -6.769308996      2.878      6.024
REMARK  6 active torsions:
REMARK  status: ('A' for Active; 'I' for Inactive)
REMARK    1  A    between atoms: O1_2  and  C2_3 
REMARK    2  A    between atoms: C6_10  and  C7_11 
REMARK    3  A    between atoms: C7_11  and  C8_12 
REMARK    4  A    between atoms: C14_22  and  N4_23 
REMARK    5  A    between atoms: N4_23  and  C15_25 
REMARK    6  A    between atoms: C15_25  and  C16_26 
ROOT
HETATM    1  C2  UNL     1      44.649  12.438  -1.920  1.00  0.00     0.225 A 
HETATM    2  N1  UNL     1      44.300  13.592  -1.335  1.00  0.00    -0.321 N 
ATOM      3  H1  UNL     1      43.780  14.274  -1.886  1.00  0.00     0.169 HD
HETATM    4  C3  UNL     1      44.597  13.897  -0.066  1.00  0.00     0.051 A 
HETATM    5  C4  UNL     1      44.233  15.085   0.522  1.00  0.00     0.055 A 
HETATM    6  C5  UNL     1      44.547  15.381   1.826  1.00  0.00     0.043 A 
HETATM    7 CL1  UNL     1      44.078  16.922   2.520  1.00  0.00    -0.084 Cl
HETATM    8  C6  UNL     1      45.256  14.443   2.569  1.00  0.00    -0.024 A 
HETATM    9  C11 UNL     1      45.658  13.209   2.028  1.00  0.00    -0.037 A 
HETATM   10  C12 UNL     1      46.396  12.229   2.815  1.00  0.00     0.050 C 
HETATM   11  C13 UNL     1      45.299  12.985   0.695  1.00  0.00     0.041 A 
HETATM   12  C14 UNL     1      45.653  11.801   0.079  1.00  0.00     0.117 A 
HETATM   13  N5  UNL     1      45.330  11.527  -1.222  1.00  0.00    -0.308 N 
ATOM     14  H5  UNL     1      45.604  10.643  -1.651  1.00  0.00     0.171 HD
ENDROOT
BRANCH   8  15
HETATM   15  C7  UNL     1      45.574  14.764   3.984  1.00  0.00     0.099 C 
BRANCH  15  16
HETATM   16  C8  UNL     1      46.717  15.684   4.147  1.00  0.00     0.029 A 
HETATM   17  C9  UNL     1      46.808  16.862   4.864  1.00  0.00     0.114 A 
HETATM   18  N2  UNL     1      48.042  17.339   4.723  1.00  0.00    -0.360 N 
HETATM   19  C10 UNL     1      48.770  16.521   3.940  1.00  0.00     0.180 A 
ATOM     20  H2  UNL     1      48.386  18.201   5.147  1.00  0.00     0.166 HD
HETATM   21  N3  UNL     1      47.935  15.523   3.606  1.00  0.00    -0.354 N 
ATOM     22  H3  UNL     1      48.195  14.735   3.012  1.00  0.00     0.166 HD
ENDBRANCH  15  16
ENDBRANCH   8  15
BRANCH  12  23
HETATM   23  N4  UNL     1      46.303  10.934   0.735  1.00  0.00    -0.375 N 
ATOM     24  H4  UNL     1      46.908  11.229   1.502  1.00  0.00     0.161 HD
BRANCH  23  25
HETATM   25  C15 UNL     1      46.193   9.539   0.407  1.00  0.00     0.126 C 
BRANCH  25  26
HETATM   26  C16 UNL     1      47.470   8.779   0.714  1.00  0.00     0.003 A 
HETATM   27  C17 UNL     1      47.235   7.547   1.609  1.00  0.00     0.007 A 
HETATM   28  C18 UNL     1      47.866   8.786   2.157  1.00  0.00     0.007 A 
ENDBRANCH  25  26
ENDBRANCH  23  25
ENDBRANCH  12  23
BRANCH   1  29
HETATM   29  O1  UNL     1      44.291  12.204  -3.265  1.00  0.00    -0.327 OA
HETATM   30  C1  UNL     1      43.288  11.252  -3.560  1.00  0.00     0.213 C 
ENDBRANCH   1  29
TORSDOF 6
ENDMDL
MODEL 5
REMARK VINA RESULT: -6.747906165      2.528      5.739
REMARK  6 active torsions:
REMARK  status: ('A' for Active; 'I' for Inactive)
REMARK    1  A    between atoms: O1_2  and  C2_3 
REMARK    2  A    between atoms: C6_10  and  C7_11 
REMARK    3  A    between atoms: C7_11  and  C8_12 
REMARK    4  A    between atoms: C14_22  and  N4_23 
REMARK    5  A    between atoms: N4_23  and  C15_25 
REMARK    6  A    between atoms: C15_25  and  C16_26 
ROOT
HETATM    1  C2  UNL     1      44.260  16.040  -1.327  1.00  0.00     0.225 A 
HETATM    2  N1  UNL     1      44.499  14.985  -2.117  1.00  0.00    -0.321 N 
ATOM      3  H1  UNL     1      44.577  15.143  -3.122  1.00  0.00     0.169 HD
HETATM    4  C3  UNL     1      44.640  13.735  -1.660  1.00  0.00     0.051 A 
HETATM    5  C4  UNL     1      44.885  12.661  -2.482  1.00  0.00     0.055 A 
HETATM    6  C5  UNL     1      45.027  11.385  -1.994  1.00  0.00     0.043 A 
HETATM    7 CL1  UNL     1      45.316  10.048  -3.090  1.00  0.00    -0.084 Cl
HETATM    8  C6  UNL     1      44.918  11.182  -0.623  1.00  0.00    -0.024 A 
HETATM    9  C11 UNL     1      44.669  12.237   0.273  1.00  0.00    -0.037 A 
HETATM   10  C12 UNL     1      44.563  12.015   1.710  1.00  0.00     0.050 C 
HETATM   11  C13 UNL     1      44.538  13.503  -0.303  1.00  0.00     0.041 A 
HETATM   12  C14 UNL     1      44.290  14.600   0.499  1.00  0.00     0.117 A 
HETATM   13  N5  UNL     1      44.152  15.863  -0.009  1.00  0.00    -0.308 N 
ATOM     14  H5  UNL     1      43.969  16.655   0.608  1.00  0.00     0.171 HD
ENDROOT
BRANCH   8  15
HETATM   15  C7  UNL     1      45.092   9.802  -0.102  1.00  0.00     0.099 C 
BRANCH  15  16
HETATM   16  C8  UNL     1      46.461   9.506   0.367  1.00  0.00     0.029 A 
HETATM   17  C9  UNL     1      47.603  10.281   0.304  1.00  0.00     0.114 A 
HETATM   18  N2  UNL     1      48.599   9.599   0.863  1.00  0.00    -0.360 N 
HETATM   19  C10 UNL     1      48.157   8.401   1.292  1.00  0.00     0.180 A 
ATOM     20  H2  UNL     1      49.558   9.934   0.952  1.00  0.00     0.166 HD
HETATM   21  N3  UNL     1      46.852   8.376   0.975  1.00  0.00    -0.354 N 
ATOM     22  H3  UNL     1      46.232   7.591   1.174  1.00  0.00     0.166 HD
ENDBRANCH  15  16
ENDBRANCH   8  15
BRANCH  12  23
HETATM   23  N4  UNL     1      44.183  14.437   1.750  1.00  0.00    -0.375 N 
ATOM     24  H4  UNL     1      43.654  13.644   2.114  1.00  0.00     0.161 HD
BRANCH  23  25
HETATM   25  C15 UNL     1      44.801  15.362   2.661  1.00  0.00     0.126 C 
BRANCH  25  26
HETATM   26  C16 UNL     1      46.281  15.078   2.844  1.00  0.00     0.003 A 
HETATM   27  C17 UNL     1      46.767  15.335   4.284  1.00  0.00     0.007 A 
HETATM   28  C18 UNL     1      47.107  16.280   3.178  1.00  0.00     0.007 A 
ENDBRANCH  25  26
ENDBRANCH  23  25
ENDBRANCH  12  23
BRANCH   1  29
HETATM   29  O1  UNL     1      44.125  17.323  -1.901  1.00  0.00    -0.327 OA
HETATM   30  C1  UNL     1      44.918  17.668  -3.019  1.00  0.00     0.213 C 
ENDBRANCH   1  29
TORSDOF 6
ENDMDL
