MODEL 1
REMARK VINA RESULT: -7.018262237      0.000      0.000
REMARK  5 active torsions:
REMARK  status: ('A' for Active; 'I' for Inactive)
REMARK    1  A    between atoms: O1_2  and  C2_3 
REMARK    2  A    between atoms: N2_7  and  C4_9 
REMARK    3  A    between atoms: C11_16  and  C12_17 
REMARK       I    between atoms: C12_17  and  N3_19 
REMARK    4  A    between atoms: N3_19  and  C13_21 
REMARK    5  A    between atoms: C13_21  and  C14_22 
ROOT
HETATM    1  C2  UNL     1      44.406  11.502  -1.032  1.00  0.00     0.224 A 
HETATM    2  N1  UNL     1      44.258  12.716  -1.544  1.00  0.00    -0.307 N 
ATOM      3  H1  UNL     1      44.125  12.810  -2.551  1.00  0.00     0.171 HD
HETATM    4  C3  UNL     1      44.276  13.819  -0.796  1.00  0.00     0.121 A 
HETATM    5  N2  UNL     1      44.177  14.990  -1.180  1.00  0.00    -0.370 N 
ATOM      6  H2  UNL     1      44.225  15.583  -0.351  1.00  0.00     0.161 HD
HETATM    7  C11 UNL     1      44.460  13.636   0.589  1.00  0.00     0.091 A 
HETATM    8  C17 UNL     1      44.608  12.371   1.066  1.00  0.00     0.112 A 
HETATM    9  N4  UNL     1      44.584  11.283   0.272  1.00  0.00    -0.331 N 
ATOM     10  H4  UNL     1      44.696  10.341   0.647  1.00  0.00     0.168 HD
ENDROOT
BRANCH   5  11
HETATM   11  C4  UNL     1      44.030  15.818  -2.264  1.00  0.00     0.086 C 
HETATM   12  C5  UNL     1      44.712  17.184  -1.952  1.00  0.00     0.025 C 
HETATM   13  C6  UNL     1      45.132  17.713  -3.281  1.00  0.00     0.002 C 
HETATM   14  C7  UNL     1      43.948  17.941  -4.172  1.00  0.00     0.001 C 
HETATM   15  C8  UNL     1      42.895  16.921  -4.113  1.00  0.00     0.006 C 
HETATM   16  C9  UNL     1      42.696  16.206  -2.789  1.00  0.00     0.004 C 
HETATM   17  C10 UNL     1      41.753  15.063  -3.087  1.00  0.00     0.012 C 
ENDBRANCH   5  11
BRANCH   7  18
HETATM   18  C12 UNL     1      44.451  14.847   1.471  1.00  0.00     0.256 C 
HETATM   19  O2  UNL     1      43.384  15.416   1.711  1.00  0.00    -0.267 OA
HETATM   20  N3  UNL     1      45.665  15.271   1.980  1.00  0.00    -0.355 N 
ATOM     21  H3  UNL     1      46.464  14.722   1.664  1.00  0.00     0.162 HD
BRANCH  20  22
HETATM   22  C13 UNL     1      46.002  16.328   2.860  1.00  0.00     0.147 C 
BRANCH  22  23
HETATM   23  C14 UNL     1      46.791  16.023   4.079  1.00  0.00     0.046 C 
HETATM   24  C15 UNL     1      46.399  16.728   5.321  1.00  0.00     0.034 C 
HETATM   25  C16 UNL     1      48.291  16.237   3.793  1.00  0.00     0.034 C 
HETATM   26 CL1  UNL     1      46.653  14.249   4.400  1.00  0.00    -0.118 Cl
ENDBRANCH  22  23
ENDBRANCH  20  22
ENDBRANCH   7  18
BRANCH   1  27
HETATM   27  O1  UNL     1      44.381  10.368  -1.856  1.00  0.00    -0.327 OA
HETATM   28  C1  UNL     1      44.081   9.124  -1.260  1.00  0.00     0.213 C 
ENDBRANCH   1  27
TORSDOF 5
ENDMDL
MODEL 2
REMARK VINA RESULT: -6.903228398      2.420      5.950
REMARK  5 active torsions:
REMARK  status: ('A' for Active; 'I' for Inactive)
REMARK    1  A    between atoms: O1_2  and  C2_3 
REMARK    2  A    between atoms: N2_7  and  C4_9 
REMARK    3  A    between atoms: C11_16  and  C12_17 
REMARK       I    between atoms: C12_17  and  N3_19 
REMARK    4  A    between atoms: N3_19  and  C13_21 
REMARK    5  A    between atoms: C13_21  and  C14_22 
ROOT
HETATM    1  C2  UNL     1      44.645  11.415  -0.705  1.00  0.00     0.224 A 
HETATM    2  N1  UNL     1      44.871  12.250   0.300  1.00  0.00    -0.307 N 
ATOM      3  H1  UNL     1      45.226  11.874   1.179  1.00  0.00     0.171 HD
HETATM    4  C3  UNL     1      44.652  13.562   0.207  1.00  0.00     0.121 A 
HETATM    5  N2  UNL     1      44.802  14.413   1.090  1.00  0.00    -0.370 N 
ATOM      6  H2  UNL     1      44.550  15.315   0.685  1.00  0.00     0.161 HD
HETATM    7  C11 UNL     1      44.163  14.032  -1.028  1.00  0.00     0.091 A 
HETATM    8  C17 UNL     1      43.947  13.136  -2.028  1.00  0.00     0.112 A 
HETATM    9  N4  UNL     1      44.182  11.816  -1.890  1.00  0.00    -0.331 N 
ATOM     10  H4  UNL     1      44.015  11.158  -2.651  1.00  0.00     0.168 HD
ENDROOT
BRANCH   5  11
HETATM   11  C4  UNL     1      45.168  14.642   2.393  1.00  0.00     0.086 C 
HETATM   12  C5  UNL     1      45.128  16.176   2.666  1.00  0.00     0.025 C 
HETATM   13  C6  UNL     1      44.833  16.296   4.123  1.00  0.00     0.002 C 
HETATM   14  C7  UNL     1      45.918  15.673   4.948  1.00  0.00     0.001 C 
HETATM   15  C8  UNL     1      46.471  14.414   4.436  1.00  0.00     0.006 C 
HETATM   16  C9  UNL     1      46.488  14.227   2.930  1.00  0.00     0.004 C 
HETATM   17  C10 UNL     1      46.858  12.778   2.709  1.00  0.00     0.012 C 
ENDBRANCH   5  11
BRANCH   7  18
HETATM   18  C12 UNL     1      43.937  15.504  -1.186  1.00  0.00     0.256 C 
HETATM   19  O2  UNL     1      43.150  16.083  -0.434  1.00  0.00    -0.267 OA
HETATM   20  N3  UNL     1      44.638  16.150  -2.189  1.00  0.00    -0.355 N 
ATOM     21  H3  UNL     1      45.223  15.533  -2.752  1.00  0.00     0.162 HD
BRANCH  20  22
HETATM   22  C13 UNL     1      44.693  17.511  -2.576  1.00  0.00     0.147 C 
BRANCH  22  23
HETATM   23  C14 UNL     1      45.228  17.854  -3.917  1.00  0.00     0.046 C 
HETATM   24  C15 UNL     1      44.532  18.931  -4.656  1.00  0.00     0.034 C 
HETATM   25  C16 UNL     1      45.313  16.580  -4.783  1.00  0.00     0.034 C 
HETATM   26 CL1  UNL     1      46.950  18.364  -3.714  1.00  0.00    -0.118 Cl
ENDBRANCH  22  23
ENDBRANCH  20  22
ENDBRANCH   7  18
BRANCH   1  27
HETATM   27  O1  UNL     1      44.889  10.041  -0.565  1.00  0.00    -0.327 OA
HETATM   28  C1  UNL     1      45.993   9.643   0.221  1.00  0.00     0.213 C 
ENDBRANCH   1  27
TORSDOF 5
ENDMDL
MODEL 3
REMARK VINA RESULT: -6.863257301      1.981      5.193
REMARK  5 active torsions:
REMARK  status: ('A' for Active; 'I' for Inactive)
REMARK    1  A    between atoms: O1_2  and  C2_3 
REMARK    2  A    between atoms: N2_7  and  C4_9 
REMARK    3  A    between atoms: C11_16  and  C12_17 
REMARK       I    between atoms: C12_17  and  N3_19 
REMARK    4  A    between atoms: N3_19  and  C13_21 
REMARK    5  A    between atoms: C13_21  and  C14_22 
ROOT
HETATM    1  C2  UNL     1      44.267  14.829  -2.732  1.00  0.00     0.224 A 
HETATM    2  N1  UNL     1      44.737  13.869  -1.947  1.00  0.00    -0.307 N 
ATOM      3  H1  UNL     1      45.116  13.026  -2.378  1.00  0.00     0.171 HD
HETATM    4  C3  UNL     1      44.733  13.962  -0.617  1.00  0.00     0.121 A 
HETATM    5  N2  UNL     1      45.118  13.115   0.196  1.00  0.00    -0.370 N 
ATOM      6  H2  UNL     1      44.980  13.508   1.128  1.00  0.00     0.161 HD
HETATM    7  C11 UNL     1      44.201  15.147  -0.071  1.00  0.00     0.091 A 
HETATM    8  C17 UNL     1      43.731  16.102  -0.918  1.00  0.00     0.112 A 
HETATM    9  N4  UNL     1      43.754  15.966  -2.258  1.00  0.00    -0.331 N 
ATOM     10  H4  UNL     1      43.398  16.693  -2.878  1.00  0.00     0.168 HD
ENDROOT
BRANCH   5  11
HETATM   11  C4  UNL     1      45.655  11.863   0.360  1.00  0.00     0.086 C 
HETATM   12  C5  UNL     1      44.655  10.807  -0.200  1.00  0.00     0.025 C 
HETATM   13  C6  UNL     1      45.510   9.665  -0.635  1.00  0.00     0.002 C 
HETATM   14  C7  UNL     1      46.257   9.076   0.523  1.00  0.00     0.001 C 
HETATM   15  C8  UNL     1      46.793  10.035   1.496  1.00  0.00     0.006 C 
HETATM   16  C9  UNL     1      46.019  11.325   1.695  1.00  0.00     0.004 C 
HETATM   17  C10 UNL     1      46.916  12.207   2.534  1.00  0.00     0.012 C 
ENDBRANCH   5  11
BRANCH   7  18
HETATM   18  C12 UNL     1      44.211  15.307   1.418  1.00  0.00     0.256 C 
HETATM   19  O2  UNL     1      43.572  14.518   2.118  1.00  0.00    -0.267 OA
HETATM   20  N3  UNL     1      44.951  16.353   1.940  1.00  0.00    -0.355 N 
ATOM     21  H3  UNL     1      45.394  16.941   1.234  1.00  0.00     0.162 HD
BRANCH  20  22
HETATM   22  C13 UNL     1      45.206  16.756   3.273  1.00  0.00     0.147 C 
BRANCH  22  23
HETATM   23  C14 UNL     1      46.320  16.117   4.015  1.00  0.00     0.046 C 
HETATM   24  C15 UNL     1      47.529  15.770   3.233  1.00  0.00     0.034 C 
HETATM   25  C16 UNL     1      45.797  14.878   4.769  1.00  0.00     0.034 C 
HETATM   26 CL1  UNL     1      46.834  17.249   5.328  1.00  0.00    -0.118 Cl
ENDBRANCH  22  23
ENDBRANCH  20  22
ENDBRANCH   7  18
BRANCH   1  27
HETATM   27  O1  UNL     1      44.290  14.691  -4.127  1.00  0.00    -0.327 OA
HETATM   28  C1  UNL     1      44.311  15.866  -4.908  1.00  0.00     0.213 C 
ENDBRANCH   1  27
TORSDOF 5
ENDMDL
MODEL 4
REMARK VINA RESULT: -6.796027119      2.403      6.058
REMARK  5 active torsions:
REMARK  status: ('A' for Active; 'I' for Inactive)
REMARK    1  A    between atoms: O1_2  and  C2_3 
REMARK    2  A    between atoms: N2_7  and  C4_9 
REMARK    3  A    between atoms: C11_16  and  C12_17 
REMARK       I    between atoms: C12_17  and  N3_19 
REMARK    4  A    between atoms: N3_19  and  C13_21 
REMARK    5  A    between atoms: C13_21  and  C14_22 
ROOT
HETATM    1  C2  UNL     1      46.138  11.358   1.914  1.00  0.00     0.224 A 
HETATM    2  N1  UNL     1      46.332  12.595   2.349  1.00  0.00    -0.307 N 
ATOM      3  H1  UNL     1      47.005  12.751   3.099  1.00  0.00     0.171 HD
HETATM    4  C3  UNL     1      45.682  13.645   1.844  1.00  0.00     0.121 A 
HETATM    5  N2  UNL     1      45.771  14.825   2.199  1.00  0.00    -0.370 N 
ATOM      6  H2  UNL     1      45.144  15.366   1.603  1.00  0.00     0.161 HD
HETATM    7  C11 UNL     1      44.765  13.377   0.809  1.00  0.00     0.091 A 
HETATM    8  C17 UNL     1      44.601  12.092   0.398  1.00  0.00     0.112 A 
HETATM    9  N4  UNL     1      45.279  11.060   0.937  1.00  0.00    -0.331 N 
ATOM     10  H4  UNL     1      45.144  10.101   0.616  1.00  0.00     0.168 HD
ENDROOT
BRANCH   5  11
HETATM   11  C4  UNL     1      46.366  15.706   3.067  1.00  0.00     0.086 C 
HETATM   12  C5  UNL     1      47.782  15.171   3.436  1.00  0.00     0.025 C 
HETATM   13  C6  UNL     1      48.583  16.392   3.742  1.00  0.00     0.002 C 
HETATM   14  C7  UNL     1      48.011  17.135   4.912  1.00  0.00     0.001 C 
HETATM   15  C8  UNL     1      46.547  17.212   4.970  1.00  0.00     0.006 C 
HETATM   16  C9  UNL     1      45.768  16.050   4.382  1.00  0.00     0.004 C 
HETATM   17  C10 UNL     1      44.328  16.508   4.346  1.00  0.00     0.012 C 
ENDBRANCH   5  11
BRANCH   7  18
HETATM   18  C12 UNL     1      44.040  14.532   0.189  1.00  0.00     0.256 C 
HETATM   19  O2  UNL     1      43.552  15.403   0.913  1.00  0.00    -0.267 OA
HETATM   20  N3  UNL     1      43.956  14.563  -1.191  1.00  0.00    -0.355 N 
ATOM     21  H3  UNL     1      44.376  13.755  -1.652  1.00  0.00     0.162 HD
BRANCH  20  22
HETATM   22  C13 UNL     1      43.393  15.509  -2.082  1.00  0.00     0.147 C 
BRANCH  22  23
HETATM   23  C14 UNL     1      44.293  16.266  -2.987  1.00  0.00     0.046 C 
HETATM   24  C15 UNL     1      44.902  17.500  -2.441  1.00  0.00     0.034 C 
HETATM   25  C16 UNL     1      43.562  16.570  -4.310  1.00  0.00     0.034 C 
HETATM   26 CL1  UNL     1      45.644  15.167  -3.473  1.00  0.00    -0.118 Cl
ENDBRANCH  22  23
ENDBRANCH  20  22
ENDBRANCH   7  18
BRANCH   1  27
HETATM   27  O1  UNL     1      46.843  10.283   2.473  1.00  0.00    -0.327 OA
HETATM   28  C1  UNL     1      47.653   9.506   1.616  1.00  0.00     0.213 C 
ENDBRANCH   1  27
TORSDOF 5
ENDMDL
MODEL 5
REMARK VINA RESULT: -6.765227136      0.977      1.201
REMARK  5 active torsions:
REMARK  status: ('A' for Active; 'I' for Inactive)
REMARK    1  A    between atoms: O1_2  and  C2_3 
REMARK    2  A    between atoms: N2_7  and  C4_9 
REMARK    3  A    between atoms: C11_16  and  C12_17 
REMARK       I    between atoms: C12_17  and  N3_19 
REMARK    4  A    between atoms: N3_19  and  C13_21 
REMARK    5  A    between atoms: C13_21  and  C14_22 
ROOT
HETATM    1  C2  UNL     1      44.604  11.169  -1.098  1.00  0.00     0.224 A 
HETATM    2  N1  UNL     1      44.423  12.425  -1.482  1.00  0.00    -0.307 N 
ATOM      3  H1  UNL     1      44.317  12.623  -2.477  1.00  0.00     0.171 HD
HETATM    4  C3  UNL     1      44.372  13.440  -0.619  1.00  0.00     0.121 A 
HETATM    5  N2  UNL     1      44.237  14.641  -0.878  1.00  0.00    -0.370 N 
ATOM      6  H2  UNL     1      44.234  15.142   0.010  1.00  0.00     0.161 HD
HETATM    7  C11 UNL     1      44.521  13.115   0.743  1.00  0.00     0.091 A 
HETATM    8  C17 UNL     1      44.706  11.812   1.087  1.00  0.00     0.112 A 
HETATM    9  N4  UNL     1      44.751  10.817   0.180  1.00  0.00    -0.331 N 
ATOM     10  H4  UNL     1      44.890   9.844   0.456  1.00  0.00     0.168 HD
ENDROOT
BRANCH   5  11
HETATM   11  C4  UNL     1      44.089  15.576  -1.872  1.00  0.00     0.086 C 
HETATM   12  C5  UNL     1      44.655  16.939  -1.371  1.00  0.00     0.025 C 
HETATM   13  C6  UNL     1      45.107  17.642  -2.606  1.00  0.00     0.002 C 
HETATM   14  C7  UNL     1      43.959  17.893  -3.536  1.00  0.00     0.001 C 
HETATM   15  C8  UNL     1      42.978  16.807  -3.654  1.00  0.00     0.006 C 
HETATM   16  C9  UNL     1      42.761  15.935  -2.431  1.00  0.00     0.004 C 
HETATM   17  C10 UNL     1      41.917  14.775  -2.909  1.00  0.00     0.012 C 
ENDBRANCH   5  11
BRANCH   7  18
HETATM   18  C12 UNL     1      44.435  14.221   1.749  1.00  0.00     0.256 C 
HETATM   19  O2  UNL     1      43.537  15.061   1.654  1.00  0.00    -0.267 OA
HETATM   20  N3  UNL     1      45.386  14.243   2.753  1.00  0.00    -0.355 N 
ATOM     21  H3  UNL     1      46.086  13.504   2.679  1.00  0.00     0.162 HD
BRANCH  20  22
HETATM   22  C13 UNL     1      45.568  15.102   3.864  1.00  0.00     0.147 C 
BRANCH  22  23
HETATM   23  C14 UNL     1      46.607  16.158   3.792  1.00  0.00     0.046 C 
HETATM   24  C15 UNL     1      47.991  15.713   3.509  1.00  0.00     0.034 C 
HETATM   25  C16 UNL     1      46.572  17.010   5.077  1.00  0.00     0.034 C 
HETATM   26 CL1  UNL     1      46.135  17.314   2.484  1.00  0.00    -0.118 Cl
ENDBRANCH  22  23
ENDBRANCH  20  22
ENDBRANCH   7  18
BRANCH   1  27
HETATM   27  O1  UNL     1      44.651  10.131  -2.040  1.00  0.00    -0.327 OA
HETATM   28  C1  UNL     1      44.384   8.819  -1.591  1.00  0.00     0.213 C 
ENDBRANCH   1  27
TORSDOF 5
ENDMDL
