MODEL 1
REMARK VINA RESULT: -6.218945851      0.000      0.000
REMARK  4 active torsions:
REMARK  status: ('A' for Active; 'I' for Inactive)
REMARK    1  A    between atoms: O1_1  and  C1_3 
REMARK    2  A    between atoms: C1_3  and  C2_4 
REMARK    3  A    between atoms: C5_9  and  N1_10 
REMARK    4  A    between atoms: C9_16  and  O4_17 
ROOT
HETATM    1  C2  UNL     1      -6.034   1.731  15.984  1.00  0.00     0.177 C 
HETATM    2  O2  UNL     1      -6.587   2.115  14.764  1.00  0.00    -0.369 OA
HETATM    3  C3  UNL     1      -5.559   2.732  14.104  1.00  0.00     0.203 C 
HETATM    4  C4  UNL     1      -4.274   2.045  14.470  1.00  0.00     0.189 C 
HETATM    5  O3  UNL     1      -4.151   1.527  13.204  1.00  0.00    -0.353 OA
HETATM    6  C5  UNL     1      -5.242   2.241  12.720  1.00  0.00     0.260 C 
HETATM    7  C9  UNL     1      -4.762   1.040  15.523  1.00  0.00     0.180 C 
ENDROOT
BRANCH   6   8
HETATM    8  N1  UNL     1      -4.864   3.350  11.867  1.00  0.00    -0.322 N 
HETATM    9  C6  UNL     1      -4.449   3.261  10.595  1.00  0.00     0.111 A 
HETATM   10  C7  UNL     1      -4.176   4.516  10.091  1.00  0.00     0.106 A 
HETATM   11  N2  UNL     1      -4.438   5.371  11.095  1.00  0.00    -0.361 N 
HETATM   12  C8  UNL     1      -4.852   4.664  12.161  1.00  0.00     0.184 A 
ATOM     13  H2  UNL     1      -4.338   6.385  11.054  1.00  0.00     0.166 HD
ENDBRANCH   6   8
BRANCH   1  14
HETATM   14  C1  UNL     1      -6.937   0.787  16.748  1.00  0.00     0.198 C 
BRANCH  14  15
HETATM   15  O1  UNL     1      -6.237  -0.398  16.942  1.00  0.00    -0.398 OA
ATOM     16  H1  UNL     1      -6.799  -0.986  17.433  1.00  0.00     0.209 HD
ENDBRANCH  14  15
ENDBRANCH   1  14
BRANCH   7  17
HETATM   17  O4  UNL     1      -3.841   0.908  16.536  1.00  0.00    -0.390 OA
ATOM     18  H4  UNL     1      -3.112   0.350  16.291  1.00  0.00     0.210 HD
ENDBRANCH   7  17
TORSDOF 4
ENDMDL
MODEL 2
REMARK VINA RESULT: -6.195650909      3.020      5.380
REMARK  4 active torsions:
REMARK  status: ('A' for Active; 'I' for Inactive)
REMARK    1  A    between atoms: O1_1  and  C1_3 
REMARK    2  A    between atoms: C1_3  and  C2_4 
REMARK    3  A    between atoms: C5_9  and  N1_10 
REMARK    4  A    between atoms: C9_16  and  O4_17 
ROOT
HETATM    1  C2  UNL     1      -3.912   0.876  12.101  1.00  0.00     0.177 C 
HETATM    2  O2  UNL     1      -3.685   1.613  13.262  1.00  0.00    -0.369 OA
HETATM    3  C3  UNL     1      -4.788   1.375  14.036  1.00  0.00     0.203 C 
HETATM    4  C4  UNL     1      -5.246  -0.035  13.796  1.00  0.00     0.189 C 
HETATM    5  O3  UNL     1      -4.861  -0.412  15.060  1.00  0.00    -0.353 OA
HETATM    6  C5  UNL     1      -4.548   0.891  15.438  1.00  0.00     0.260 C 
HETATM    7  C9  UNL     1      -4.287  -0.476  12.683  1.00  0.00     0.180 C 
ENDROOT
BRANCH   6   8
HETATM    8  N1  UNL     1      -5.520   1.470  16.343  1.00  0.00    -0.322 N 
HETATM    9  C6  UNL     1      -5.794   1.042  17.585  1.00  0.00     0.111 A 
HETATM   10  C7  UNL     1      -6.772   1.829  18.157  1.00  0.00     0.106 A 
HETATM   11  N2  UNL     1      -7.084   2.749  17.227  1.00  0.00    -0.361 N 
HETATM   12  C8  UNL     1      -6.327   2.528  16.138  1.00  0.00     0.184 A 
ATOM     13  H2  UNL     1      -7.779   3.489  17.330  1.00  0.00     0.166 HD
ENDBRANCH   6   8
BRANCH   1  14
HETATM   14  C1  UNL     1      -2.676   0.788  11.232  1.00  0.00     0.198 C 
BRANCH  14  15
HETATM   15  O1  UNL     1      -2.985  -0.022  10.145  1.00  0.00    -0.398 OA
ATOM     16  H1  UNL     1      -2.440   0.255   9.417  1.00  0.00     0.209 HD
ENDBRANCH  14  15
ENDBRANCH   1  14
BRANCH   7  17
HETATM   17  O4  UNL     1      -4.932  -1.277  11.770  1.00  0.00    -0.390 OA
ATOM     18  H4  UNL     1      -4.729  -2.197  11.889  1.00  0.00     0.210 HD
ENDBRANCH   7  17
TORSDOF 4
ENDMDL
MODEL 3
REMARK VINA RESULT: -6.098983640      1.261      1.405
REMARK  4 active torsions:
REMARK  status: ('A' for Active; 'I' for Inactive)
REMARK    1  A    between atoms: O1_1  and  C1_3 
REMARK    2  A    between atoms: C1_3  and  C2_4 
REMARK    3  A    between atoms: C5_9  and  N1_10 
REMARK    4  A    between atoms: C9_16  and  O4_17 
ROOT
HETATM    1  C2  UNL     1      -5.829   1.895  16.792  1.00  0.00     0.177 C 
HETATM    2  O2  UNL     1      -6.617   2.634  15.911  1.00  0.00    -0.369 OA
HETATM    3  C3  UNL     1      -5.716   3.337  15.158  1.00  0.00     0.203 C 
HETATM    4  C4  UNL     1      -4.489   2.492  14.966  1.00  0.00     0.189 C 
HETATM    5  O3  UNL     1      -4.766   2.331  13.630  1.00  0.00    -0.353 OA
HETATM    6  C5  UNL     1      -5.835   3.221  13.665  1.00  0.00     0.260 C 
HETATM    7  C9  UNL     1      -4.826   1.273  15.835  1.00  0.00     0.180 C 
ENDROOT
BRANCH   6   8
HETATM    8  N1  UNL     1      -5.537   4.493  13.037  1.00  0.00    -0.322 N 
HETATM    9  C6  UNL     1      -4.650   4.698  12.051  1.00  0.00     0.111 A 
HETATM   10  C7  UNL     1      -4.627   6.031  11.697  1.00  0.00     0.106 A 
HETATM   11  N2  UNL     1      -5.527   6.631  12.495  1.00  0.00    -0.361 N 
HETATM   12  C8  UNL     1      -6.072   5.700  13.299  1.00  0.00     0.184 A 
ATOM     13  H2  UNL     1      -5.757   7.625  12.492  1.00  0.00     0.166 HD
ENDBRANCH   6   8
BRANCH   1  14
HETATM   14  C1  UNL     1      -6.629   0.841  17.526  1.00  0.00     0.198 C 
BRANCH  14  15
HETATM   15  O1  UNL     1      -6.277  -0.395  16.999  1.00  0.00    -0.398 OA
ATOM     16  H1  UNL     1      -7.054  -0.942  17.006  1.00  0.00     0.209 HD
ENDBRANCH  14  15
ENDBRANCH   1  14
BRANCH   7  17
HETATM   17  O4  UNL     1      -3.705   0.809  16.483  1.00  0.00    -0.390 OA
ATOM     18  H4  UNL     1      -3.110   0.357  15.896  1.00  0.00     0.210 HD
ENDBRANCH   7  17
TORSDOF 4
ENDMDL
MODEL 4
REMARK VINA RESULT: -5.975991832      2.344      2.838
REMARK  4 active torsions:
REMARK  status: ('A' for Active; 'I' for Inactive)
REMARK    1  A    between atoms: O1_1  and  C1_3 
REMARK    2  A    between atoms: C1_3  and  C2_4 
REMARK    3  A    between atoms: C5_9  and  N1_10 
REMARK    4  A    between atoms: C9_16  and  O4_17 
ROOT
HETATM    1  C2  UNL     1      -5.838   2.263  16.067  1.00  0.00     0.177 C 
HETATM    2  O2  UNL     1      -5.890   2.379  14.679  1.00  0.00    -0.369 OA
HETATM    3  C3  UNL     1      -4.801   1.676  14.238  1.00  0.00     0.203 C 
HETATM    4  C4  UNL     1      -4.581   0.508  15.157  1.00  0.00     0.189 C 
HETATM    5  O3  UNL     1      -4.958  -0.377  14.176  1.00  0.00    -0.353 OA
HETATM    6  C5  UNL     1      -5.045   0.614  13.204  1.00  0.00     0.260 C 
HETATM    7  C9  UNL     1      -5.651   0.763  16.227  1.00  0.00     0.180 C 
ENDROOT
BRANCH   6   8
HETATM    8  N1  UNL     1      -3.951   0.578  12.254  1.00  0.00    -0.322 N 
HETATM    9  C6  UNL     1      -3.184   1.618  11.894  1.00  0.00     0.111 A 
HETATM   10  C7  UNL     1      -2.240   1.219  10.970  1.00  0.00     0.106 A 
HETATM   11  N2  UNL     1      -2.455  -0.094  10.779  1.00  0.00    -0.361 N 
HETATM   12  C8  UNL     1      -3.486  -0.475  11.555  1.00  0.00     0.184 A 
ATOM     13  H2  UNL     1      -1.926  -0.700  10.152  1.00  0.00     0.166 HD
ENDBRANCH   6   8
BRANCH   1  14
HETATM   14  C1  UNL     1      -7.114   2.740  16.726  1.00  0.00     0.198 C 
BRANCH  14  15
HETATM   15  O1  UNL     1      -7.733   1.632  17.292  1.00  0.00    -0.398 OA
ATOM     16  H1  UNL     1      -8.478   1.944  17.792  1.00  0.00     0.209 HD
ENDBRANCH  14  15
ENDBRANCH   1  14
BRANCH   7  17
HETATM   17  O4  UNL     1      -5.184   0.426  17.475  1.00  0.00    -0.390 OA
ATOM     18  H4  UNL     1      -4.541  -0.273  17.444  1.00  0.00     0.210 HD
ENDBRANCH   7  17
TORSDOF 4
ENDMDL
MODEL 5
REMARK VINA RESULT: -5.975839206      0.964      1.128
REMARK  4 active torsions:
REMARK  status: ('A' for Active; 'I' for Inactive)
REMARK    1  A    between atoms: O1_1  and  C1_3 
REMARK    2  A    between atoms: C1_3  and  C2_4 
REMARK    3  A    between atoms: C5_9  and  N1_10 
REMARK    4  A    between atoms: C9_16  and  O4_17 
ROOT
HETATM    1  C2  UNL     1      -6.143   1.810  15.663  1.00  0.00     0.177 C 
HETATM    2  O2  UNL     1      -6.473   2.094  14.339  1.00  0.00    -0.369 OA
HETATM    3  C3  UNL     1      -5.281   2.431  13.758  1.00  0.00     0.203 C 
HETATM    4  C4  UNL     1      -4.192   1.607  14.383  1.00  0.00     0.189 C 
HETATM    5  O3  UNL     1      -4.018   0.894  13.222  1.00  0.00    -0.353 OA
HETATM    6  C5  UNL     1      -4.899   1.696  12.504  1.00  0.00     0.260 C 
HETATM    7  C9  UNL     1      -4.971   0.861  15.475  1.00  0.00     0.180 C 
ENDROOT
BRANCH   6   8
HETATM    8  N1  UNL     1      -4.231   2.590  11.580  1.00  0.00    -0.322 N 
HETATM    9  C6  UNL     1      -4.826   3.503  10.797  1.00  0.00     0.111 A 
HETATM   10  C7  UNL     1      -3.884   4.177  10.047  1.00  0.00     0.106 A 
HETATM   11  N2  UNL     1      -2.699   3.648  10.398  1.00  0.00    -0.361 N 
HETATM   12  C8  UNL     1      -2.915   2.694  11.321  1.00  0.00     0.184 A 
ATOM     13  H2  UNL     1      -1.790   3.923  10.026  1.00  0.00     0.166 HD
ENDBRANCH   6   8
BRANCH   1  14
HETATM   14  C1  UNL     1      -7.284   1.149  16.405  1.00  0.00     0.198 C 
BRANCH  14  15
HETATM   15  O1  UNL     1      -6.801  -0.038  16.945  1.00  0.00    -0.398 OA
ATOM     16  H1  UNL     1      -7.239  -0.172  17.778  1.00  0.00     0.209 HD
ENDBRANCH  14  15
ENDBRANCH   1  14
BRANCH   7  17
HETATM   17  O4  UNL     1      -4.214   0.733  16.616  1.00  0.00    -0.390 OA
ATOM     18  H4  UNL     1      -3.949  -0.165  16.774  1.00  0.00     0.210 HD
ENDBRANCH   7  17
TORSDOF 4
ENDMDL
