MODEL 1
REMARK VINA RESULT: -6.847702760      0.000      0.000
REMARK  3 active torsions:
REMARK  status: ('A' for Active; 'I' for Inactive)
REMARK    1  A    between atoms: C6_8  and  N3_9 
REMARK    2  A    between atoms: C7_12  and  O3_13 
REMARK    3  A    between atoms: C8_15  and  O4_16 
ROOT
HETATM    1  N1  UNL     1      -3.646   6.348  15.037  1.00  0.00    -0.195 NA
HETATM    2  C1  UNL     1      -4.206   5.362  14.803  1.00  0.00     0.087 C 
HETATM    3  C2  UNL     1      -4.930   4.099  14.526  1.00  0.00     0.165 C 
HETATM    4  C3  UNL     1      -5.153   4.034  13.068  1.00  0.00     0.087 C 
HETATM    5  N2  UNL     1      -5.321   3.984  11.922  1.00  0.00    -0.195 NA
HETATM    6  C4  UNL     1      -6.234   4.163  15.218  1.00  0.00     0.045 C 
HETATM    7  C5  UNL     1      -6.886   2.885  15.552  1.00  0.00     0.037 C 
HETATM    8  C6  UNL     1      -5.994   1.683  15.548  1.00  0.00     0.187 C 
HETATM    9  C7  UNL     1      -4.619   2.132  16.013  1.00  0.00     0.178 C 
HETATM   10  C8  UNL     1      -4.039   2.978  14.912  1.00  0.00     0.186 C 
ENDROOT
BRANCH  10  11
HETATM   11  O4  UNL     1      -3.772   2.133  13.825  1.00  0.00    -0.390 OA
ATOM     12  H4  UNL     1      -3.844   1.217  14.067  1.00  0.00     0.210 HD
ENDBRANCH  10  11
BRANCH   9  13
HETATM   13  O3  UNL     1      -3.793   1.084  16.342  1.00  0.00    -0.391 OA
ATOM     14  H3  UNL     1      -3.785   0.895  17.274  1.00  0.00     0.210 HD
ENDBRANCH   9  13
BRANCH   8  15
HETATM   15  N3  UNL     1      -6.494   0.712  16.502  1.00  0.00    -0.148 N 
HETATM   16  O1  UNL     1      -6.023  -0.447  16.571  1.00  0.00    -0.536 OA
HETATM   17  O2  UNL     1      -7.517   1.039  17.375  1.00  0.00    -0.536 OA
ENDBRANCH   8  15
TORSDOF 3
ENDMDL
MODEL 2
REMARK VINA RESULT: -6.846280582      1.977      2.506
REMARK  3 active torsions:
REMARK  status: ('A' for Active; 'I' for Inactive)
REMARK    1  A    between atoms: C6_8  and  N3_9 
REMARK    2  A    between atoms: C7_12  and  O3_13 
REMARK    3  A    between atoms: C8_15  and  O4_16 
ROOT
HETATM    1  N1  UNL     1      -1.575   3.090  11.915  1.00  0.00    -0.195 NA
HETATM    2  C1  UNL     1      -2.615   3.051  12.423  1.00  0.00     0.087 C 
HETATM    3  C2  UNL     1      -3.936   2.992  13.092  1.00  0.00     0.165 C 
HETATM    4  C3  UNL     1      -4.791   4.018  12.462  1.00  0.00     0.087 C 
HETATM    5  N2  UNL     1      -5.461   4.821  11.962  1.00  0.00    -0.195 NA
HETATM    6  C4  UNL     1      -3.739   3.327  14.517  1.00  0.00     0.045 C 
HETATM    7  C5  UNL     1      -4.740   2.827  15.474  1.00  0.00     0.037 C 
HETATM    8  C6  UNL     1      -5.597   1.701  14.986  1.00  0.00     0.187 C 
HETATM    9  C7  UNL     1      -4.749   0.850  14.056  1.00  0.00     0.178 C 
HETATM   10  C8  UNL     1      -4.522   1.659  12.807  1.00  0.00     0.186 C 
ENDROOT
BRANCH  10  11
HETATM   11  O4  UNL     1      -5.752   1.767  12.143  1.00  0.00    -0.390 OA
ATOM     12  H4  UNL     1      -6.468   1.441  12.676  1.00  0.00     0.210 HD
ENDBRANCH  10  11
BRANCH   9  13
HETATM   13  O3  UNL     1      -5.314  -0.372  13.779  1.00  0.00    -0.391 OA
ATOM     14  H3  UNL     1      -4.880  -0.830  13.068  1.00  0.00     0.210 HD
ENDBRANCH   9  13
BRANCH   8  15
HETATM   15  N3  UNL     1      -5.993   0.876  16.112  1.00  0.00    -0.148 N 
HETATM   16  O1  UNL     1      -7.113   0.315  16.156  1.00  0.00    -0.536 OA
HETATM   17  O2  UNL     1      -5.137   0.680  17.181  1.00  0.00    -0.536 OA
ENDBRANCH   8  15
TORSDOF 3
ENDMDL
MODEL 3
REMARK VINA RESULT: -6.732875833      2.228      4.799
REMARK  3 active torsions:
REMARK  status: ('A' for Active; 'I' for Inactive)
REMARK    1  A    between atoms: C6_8  and  N3_9 
REMARK    2  A    between atoms: C7_12  and  O3_13 
REMARK    3  A    between atoms: C8_15  and  O4_16 
ROOT
HETATM    1  N1  UNL     1      -7.532   0.631  16.002  1.00  0.00    -0.195 NA
HETATM    2  C1  UNL     1      -6.667   1.301  15.619  1.00  0.00     0.087 C 
HETATM    3  C2  UNL     1      -5.578   2.173  15.121  1.00  0.00     0.165 C 
HETATM    4  C3  UNL     1      -4.365   1.842  15.895  1.00  0.00     0.087 C 
HETATM    5  N2  UNL     1      -3.413   1.575  16.501  1.00  0.00    -0.195 NA
HETATM    6  C4  UNL     1      -5.962   3.575  15.388  1.00  0.00     0.045 C 
HETATM    7  C5  UNL     1      -5.352   4.615  14.543  1.00  0.00     0.037 C 
HETATM    8  C6  UNL     1      -4.756   4.137  13.255  1.00  0.00     0.187 C 
HETATM    9  C7  UNL     1      -5.599   2.971  12.768  1.00  0.00     0.178 C 
HETATM   10  C8  UNL     1      -5.336   1.819  13.701  1.00  0.00     0.186 C 
ENDROOT
BRANCH  10  11
HETATM   11  O4  UNL     1      -4.015   1.397  13.492  1.00  0.00    -0.390 OA
ATOM     12  H4  UNL     1      -3.567   1.229  14.313  1.00  0.00     0.210 HD
ENDBRANCH  10  11
BRANCH   9  13
HETATM   13  O3  UNL     1      -5.346   2.635  11.458  1.00  0.00    -0.391 OA
ATOM     14  H3  UNL     1      -6.099   2.756  10.891  1.00  0.00     0.210 HD
ENDBRANCH   9  13
BRANCH   8  15
HETATM   15  N3  UNL     1      -4.840   5.194  12.266  1.00  0.00    -0.148 N 
HETATM   16  O1  UNL     1      -4.023   5.277  11.320  1.00  0.00    -0.536 OA
HETATM   17  O2  UNL     1      -5.834   6.154  12.338  1.00  0.00    -0.536 OA
ENDBRANCH   8  15
TORSDOF 3
ENDMDL
MODEL 4
REMARK VINA RESULT: -6.609334674      2.379      2.950
REMARK  3 active torsions:
REMARK  status: ('A' for Active; 'I' for Inactive)
REMARK    1  A    between atoms: C6_8  and  N3_9 
REMARK    2  A    between atoms: C7_12  and  O3_13 
REMARK    3  A    between atoms: C8_15  and  O4_16 
ROOT
HETATM    1  N1  UNL     1      -1.286   2.265  11.528  1.00  0.00    -0.195 NA
HETATM    2  C1  UNL     1      -2.379   2.388  11.890  1.00  0.00     0.087 C 
HETATM    3  C2  UNL     1      -3.771   2.542  12.377  1.00  0.00     0.165 C 
HETATM    4  C3  UNL     1      -4.511   3.300  11.348  1.00  0.00     0.087 C 
HETATM    5  N2  UNL     1      -5.091   3.890  10.537  1.00  0.00    -0.195 NA
HETATM    6  C4  UNL     1      -3.730   3.326  13.628  1.00  0.00     0.045 C 
HETATM    7  C5  UNL     1      -4.852   3.160  14.567  1.00  0.00     0.037 C 
HETATM    8  C6  UNL     1      -5.684   1.930  14.371  1.00  0.00     0.187 C 
HETATM    9  C7  UNL     1      -4.762   0.828  13.880  1.00  0.00     0.178 C 
HETATM   10  C8  UNL     1      -4.363   1.185  12.473  1.00  0.00     0.186 C 
ENDROOT
BRANCH  10  11
HETATM   11  O4  UNL     1      -5.503   1.061  11.665  1.00  0.00    -0.390 OA
ATOM     12  H4  UNL     1      -5.945   0.232  11.808  1.00  0.00     0.210 HD
ENDBRANCH  10  11
BRANCH   9  13
HETATM   13  O3  UNL     1      -5.331  -0.421  13.949  1.00  0.00    -0.391 OA
ATOM     14  H3  UNL     1      -6.278  -0.403  13.867  1.00  0.00     0.210 HD
ENDBRANCH   9  13
BRANCH   8  15
HETATM   15  N3  UNL     1      -6.236   1.517  15.648  1.00  0.00    -0.148 N 
HETATM   16  O1  UNL     1      -5.758   1.918  16.734  1.00  0.00    -0.536 OA
HETATM   17  O2  UNL     1      -7.319   0.657  15.705  1.00  0.00    -0.536 OA
ENDBRANCH   8  15
TORSDOF 3
ENDMDL
MODEL 5
REMARK VINA RESULT: -6.577944346      1.891      2.737
REMARK  3 active torsions:
REMARK  status: ('A' for Active; 'I' for Inactive)
REMARK    1  A    between atoms: C6_8  and  N3_9 
REMARK    2  A    between atoms: C7_12  and  O3_13 
REMARK    3  A    between atoms: C8_15  and  O4_16 
ROOT
HETATM    1  N1  UNL     1      -3.647   3.952  10.585  1.00  0.00    -0.195 NA
HETATM    2  C1  UNL     1      -4.115   3.921  11.644  1.00  0.00     0.087 C 
HETATM    3  C2  UNL     1      -4.694   3.870  13.007  1.00  0.00     0.165 C 
HETATM    4  C3  UNL     1      -5.614   5.018  13.134  1.00  0.00     0.087 C 
HETATM    5  N2  UNL     1      -6.339   5.917  13.229  1.00  0.00    -0.195 NA
HETATM    6  C4  UNL     1      -3.589   4.018  13.976  1.00  0.00     0.045 C 
HETATM    7  C5  UNL     1      -3.798   3.475  15.328  1.00  0.00     0.037 C 
HETATM    8  C6  UNL     1      -4.904   2.474  15.461  1.00  0.00     0.187 C 
HETATM    9  C7  UNL     1      -4.965   1.687  14.163  1.00  0.00     0.178 C 
HETATM   10  C8  UNL     1      -5.490   2.622  13.107  1.00  0.00     0.186 C 
ENDROOT
BRANCH  10  11
HETATM   11  O4  UNL     1      -6.834   2.889  13.408  1.00  0.00    -0.390 OA
ATOM     12  H4  UNL     1      -6.991   2.879  14.345  1.00  0.00     0.210 HD
ENDBRANCH  10  11
BRANCH   9  13
HETATM   13  O3  UNL     1      -5.727   0.547  14.261  1.00  0.00    -0.391 OA
ATOM     14  H3  UNL     1      -5.449  -0.027  14.966  1.00  0.00     0.210 HD
ENDBRANCH   9  13
BRANCH   8  15
HETATM   15  N3  UNL     1      -4.587   1.549  16.532  1.00  0.00    -0.148 N 
HETATM   16  O1  UNL     1      -3.617   0.760  16.456  1.00  0.00    -0.536 OA
HETATM   17  O2  UNL     1      -5.355   1.510  17.683  1.00  0.00    -0.536 OA
ENDBRANCH   8  15
TORSDOF 3
ENDMDL
