MODEL 1
REMARK VINA RESULT: -6.139794177      0.000      0.000
REMARK  3 active torsions:
REMARK  status: ('A' for Active; 'I' for Inactive)
REMARK    1  A    between atoms: C2_2  and  C4_4 
REMARK    2  A    between atoms: C4_4  and  O1_5 
REMARK    3  A    between atoms: O1_5  and  C5_6 
ROOT
HETATM    1  C4  UNL     1      62.568  83.978  14.677  1.00  0.00     0.104 C 
HETATM    2  C6  UNL     1      61.032  83.962  14.787  1.00  0.00     0.042 C 
HETATM    3  C7  UNL     1      60.648  82.933  13.738  1.00  0.00     0.006 C 
HETATM    4  C8  UNL     1      61.917  82.554  13.002  1.00  0.00     0.040 C 
HETATM    5  C9  UNL     1      62.725  83.852  13.210  1.00  0.00     0.205 C 
HETATM    6  F1  UNL     1      61.957  84.781  12.500  1.00  0.00    -0.246 F 
ENDROOT
BRANCH   1   7
HETATM    7  C2  UNL     1      63.069  85.169  15.349  1.00  0.00     0.016 C 
HETATM    8  C1  UNL     1      64.173  85.919  14.700  1.00  0.00     0.012 C 
HETATM    9  C3  UNL     1      61.897  86.155  15.486  1.00  0.00     0.012 C 
ENDBRANCH   1   7
BRANCH   1  10
HETATM   10  O1  UNL     1      62.983  82.819  15.347  1.00  0.00    -0.310 OA
BRANCH  10  11
HETATM   11  C5  UNL     1      63.531  82.774  16.611  1.00  0.00     0.226 C 
HETATM   12  N1  UNL     1      62.750  82.417  17.571  1.00  0.00    -0.368 N 
ATOM     13  H12 UNL     1      61.780  82.190  17.353  1.00  0.00     0.159 HD
ATOM     14  H11 UNL     1      63.156  82.384  18.506  1.00  0.00     0.159 HD
HETATM   15  N2  UNL     1      64.871  83.089  16.911  1.00  0.00    -0.057 NA
ENDBRANCH  10  11
ENDBRANCH   1  10
TORSDOF 3
ENDMDL
MODEL 2
REMARK VINA RESULT: -5.863784801      1.043      2.958
REMARK  3 active torsions:
REMARK  status: ('A' for Active; 'I' for Inactive)
REMARK    1  A    between atoms: C2_2  and  C4_4 
REMARK    2  A    between atoms: C4_4  and  O1_5 
REMARK    3  A    between atoms: O1_5  and  C5_6 
ROOT
HETATM    1  C4  UNL     1      62.372  84.457  15.078  1.00  0.00     0.104 C 
HETATM    2  C6  UNL     1      63.551  85.189  14.411  1.00  0.00     0.042 C 
HETATM    3  C7  UNL     1      63.436  86.583  15.002  1.00  0.00     0.006 C 
HETATM    4  C8  UNL     1      62.155  86.619  15.812  1.00  0.00     0.040 C 
HETATM    5  C9  UNL     1      61.355  85.534  15.062  1.00  0.00     0.205 C 
HETATM    6  F1  UNL     1      61.201  86.116  13.799  1.00  0.00    -0.246 F 
ENDROOT
BRANCH   1   7
HETATM    7  C2  UNL     1      62.117  83.224  14.348  1.00  0.00     0.016 C 
HETATM    8  C1  UNL     1      60.719  82.732  14.282  1.00  0.00     0.012 C 
HETATM    9  C3  UNL     1      62.568  83.443  12.893  1.00  0.00     0.012 C 
ENDBRANCH   1   7
BRANCH   1  10
HETATM   10  O1  UNL     1      62.817  84.180  16.378  1.00  0.00    -0.310 OA
BRANCH  10  11
HETATM   11  C5  UNL     1      63.610  83.115  16.746  1.00  0.00     0.226 C 
HETATM   12  N1  UNL     1      63.007  82.071  17.201  1.00  0.00    -0.368 N 
ATOM     13  H12 UNL     1      61.989  82.084  17.267  1.00  0.00     0.159 HD
ATOM     14  H11 UNL     1      63.594  81.283  17.473  1.00  0.00     0.159 HD
HETATM   15  N2  UNL     1      65.015  83.098  16.655  1.00  0.00    -0.057 NA
ENDBRANCH  10  11
ENDBRANCH   1  10
TORSDOF 3
ENDMDL
MODEL 3
REMARK VINA RESULT: -5.697944271      2.361      2.951
REMARK  3 active torsions:
REMARK  status: ('A' for Active; 'I' for Inactive)
REMARK    1  A    between atoms: C2_2  and  C4_4 
REMARK    2  A    between atoms: C4_4  and  O1_5 
REMARK    3  A    between atoms: O1_5  and  C5_6 
ROOT
HETATM    1  C4  UNL     1      62.627  84.437  14.489  1.00  0.00     0.104 C 
HETATM    2  C6  UNL     1      62.157  84.357  13.024  1.00  0.00     0.042 C 
HETATM    3  C7  UNL     1      60.792  83.707  13.163  1.00  0.00     0.006 C 
HETATM    4  C8  UNL     1      60.631  83.315  14.618  1.00  0.00     0.040 C 
HETATM    5  C9  UNL     1      62.117  83.143  14.997  1.00  0.00     0.205 C 
HETATM    6  F1  UNL     1      62.491  82.059  14.194  1.00  0.00    -0.246 F 
ENDROOT
BRANCH   1   7
HETATM    7  C2  UNL     1      64.060  84.696  14.504  1.00  0.00     0.016 C 
HETATM    8  C1  UNL     1      64.917  83.806  15.327  1.00  0.00     0.012 C 
HETATM    9  C3  UNL     1      64.571  84.573  13.058  1.00  0.00     0.012 C 
ENDBRANCH   1   7
BRANCH   1  10
HETATM   10  O1  UNL     1      61.922  85.522  15.028  1.00  0.00    -0.310 OA
BRANCH  10  11
HETATM   11  C5  UNL     1      62.348  86.321  16.067  1.00  0.00     0.226 C 
HETATM   12  N1  UNL     1      62.415  87.587  15.837  1.00  0.00    -0.368 N 
ATOM     13  H12 UNL     1      62.155  87.931  14.913  1.00  0.00     0.159 HD
ATOM     14  H11 UNL     1      62.730  88.178  16.606  1.00  0.00     0.159 HD
HETATM   15  N2  UNL     1      62.707  85.846  17.343  1.00  0.00    -0.057 NA
ENDBRANCH  10  11
ENDBRANCH   1  10
TORSDOF 3
ENDMDL
MODEL 4
REMARK VINA RESULT: -5.662682293      1.091      2.619
REMARK  3 active torsions:
REMARK  status: ('A' for Active; 'I' for Inactive)
REMARK    1  A    between atoms: C2_2  and  C4_4 
REMARK    2  A    between atoms: C4_4  and  O1_5 
REMARK    3  A    between atoms: O1_5  and  C5_6 
ROOT
HETATM    1  C4  UNL     1      62.660  84.082  14.667  1.00  0.00     0.104 C 
HETATM    2  C6  UNL     1      63.080  84.025  13.186  1.00  0.00     0.042 C 
HETATM    3  C7  UNL     1      64.537  84.448  13.252  1.00  0.00     0.006 C 
HETATM    4  C8  UNL     1      64.815  84.866  14.682  1.00  0.00     0.040 C 
HETATM    5  C9  UNL     1      63.392  85.295  15.098  1.00  0.00     0.205 C 
HETATM    6  F1  UNL     1      63.169  86.392  14.259  1.00  0.00    -0.246 F 
ENDROOT
BRANCH   1   7
HETATM    7  C2  UNL     1      61.205  84.063  14.738  1.00  0.00     0.016 C 
HETATM    8  C1  UNL     1      60.465  85.182  14.104  1.00  0.00     0.012 C 
HETATM    9  C3  UNL     1      60.722  82.777  14.047  1.00  0.00     0.012 C 
ENDBRANCH   1   7
BRANCH   1  10
HETATM   10  O1  UNL     1      63.198  82.919  15.233  1.00  0.00    -0.310 OA
BRANCH  10  11
HETATM   11  C5  UNL     1      63.465  82.725  16.571  1.00  0.00     0.226 C 
HETATM   12  N1  UNL     1      62.509  82.245  17.290  1.00  0.00    -0.368 N 
ATOM     13  H12 UNL     1      61.617  82.037  16.842  1.00  0.00     0.159 HD
ATOM     14  H11 UNL     1      62.707  82.102  18.280  1.00  0.00     0.159 HD
HETATM   15  N2  UNL     1      64.697  83.012  17.189  1.00  0.00    -0.057 NA
ENDBRANCH  10  11
ENDBRANCH   1  10
TORSDOF 3
ENDMDL
MODEL 5
REMARK VINA RESULT: -5.510663125      2.606      3.620
REMARK  3 active torsions:
REMARK  status: ('A' for Active; 'I' for Inactive)
REMARK    1  A    between atoms: C2_2  and  C4_4 
REMARK    2  A    between atoms: C4_4  and  O1_5 
REMARK    3  A    between atoms: O1_5  and  C5_6 
ROOT
HETATM    1  C4  UNL     1      63.035  83.934  15.216  1.00  0.00     0.104 C 
HETATM    2  C6  UNL     1      64.566  83.858  15.358  1.00  0.00     0.042 C 
HETATM    3  C7  UNL     1      64.736  82.754  16.387  1.00  0.00     0.006 C 
HETATM    4  C8  UNL     1      63.351  82.388  16.879  1.00  0.00     0.040 C 
HETATM    5  C9  UNL     1      62.632  83.729  16.626  1.00  0.00     0.205 C 
HETATM    6  F1  UNL     1      63.301  84.582  17.511  1.00  0.00    -0.246 F 
ENDROOT
BRANCH   1   7
HETATM    7  C2  UNL     1      62.691  85.182  14.549  1.00  0.00     0.016 C 
HETATM    8  C1  UNL     1      62.376  86.358  15.397  1.00  0.00     0.012 C 
HETATM    9  C3  UNL     1      63.890  85.588  13.674  1.00  0.00     0.012 C 
ENDBRANCH   1   7
BRANCH   1  10
HETATM   10  O1  UNL     1      62.700  82.835  14.413  1.00  0.00    -0.310 OA
BRANCH  10  11
HETATM   11  C5  UNL     1      61.707  82.810  13.457  1.00  0.00     0.226 C 
HETATM   12  N1  UNL     1      60.492  82.763  13.883  1.00  0.00    -0.368 N 
ATOM     13  H12 UNL     1      60.326  82.745  14.889  1.00  0.00     0.159 HD
ATOM     14  H11 UNL     1      59.757  82.745  13.175  1.00  0.00     0.159 HD
HETATM   15  N2  UNL     1      61.936  82.835  12.068  1.00  0.00    -0.057 NA
ENDBRANCH  10  11
ENDBRANCH   1  10
TORSDOF 3
ENDMDL
