MODEL 1
REMARK VINA RESULT: -5.078289530      0.000      0.000
REMARK  3 active torsions:
REMARK  status: ('A' for Active; 'I' for Inactive)
REMARK    1  A    between atoms: C2_2  and  C3_3 
REMARK    2  A    between atoms: C2_2  and  N1_5 
REMARK    3  A    between atoms: N1_5  and  C4_7 
ROOT
HETATM    1  C4  UNL     1      61.654  83.196  14.312  1.00  0.00     0.081 C 
HETATM    2  C5  UNL     1      61.159  84.547  14.665  1.00  0.00     0.025 C 
HETATM    3  C6  UNL     1      60.382  85.260  13.575  1.00  0.00     0.002 C 
HETATM    4  C7  UNL     1      61.043  85.145  12.228  1.00  0.00     0.000 C 
HETATM    5  C8  UNL     1      61.061  83.633  11.935  1.00  0.00     0.002 C 
HETATM    6  C9  UNL     1      62.116  83.083  12.837  1.00  0.00     0.025 C 
ENDROOT
BRANCH   1   7
HETATM    7  N1  UNL     1      62.718  82.760  15.079  1.00  0.00    -0.391 N 
ATOM      8  H1  UNL     1      62.841  81.748  15.116  1.00  0.00     0.159 HD
BRANCH   7   9
HETATM    9  C2  UNL     1      63.630  83.483  15.796  1.00  0.00    -0.012 C 
HETATM   10  C1  UNL     1      64.895  83.971  15.150  1.00  0.00     0.064 C 
BRANCH   9  11
HETATM   11  C3  UNL     1      63.708  83.241  17.265  1.00  0.00     0.137 C 
HETATM   12  S1  UNL     1      62.541  82.092  17.966  1.00  0.00    -0.092 SA
ENDBRANCH   9  11
ENDBRANCH   7   9
ENDBRANCH   1   7
TORSDOF 3
ENDMDL
MODEL 2
REMARK VINA RESULT: -4.933836855      1.583      2.322
REMARK  3 active torsions:
REMARK  status: ('A' for Active; 'I' for Inactive)
REMARK    1  A    between atoms: C2_2  and  C3_3 
REMARK    2  A    between atoms: C2_2  and  N1_5 
REMARK    3  A    between atoms: N1_5  and  C4_7 
ROOT
HETATM    1  C4  UNL     1      62.777  85.139  13.924  1.00  0.00     0.081 C 
HETATM    2  C5  UNL     1      63.142  83.872  13.247  1.00  0.00     0.025 C 
HETATM    3  C6  UNL     1      62.102  83.325  12.289  1.00  0.00     0.002 C 
HETATM    4  C7  UNL     1      60.710  83.374  12.860  1.00  0.00     0.000 C 
HETATM    5  C8  UNL     1      60.444  84.873  13.097  1.00  0.00     0.002 C 
HETATM    6  C9  UNL     1      61.273  85.222  14.289  1.00  0.00     0.025 C 
ENDROOT
BRANCH   1   7
HETATM    7  N1  UNL     1      63.468  85.378  15.097  1.00  0.00    -0.391 N 
ATOM      8  H1  UNL     1      64.322  85.925  14.993  1.00  0.00     0.159 HD
BRANCH   7   9
HETATM    9  C2  UNL     1      63.178  84.990  16.375  1.00  0.00    -0.012 C 
HETATM   10  C1  UNL     1      62.761  86.002  17.404  1.00  0.00     0.064 C 
BRANCH   9  11
HETATM   11  C3  UNL     1      63.862  83.776  16.904  1.00  0.00     0.137 C 
HETATM   12  S1  UNL     1      62.839  82.373  17.304  1.00  0.00    -0.092 SA
ENDBRANCH   9  11
ENDBRANCH   7   9
ENDBRANCH   1   7
TORSDOF 3
ENDMDL
MODEL 3
REMARK VINA RESULT: -4.820119192      1.277      2.013
REMARK  3 active torsions:
REMARK  status: ('A' for Active; 'I' for Inactive)
REMARK    1  A    between atoms: C2_2  and  C3_3 
REMARK    2  A    between atoms: C2_2  and  N1_5 
REMARK    3  A    between atoms: N1_5  and  C4_7 
ROOT
HETATM    1  C4  UNL     1      62.817  85.132  13.987  1.00  0.00     0.081 C 
HETATM    2  C5  UNL     1      63.128  83.883  13.252  1.00  0.00     0.025 C 
HETATM    3  C6  UNL     1      62.042  83.393  12.314  1.00  0.00     0.002 C 
HETATM    4  C7  UNL     1      60.674  83.451  12.938  1.00  0.00     0.000 C 
HETATM    5  C8  UNL     1      60.450  84.946  13.238  1.00  0.00     0.002 C 
HETATM    6  C9  UNL     1      61.329  85.233  14.411  1.00  0.00     0.025 C 
ENDROOT
BRANCH   1   7
HETATM    7  N1  UNL     1      63.555  85.312  15.142  1.00  0.00    -0.391 N 
ATOM      8  H1  UNL     1      63.783  86.281  15.363  1.00  0.00     0.159 HD
BRANCH   7   9
HETATM    9  C2  UNL     1      64.025  84.387  16.031  1.00  0.00    -0.012 C 
HETATM   10  C1  UNL     1      65.010  83.340  15.594  1.00  0.00     0.064 C 
BRANCH   9  11
HETATM   11  C3  UNL     1      63.142  84.006  17.169  1.00  0.00     0.137 C 
HETATM   12  S1  UNL     1      62.792  82.273  17.387  1.00  0.00    -0.092 SA
ENDBRANCH   9  11
ENDBRANCH   7   9
ENDBRANCH   1   7
TORSDOF 3
ENDMDL
MODEL 4
REMARK VINA RESULT: -4.777967539      1.541      1.876
REMARK  3 active torsions:
REMARK  status: ('A' for Active; 'I' for Inactive)
REMARK    1  A    between atoms: C2_2  and  C3_3 
REMARK    2  A    between atoms: C2_2  and  N1_5 
REMARK    3  A    between atoms: N1_5  and  C4_7 
ROOT
HETATM    1  C4  UNL     1      61.643  82.863  14.593  1.00  0.00     0.081 C 
HETATM    2  C5  UNL     1      61.412  84.257  15.040  1.00  0.00     0.025 C 
HETATM    3  C6  UNL     1      60.616  85.123  14.083  1.00  0.00     0.002 C 
HETATM    4  C7  UNL     1      61.067  84.968  12.656  1.00  0.00     0.000 C 
HETATM    5  C8  UNL     1      60.814  83.484  12.330  1.00  0.00     0.002 C 
HETATM    6  C9  UNL     1      61.882  82.746  13.066  1.00  0.00     0.025 C 
ENDROOT
BRANCH   1   7
HETATM    7  N1  UNL     1      62.720  82.242  15.197  1.00  0.00    -0.391 N 
ATOM      8  H1  UNL     1      63.156  81.500  14.648  1.00  0.00     0.159 HD
BRANCH   7   9
HETATM    9  C2  UNL     1      63.288  82.472  16.418  1.00  0.00    -0.012 C 
HETATM   10  C1  UNL     1      62.515  82.217  17.680  1.00  0.00     0.064 C 
BRANCH   9  11
HETATM   11  C3  UNL     1      64.340  83.525  16.507  1.00  0.00     0.137 C 
HETATM   12  S1  UNL     1      64.968  84.183  14.975  1.00  0.00    -0.092 SA
ENDBRANCH   9  11
ENDBRANCH   7   9
ENDBRANCH   1   7
TORSDOF 3
ENDMDL
MODEL 5
REMARK VINA RESULT: -4.571829317      0.916      1.233
REMARK  3 active torsions:
REMARK  status: ('A' for Active; 'I' for Inactive)
REMARK    1  A    between atoms: C2_2  and  C3_3 
REMARK    2  A    between atoms: C2_2  and  N1_5 
REMARK    3  A    between atoms: N1_5  and  C4_7 
ROOT
HETATM    1  C4  UNL     1      61.660  84.375  14.918  1.00  0.00     0.081 C 
HETATM    2  C5  UNL     1      61.627  85.439  13.888  1.00  0.00     0.025 C 
HETATM    3  C6  UNL     1      60.931  85.069  12.592  1.00  0.00     0.002 C 
HETATM    4  C7  UNL     1      61.325  83.703  12.098  1.00  0.00     0.000 C 
HETATM    5  C8  UNL     1      60.868  82.743  13.214  1.00  0.00     0.002 C 
HETATM    6  C9  UNL     1      61.846  82.956  14.322  1.00  0.00     0.025 C 
ENDROOT
BRANCH   1   7
HETATM    7  N1  UNL     1      62.659  84.526  15.862  1.00  0.00    -0.391 N 
ATOM      8  H1  UNL     1      62.444  85.174  16.620  1.00  0.00     0.159 HD
BRANCH   7   9
HETATM    9  C2  UNL     1      63.890  83.938  15.931  1.00  0.00    -0.012 C 
HETATM   10  C1  UNL     1      64.919  84.193  14.866  1.00  0.00     0.064 C 
BRANCH   9  11
HETATM   11  C3  UNL     1      63.994  82.624  16.626  1.00  0.00     0.137 C 
HETATM   12  S1  UNL     1      62.715  82.216  17.797  1.00  0.00    -0.092 SA
ENDBRANCH   9  11
ENDBRANCH   7   9
ENDBRANCH   1   7
TORSDOF 3
ENDMDL
