MODEL 1
REMARK VINA RESULT: -8.289567697      0.000      0.000
REMARK  9 active torsions:
REMARK  status: ('A' for Active; 'I' for Inactive)
REMARK    1  A    between atoms: C1_2  and  C2_3 
REMARK    2  A    between atoms: C3_4  and  C4_5 
REMARK    3  A    between atoms: C5_6  and  C6_7 
REMARK    4  A    between atoms: C7_8  and  N1_9 
REMARK    5  A    between atoms: C11_15  and  O2_16 
REMARK    6  A    between atoms: O2_16  and  C12_17 
REMARK    7  A    between atoms: C12_17  and  C13_18 
REMARK    8  A    between atoms: C13_18  and  C14_19 
REMARK    9  A    between atoms: C14_19  and  S1_20 
ROOT
HETATM    1  N1  UNL     1      29.550  20.296  11.513  1.00  0.00    -0.299 N 
HETATM    2  C8  UNL     1      30.603  19.508  11.314  1.00  0.00     0.101 A 
HETATM    3  C9  UNL     1      30.545  18.119  11.438  1.00  0.00     0.035 A 
HETATM    4  C10 UNL     1      29.352  17.544  11.776  1.00  0.00     0.093 A 
HETATM    5  N2  UNL     1      28.297  18.333  11.974  1.00  0.00    -0.332 N 
ATOM      6  H2  UNL     1      27.406  17.904  12.227  1.00  0.00     0.168 HD
HETATM    7  C11 UNL     1      28.355  19.665  11.856  1.00  0.00     0.229 A 
ENDROOT
BRANCH   1   8
HETATM    8  C7  UNL     1      29.501  21.695  11.416  1.00  0.00     0.100 C 
HETATM    9  C6  UNL     1      30.160  22.562  10.758  1.00  0.00     0.018 C 
BRANCH   9  10
HETATM   10  C5  UNL     1      31.223  22.494   9.842  1.00  0.00     0.001 C 
HETATM   11  C4  UNL     1      30.986  21.976   8.596  1.00  0.00     0.000 C 
BRANCH  11  12
HETATM   12  C3  UNL     1      32.033  21.876   7.604  1.00  0.00     0.003 C 
HETATM   13  C2  UNL     1      32.728  20.765   7.504  1.00  0.00     0.041 C 
BRANCH  13  14
HETATM   14  C1  UNL     1      33.773  20.683   6.504  1.00  0.00     0.258 C 
HETATM   15  O1  UNL     1      34.194  19.561   6.110  1.00  0.00    -0.302 OA
ENDBRANCH  13  14
ENDBRANCH  11  12
ENDBRANCH   9  10
ENDBRANCH   1   8
BRANCH   7  16
HETATM   16  O2  UNL     1      27.244  20.436  12.070  1.00  0.00    -0.322 OA
BRANCH  16  17
HETATM   17  C12 UNL     1      26.088  20.032  12.705  1.00  0.00     0.180 C 
BRANCH  17  18
HETATM   18  C13 UNL     1      26.175  20.175  14.195  1.00  0.00     0.043 C 
BRANCH  18  19
HETATM   19  C14 UNL     1      25.793  18.807  14.794  1.00  0.00     0.159 C 
BRANCH  19  20
HETATM   20  S1  UNL     1      27.233  18.168  15.604  1.00  0.00     0.250 S 
HETATM   21  O3  UNL     1      26.735  17.511  17.077  1.00  0.00    -0.212 OA
HETATM   22  O4  UNL     1      27.830  16.906  14.648  1.00  0.00    -0.212 OA
ENDBRANCH  19  20
ENDBRANCH  18  19
ENDBRANCH  17  18
ENDBRANCH  16  17
ENDBRANCH   7  16
TORSDOF 9
ENDMDL
MODEL 2
REMARK VINA RESULT: -8.057076200      3.565      6.795
REMARK  9 active torsions:
REMARK  status: ('A' for Active; 'I' for Inactive)
REMARK    1  A    between atoms: C1_2  and  C2_3 
REMARK    2  A    between atoms: C3_4  and  C4_5 
REMARK    3  A    between atoms: C5_6  and  C6_7 
REMARK    4  A    between atoms: C7_8  and  N1_9 
REMARK    5  A    between atoms: C11_15  and  O2_16 
REMARK    6  A    between atoms: O2_16  and  C12_17 
REMARK    7  A    between atoms: C12_17  and  C13_18 
REMARK    8  A    between atoms: C13_18  and  C14_19 
REMARK    9  A    between atoms: C14_19  and  S1_20 
ROOT
HETATM    1  N1  UNL     1      28.358  19.436  11.932  1.00  0.00    -0.299 N 
HETATM    2  C8  UNL     1      28.671  18.143  11.944  1.00  0.00     0.101 A 
HETATM    3  C9  UNL     1      29.960  17.673  11.689  1.00  0.00     0.035 A 
HETATM    4  C10 UNL     1      30.944  18.582  11.417  1.00  0.00     0.093 A 
HETATM    5  N2  UNL     1      30.630  19.877  11.406  1.00  0.00    -0.332 N 
ATOM      6  H2  UNL     1      31.365  20.556  11.203  1.00  0.00     0.168 HD
HETATM    7  C11 UNL     1      29.394  20.325  11.650  1.00  0.00     0.229 A 
ENDROOT
BRANCH   1   8
HETATM    8  C7  UNL     1      27.100  20.010  12.172  1.00  0.00     0.100 C 
HETATM    9  C6  UNL     1      26.442  20.296  13.222  1.00  0.00     0.018 C 
BRANCH   9  10
HETATM   10  C5  UNL     1      26.687  20.158  14.598  1.00  0.00     0.001 C 
HETATM   11  C4  UNL     1      27.767  19.419  15.003  1.00  0.00     0.000 C 
BRANCH  11  12
HETATM   12  C3  UNL     1      28.078  19.235  16.403  1.00  0.00     0.003 C 
HETATM   13  C2  UNL     1      29.155  19.794  16.908  1.00  0.00     0.041 C 
BRANCH  13  14
HETATM   14  C1  UNL     1      29.451  19.599  18.312  1.00  0.00     0.258 C 
HETATM   15  O1  UNL     1      28.630  19.005  19.063  1.00  0.00    -0.302 OA
ENDBRANCH  13  14
ENDBRANCH  11  12
ENDBRANCH   9  10
ENDBRANCH   1   8
BRANCH   7  16
HETATM   16  O2  UNL     1      29.117  21.666  11.627  1.00  0.00    -0.322 OA
BRANCH  16  17
HETATM   17  C12 UNL     1      29.785  22.642  12.339  1.00  0.00     0.180 C 
BRANCH  17  18
HETATM   18  C13 UNL     1      29.412  22.644  13.791  1.00  0.00     0.043 C 
BRANCH  18  19
HETATM   19  C14 UNL     1      30.214  23.784  14.451  1.00  0.00     0.159 C 
BRANCH  19  20
HETATM   20  S1  UNL     1      31.704  23.074  15.093  1.00  0.00     0.250 S 
HETATM   21  O3  UNL     1      31.575  21.398  14.935  1.00  0.00    -0.212 OA
HETATM   22  O4  UNL     1      32.976  23.593  14.105  1.00  0.00    -0.212 OA
ENDBRANCH  19  20
ENDBRANCH  18  19
ENDBRANCH  17  18
ENDBRANCH  16  17
ENDBRANCH   7  16
TORSDOF 9
ENDMDL
MODEL 3
REMARK VINA RESULT: -7.943105577      2.757      4.298
REMARK  9 active torsions:
REMARK  status: ('A' for Active; 'I' for Inactive)
REMARK    1  A    between atoms: C1_2  and  C2_3 
REMARK    2  A    between atoms: C3_4  and  C4_5 
REMARK    3  A    between atoms: C5_6  and  C6_7 
REMARK    4  A    between atoms: C7_8  and  N1_9 
REMARK    5  A    between atoms: C11_15  and  O2_16 
REMARK    6  A    between atoms: O2_16  and  C12_17 
REMARK    7  A    between atoms: C12_17  and  C13_18 
REMARK    8  A    between atoms: C13_18  and  C14_19 
REMARK    9  A    between atoms: C14_19  and  S1_20 
ROOT
HETATM    1  N1  UNL     1      29.737  20.229  11.086  1.00  0.00    -0.299 N 
HETATM    2  C8  UNL     1      30.810  19.443  11.057  1.00  0.00     0.101 A 
HETATM    3  C9  UNL     1      30.821  18.156  11.597  1.00  0.00     0.035 A 
HETATM    4  C10 UNL     1      29.678  17.683  12.179  1.00  0.00     0.093 A 
HETATM    5  N2  UNL     1      28.603  18.472  12.206  1.00  0.00    -0.332 N 
ATOM      6  H2  UNL     1      27.750  18.118  12.641  1.00  0.00     0.168 HD
HETATM    7  C11 UNL     1      28.595  19.705  11.689  1.00  0.00     0.229 A 
ENDROOT
BRANCH   1   8
HETATM    8  C7  UNL     1      29.622  21.532  10.576  1.00  0.00     0.100 C 
HETATM    9  C6  UNL     1      29.960  22.683  11.000  1.00  0.00     0.018 C 
BRANCH   9  10
HETATM   10  C5  UNL     1      30.596  23.149  12.164  1.00  0.00     0.001 C 
HETATM   11  C4  UNL     1      29.967  22.981  13.369  1.00  0.00     0.000 C 
BRANCH  11  12
HETATM   12  C3  UNL     1      30.562  23.436  14.605  1.00  0.00     0.003 C 
HETATM   13  C2  UNL     1      31.815  23.144  14.870  1.00  0.00     0.041 C 
BRANCH  13  14
HETATM   14  C1  UNL     1      32.395  23.610  16.113  1.00  0.00     0.258 C 
HETATM   15  O1  UNL     1      33.583  24.030  16.147  1.00  0.00    -0.302 OA
ENDBRANCH  13  14
ENDBRANCH  11  12
ENDBRANCH   9  10
ENDBRANCH   1   8
BRANCH   7  16
HETATM   16  O2  UNL     1      27.467  20.480  11.741  1.00  0.00    -0.322 OA
BRANCH  16  17
HETATM   17  C12 UNL     1      26.306  20.173  12.420  1.00  0.00     0.180 C 
BRANCH  17  18
HETATM   18  C13 UNL     1      26.341  20.628  13.847  1.00  0.00     0.043 C 
BRANCH  18  19
HETATM   19  C14 UNL     1      25.940  19.414  14.708  1.00  0.00     0.159 C 
BRANCH  19  20
HETATM   20  S1  UNL     1      27.392  18.876  15.566  1.00  0.00     0.250 S 
HETATM   21  O3  UNL     1      27.752  17.318  15.023  1.00  0.00    -0.212 OA
HETATM   22  O4  UNL     1      28.660  19.895  15.100  1.00  0.00    -0.212 OA
ENDBRANCH  19  20
ENDBRANCH  18  19
ENDBRANCH  17  18
ENDBRANCH  16  17
ENDBRANCH   7  16
TORSDOF 9
ENDMDL
MODEL 4
REMARK VINA RESULT: -7.910274245      1.157      1.284
REMARK  9 active torsions:
REMARK  status: ('A' for Active; 'I' for Inactive)
REMARK    1  A    between atoms: C1_2  and  C2_3 
REMARK    2  A    between atoms: C3_4  and  C4_5 
REMARK    3  A    between atoms: C5_6  and  C6_7 
REMARK    4  A    between atoms: C7_8  and  N1_9 
REMARK    5  A    between atoms: C11_15  and  O2_16 
REMARK    6  A    between atoms: O2_16  and  C12_17 
REMARK    7  A    between atoms: C12_17  and  C13_18 
REMARK    8  A    between atoms: C13_18  and  C14_19 
REMARK    9  A    between atoms: C14_19  and  S1_20 
ROOT
HETATM    1  N1  UNL     1      29.613  20.200  11.286  1.00  0.00    -0.299 N 
HETATM    2  C8  UNL     1      30.666  19.391  11.212  1.00  0.00     0.101 A 
HETATM    3  C9  UNL     1      30.622  18.052  11.604  1.00  0.00     0.035 A 
HETATM    4  C10 UNL     1      29.444  17.552  12.085  1.00  0.00     0.093 A 
HETATM    5  N2  UNL     1      28.389  18.363  12.158  1.00  0.00    -0.332 N 
ATOM      6  H2  UNL     1      27.510  17.989  12.517  1.00  0.00     0.168 HD
HETATM    7  C11 UNL     1      28.434  19.646  11.782  1.00  0.00     0.229 A 
ENDROOT
BRANCH   1   8
HETATM    8  C7  UNL     1      29.551  21.554  10.921  1.00  0.00     0.100 C 
HETATM    9  C6  UNL     1      30.087  22.250  10.001  1.00  0.00     0.018 C 
BRANCH   9  10
HETATM   10  C5  UNL     1      30.975  21.964   8.950  1.00  0.00     0.001 C 
HETATM   11  C4  UNL     1      32.304  22.247   9.116  1.00  0.00     0.000 C 
BRANCH  11  12
HETATM   12  C3  UNL     1      33.273  21.980   8.077  1.00  0.00     0.003 C 
HETATM   13  C2  UNL     1      34.235  21.112   8.293  1.00  0.00     0.041 C 
BRANCH  13  14
HETATM   14  C1  UNL     1      35.196  20.857   7.240  1.00  0.00     0.258 C 
HETATM   15  O1  UNL     1      36.095  21.701   6.975  1.00  0.00    -0.302 OA
ENDBRANCH  13  14
ENDBRANCH  11  12
ENDBRANCH   9  10
ENDBRANCH   1   8
BRANCH   7  16
HETATM   16  O2  UNL     1      27.324  20.443  11.876  1.00  0.00    -0.322 OA
BRANCH  16  17
HETATM   17  C12 UNL     1      26.147  20.117  12.518  1.00  0.00     0.180 C 
BRANCH  17  18
HETATM   18  C13 UNL     1      26.191  20.424  13.984  1.00  0.00     0.043 C 
BRANCH  18  19
HETATM   19  C14 UNL     1      25.816  19.123  14.720  1.00  0.00     0.159 C 
BRANCH  19  20
HETATM   20  S1  UNL     1      27.263  18.569  15.578  1.00  0.00     0.250 S 
HETATM   21  O3  UNL     1      27.633  17.026  15.002  1.00  0.00    -0.212 OA
HETATM   22  O4  UNL     1      28.531  19.603  15.146  1.00  0.00    -0.212 OA
ENDBRANCH  19  20
ENDBRANCH  18  19
ENDBRANCH  17  18
ENDBRANCH  16  17
ENDBRANCH   7  16
TORSDOF 9
ENDMDL
MODEL 5
REMARK VINA RESULT: -7.900430885      2.204      2.724
REMARK  9 active torsions:
REMARK  status: ('A' for Active; 'I' for Inactive)
REMARK    1  A    between atoms: C1_2  and  C2_3 
REMARK    2  A    between atoms: C3_4  and  C4_5 
REMARK    3  A    between atoms: C5_6  and  C6_7 
REMARK    4  A    between atoms: C7_8  and  N1_9 
REMARK    5  A    between atoms: C11_15  and  O2_16 
REMARK    6  A    between atoms: O2_16  and  C12_17 
REMARK    7  A    between atoms: C12_17  and  C13_18 
REMARK    8  A    between atoms: C13_18  and  C14_19 
REMARK    9  A    between atoms: C14_19  and  S1_20 
ROOT
HETATM    1  N1  UNL     1      29.665  20.208  11.432  1.00  0.00    -0.299 N 
HETATM    2  C8  UNL     1      30.602  19.303  11.164  1.00  0.00     0.101 A 
HETATM    3  C9  UNL     1      30.488  17.962  11.533  1.00  0.00     0.035 A 
HETATM    4  C10 UNL     1      29.362  17.562  12.198  1.00  0.00     0.093 A 
HETATM    5  N2  UNL     1      28.424  18.469  12.466  1.00  0.00    -0.332 N 
ATOM      6  H2  UNL     1      27.583  18.170  12.962  1.00  0.00     0.168 HD
HETATM    7  C11 UNL     1      28.536  19.754  12.112  1.00  0.00     0.229 A 
ENDROOT
BRANCH   1   8
HETATM    8  C7  UNL     1      29.682  21.574  11.109  1.00  0.00     0.100 C 
HETATM    9  C6  UNL     1      30.161  22.251  10.145  1.00  0.00     0.018 C 
BRANCH   9  10
HETATM   10  C5  UNL     1      30.884  21.925   8.985  1.00  0.00     0.001 C 
HETATM   11  C4  UNL     1      32.230  22.175   8.956  1.00  0.00     0.000 C 
BRANCH  11  12
HETATM   12  C3  UNL     1      33.035  21.865   7.795  1.00  0.00     0.003 C 
HETATM   13  C2  UNL     1      33.950  20.926   7.871  1.00  0.00     0.041 C 
BRANCH  13  14
HETATM   14  C1  UNL     1      34.746  20.629   6.698  1.00  0.00     0.258 C 
HETATM   15  O1  UNL     1      34.405  19.705   5.909  1.00  0.00    -0.302 OA
ENDBRANCH  13  14
ENDBRANCH  11  12
ENDBRANCH   9  10
ENDBRANCH   1   8
BRANCH   7  16
HETATM   16  O2  UNL     1      27.545  20.652  12.409  1.00  0.00    -0.322 OA
BRANCH  16  17
HETATM   17  C12 UNL     1      27.111  20.988  13.675  1.00  0.00     0.180 C 
BRANCH  17  18
HETATM   18  C13 UNL     1      28.235  21.055  14.664  1.00  0.00     0.043 C 
BRANCH  18  19
HETATM   19  C14 UNL     1      28.945  22.404  14.437  1.00  0.00     0.159 C 
BRANCH  19  20
HETATM   20  S1  UNL     1      30.652  22.175  14.851  1.00  0.00     0.250 S 
HETATM   21  O3  UNL     1      31.043  20.568  14.511  1.00  0.00    -0.212 OA
HETATM   22  O4  UNL     1      31.558  23.160  13.815  1.00  0.00    -0.212 OA
ENDBRANCH  19  20
ENDBRANCH  18  19
ENDBRANCH  17  18
ENDBRANCH  16  17
ENDBRANCH   7  16
TORSDOF 9
ENDMDL
