MODEL 1
REMARK VINA RESULT: -8.058524152      0.000      0.000
REMARK  9 active torsions:
REMARK  status: ('A' for Active; 'I' for Inactive)
REMARK    1  A    between atoms: N1_3  and  C3_4 
REMARK    2  A    between atoms: C3_4  and  C4_5 
REMARK    3  A    between atoms: C4_5  and  C5_6 
REMARK    4  A    between atoms: C5_6  and  C6_7 
REMARK    5  A    between atoms: C6_7  and  N2_8 
REMARK    6  A    between atoms: N4_15  and  C10_16 
REMARK    7  A    between atoms: C10_16  and  C11_17 
REMARK    8  A    between atoms: C11_17  and  C12_18 
REMARK    9  A    between atoms: C12_18  and  N5_19 
ROOT
HETATM    1  C1  UNL     1      26.817  17.628  16.452  1.00  0.00     0.034 A 
HETATM    2  C2  UNL     1      27.947  18.287  16.901  1.00  0.00     0.093 A 
HETATM    3  N1  UNL     1      28.324  19.402  16.242  1.00  0.00    -0.353 N 
HETATM    4  C9  UNL     1      27.620  19.844  15.193  1.00  0.00     0.184 A 
HETATM    5  N4  UNL     1      26.517  19.237  14.720  1.00  0.00    -0.353 N 
HETATM    6  C16 UNL     1      26.117  18.122  15.358  1.00  0.00     0.093 A 
ENDROOT
BRANCH   3   7
HETATM    7  C3  UNL     1      29.514  20.073  16.736  1.00  0.00     0.129 C 
BRANCH   7   8
HETATM    8  C4  UNL     1      30.093  20.979  15.646  1.00  0.00     0.022 C 
BRANCH   8   9
HETATM    9  C5  UNL     1      30.890  22.087  16.245  1.00  0.00     0.022 C 
BRANCH   9  10
HETATM   10  C6  UNL     1      31.586  22.938  15.221  1.00  0.00     0.131 C 
BRANCH  10  11
HETATM   11  N2  UNL     1      30.563  23.761  14.566  1.00  0.00    -0.331 N 
HETATM   12  C7  UNL     1      30.266  23.708  13.263  1.00  0.00     0.208 A 
HETATM   13  N3  UNL     1      29.289  24.597  13.029  1.00  0.00    -0.256 N 
HETATM   14  O1  UNL     1      29.014  25.165  14.164  1.00  0.00    -0.232 OA
ATOM     15  H3  UNL     1      28.846  24.791  12.131  1.00  0.00     0.195 HD
HETATM   16  C8  UNL     1      29.769  24.681  15.120  1.00  0.00     0.262 A 
ENDBRANCH  10  11
ENDBRANCH   9  10
ENDBRANCH   8   9
ENDBRANCH   7   8
ENDBRANCH   3   7
BRANCH   5  17
HETATM   17  C10 UNL     1      25.770  19.714  13.582  1.00  0.00     0.130 C 
BRANCH  17  18
HETATM   18  C11 UNL     1      26.495  20.636  12.673  1.00  0.00     0.040 C 
BRANCH  18  19
HETATM   19  C12 UNL     1      27.056  19.888  11.486  1.00  0.00     0.131 C 
BRANCH  19  20
HETATM   20  N5  UNL     1      28.417  19.491  11.762  1.00  0.00    -0.352 N 
HETATM   21  C13 UNL     1      28.821  18.237  11.976  1.00  0.00     0.108 A 
HETATM   22  C14 UNL     1      30.184  18.302  12.198  1.00  0.00     0.106 A 
HETATM   23  N6  UNL     1      30.563  19.598  12.111  1.00  0.00    -0.361 N 
HETATM   24  C15 UNL     1      29.464  20.315  11.843  1.00  0.00     0.182 A 
ATOM     25  H6  UNL     1      31.508  19.962  12.229  1.00  0.00     0.166 HD
ENDBRANCH  19  20
ENDBRANCH  18  19
ENDBRANCH  17  18
ENDBRANCH   5  17
TORSDOF 9
ENDMDL
MODEL 2
REMARK VINA RESULT: -7.910330890      2.250      6.504
REMARK  9 active torsions:
REMARK  status: ('A' for Active; 'I' for Inactive)
REMARK    1  A    between atoms: N1_3  and  C3_4 
REMARK    2  A    between atoms: C3_4  and  C4_5 
REMARK    3  A    between atoms: C4_5  and  C5_6 
REMARK    4  A    between atoms: C5_6  and  C6_7 
REMARK    5  A    between atoms: C6_7  and  N2_8 
REMARK    6  A    between atoms: N4_15  and  C10_16 
REMARK    7  A    between atoms: C10_16  and  C11_17 
REMARK    8  A    between atoms: C11_17  and  C12_18 
REMARK    9  A    between atoms: C12_18  and  N5_19 
ROOT
HETATM    1  C1  UNL     1      29.968  21.938  10.442  1.00  0.00     0.034 A 
HETATM    2  C2  UNL     1      29.130  20.866  10.689  1.00  0.00     0.093 A 
HETATM    3  N1  UNL     1      28.519  20.813  11.890  1.00  0.00    -0.353 N 
HETATM    4  C9  UNL     1      28.724  21.772  12.801  1.00  0.00     0.184 A 
HETATM    5  N4  UNL     1      29.530  22.832  12.607  1.00  0.00    -0.353 N 
HETATM    6  C16 UNL     1      30.153  22.910  11.418  1.00  0.00     0.093 A 
ENDROOT
BRANCH   3   7
HETATM    7  C3  UNL     1      27.644  19.676  12.121  1.00  0.00     0.129 C 
BRANCH   7   8
HETATM    8  C4  UNL     1      26.234  20.164  12.466  1.00  0.00     0.022 C 
BRANCH   8   9
HETATM    9  C5  UNL     1      25.878  19.806  13.868  1.00  0.00     0.022 C 
BRANCH   9  10
HETATM   10  C6  UNL     1      26.287  18.411  14.247  1.00  0.00     0.131 C 
BRANCH  10  11
HETATM   11  N2  UNL     1      27.100  18.507  15.465  1.00  0.00    -0.331 N 
HETATM   12  C7  UNL     1      27.040  17.647  16.487  1.00  0.00     0.208 A 
HETATM   13  N3  UNL     1      27.920  18.052  17.415  1.00  0.00    -0.256 N 
HETATM   14  O1  UNL     1      28.487  19.126  16.956  1.00  0.00    -0.232 OA
ATOM     15  H3  UNL     1      28.108  17.601  18.311  1.00  0.00     0.195 HD
HETATM   16  C8  UNL     1      28.013  19.432  15.773  1.00  0.00     0.262 A 
ENDBRANCH  10  11
ENDBRANCH   9  10
ENDBRANCH   8   9
ENDBRANCH   7   8
ENDBRANCH   3   7
BRANCH   5  17
HETATM   17  C10 UNL     1      29.755  23.855  13.599  1.00  0.00     0.130 C 
BRANCH  17  18
HETATM   18  C11 UNL     1      30.236  23.381  14.920  1.00  0.00     0.040 C 
BRANCH  18  19
HETATM   19  C12 UNL     1      31.643  22.838  14.815  1.00  0.00     0.131 C 
BRANCH  19  20
HETATM   20  N5  UNL     1      32.353  23.092  16.047  1.00  0.00    -0.352 N 
HETATM   21  C13 UNL     1      31.898  22.804  17.267  1.00  0.00     0.108 A 
HETATM   22  C14 UNL     1      32.881  23.206  18.153  1.00  0.00     0.106 A 
HETATM   23  N6  UNL     1      33.903  23.726  17.436  1.00  0.00    -0.361 N 
HETATM   24  C15 UNL     1      33.563  23.649  16.143  1.00  0.00     0.182 A 
ATOM     25  H6  UNL     1      34.772  24.107  17.811  1.00  0.00     0.166 HD
ENDBRANCH  19  20
ENDBRANCH  18  19
ENDBRANCH  17  18
ENDBRANCH   5  17
TORSDOF 9
ENDMDL
MODEL 3
REMARK VINA RESULT: -7.906106425      1.607      4.367
REMARK  9 active torsions:
REMARK  status: ('A' for Active; 'I' for Inactive)
REMARK    1  A    between atoms: N1_3  and  C3_4 
REMARK    2  A    between atoms: C3_4  and  C4_5 
REMARK    3  A    between atoms: C4_5  and  C5_6 
REMARK    4  A    between atoms: C5_6  and  C6_7 
REMARK    5  A    between atoms: C6_7  and  N2_8 
REMARK    6  A    between atoms: N4_15  and  C10_16 
REMARK    7  A    between atoms: C10_16  and  C11_17 
REMARK    8  A    between atoms: C11_17  and  C12_18 
REMARK    9  A    between atoms: C12_18  and  N5_19 
ROOT
HETATM    1  C1  UNL     1      29.643  18.135  12.105  1.00  0.00     0.034 A 
HETATM    2  C2  UNL     1      30.429  19.051  11.429  1.00  0.00     0.093 A 
HETATM    3  N1  UNL     1      29.854  20.210  11.050  1.00  0.00    -0.353 N 
HETATM    4  C9  UNL     1      28.567  20.454  11.327  1.00  0.00     0.184 A 
HETATM    5  N4  UNL     1      27.764  19.596  11.981  1.00  0.00    -0.353 N 
HETATM    6  C16 UNL     1      28.311  18.431  12.370  1.00  0.00     0.093 A 
ENDROOT
BRANCH   3   7
HETATM    7  C3  UNL     1      30.703  21.152  10.341  1.00  0.00     0.129 C 
BRANCH   7   8
HETATM    8  C4  UNL     1      30.083  22.552  10.387  1.00  0.00     0.022 C 
BRANCH   8   9
HETATM    9  C5  UNL     1      30.725  23.381  11.447  1.00  0.00     0.022 C 
BRANCH   9  10
HETATM   10  C6  UNL     1      29.896  23.493  12.695  1.00  0.00     0.131 C 
BRANCH  10  11
HETATM   11  N2  UNL     1      30.622  22.803  13.767  1.00  0.00    -0.331 N 
HETATM   12  C7  UNL     1      31.730  23.267  14.354  1.00  0.00     0.208 A 
HETATM   13  N3  UNL     1      32.108  22.373  15.281  1.00  0.00    -0.256 N 
HETATM   14  O1  UNL     1      31.246  21.403  15.244  1.00  0.00    -0.232 OA
ATOM     15  H3  UNL     1      32.917  22.443  15.898  1.00  0.00     0.195 HD
HETATM   16  C8  UNL     1      30.329  21.631  14.336  1.00  0.00     0.262 A 
ENDBRANCH  10  11
ENDBRANCH   9  10
ENDBRANCH   8   9
ENDBRANCH   7   8
ENDBRANCH   3   7
BRANCH   5  17
HETATM   17  C10 UNL     1      26.375  19.862  12.265  1.00  0.00     0.130 C 
BRANCH  17  18
HETATM   18  C11 UNL     1      26.072  20.301  13.650  1.00  0.00     0.040 C 
BRANCH  18  19
HETATM   19  C12 UNL     1      25.609  19.136  14.493  1.00  0.00     0.131 C 
BRANCH  19  20
HETATM   20  N5  UNL     1      26.617  18.818  15.478  1.00  0.00    -0.352 N 
HETATM   21  C13 UNL     1      27.707  19.547  15.721  1.00  0.00     0.108 A 
HETATM   22  C14 UNL     1      28.394  18.894  16.727  1.00  0.00     0.106 A 
HETATM   23  N6  UNL     1      27.694  17.786  17.062  1.00  0.00    -0.361 N 
HETATM   24  C15 UNL     1      26.604  17.754  16.284  1.00  0.00     0.182 A 
ATOM     25  H6  UNL     1      27.949  17.101  17.774  1.00  0.00     0.166 HD
ENDBRANCH  19  20
ENDBRANCH  18  19
ENDBRANCH  17  18
ENDBRANCH   5  17
TORSDOF 9
ENDMDL
MODEL 4
REMARK VINA RESULT: -7.877877965      2.121      5.404
REMARK  9 active torsions:
REMARK  status: ('A' for Active; 'I' for Inactive)
REMARK    1  A    between atoms: N1_3  and  C3_4 
REMARK    2  A    between atoms: C3_4  and  C4_5 
REMARK    3  A    between atoms: C4_5  and  C5_6 
REMARK    4  A    between atoms: C5_6  and  C6_7 
REMARK    5  A    between atoms: C6_7  and  N2_8 
REMARK    6  A    between atoms: N4_15  and  C10_16 
REMARK    7  A    between atoms: C10_16  and  C11_17 
REMARK    8  A    between atoms: C11_17  and  C12_18 
REMARK    9  A    between atoms: C12_18  and  N5_19 
ROOT
HETATM    1  C1  UNL     1      27.198  17.818  16.627  1.00  0.00     0.034 A 
HETATM    2  C2  UNL     1      26.315  18.077  15.595  1.00  0.00     0.093 A 
HETATM    3  N1  UNL     1      26.573  19.135  14.800  1.00  0.00    -0.353 N 
HETATM    4  C9  UNL     1      27.651  19.900  15.014  1.00  0.00     0.184 A 
HETATM    5  N4  UNL     1      28.536  19.689  16.004  1.00  0.00    -0.353 N 
HETATM    6  C16 UNL     1      28.303  18.640  16.813  1.00  0.00     0.093 A 
ENDROOT
BRANCH   3   7
HETATM    7  C3  UNL     1      25.628  19.382  13.724  1.00  0.00     0.129 C 
BRANCH   7   8
HETATM    8  C4  UNL     1      26.161  20.483  12.804  1.00  0.00     0.022 C 
BRANCH   8   9
HETATM    9  C5  UNL     1      26.839  19.897  11.613  1.00  0.00     0.022 C 
BRANCH   9  10
HETATM   10  C6  UNL     1      28.243  20.398  11.423  1.00  0.00     0.131 C 
BRANCH  10  11
HETATM   11  N2  UNL     1      29.149  19.270  11.667  1.00  0.00    -0.331 N 
HETATM   12  C7  UNL     1      30.467  19.294  11.444  1.00  0.00     0.208 A 
HETATM   13  N3  UNL     1      30.961  18.092  11.781  1.00  0.00    -0.256 N 
HETATM   14  O1  UNL     1      29.961  17.374  12.192  1.00  0.00    -0.232 OA
ATOM     15  H3  UNL     1      31.936  17.799  11.724  1.00  0.00     0.195 HD
HETATM   16  C8  UNL     1      28.844  18.058  12.138  1.00  0.00     0.262 A 
ENDBRANCH  10  11
ENDBRANCH   9  10
ENDBRANCH   8   9
ENDBRANCH   7   8
ENDBRANCH   3   7
BRANCH   5  17
HETATM   17  C10 UNL     1      29.689  20.525  16.234  1.00  0.00     0.130 C 
BRANCH  17  18
HETATM   18  C11 UNL     1      30.292  21.142  15.027  1.00  0.00     0.040 C 
BRANCH  18  19
HETATM   19  C12 UNL     1      30.306  22.648  15.144  1.00  0.00     0.131 C 
BRANCH  19  20
HETATM   20  N5  UNL     1      31.574  23.081  15.683  1.00  0.00    -0.352 N 
HETATM   21  C13 UNL     1      32.674  23.313  14.964  1.00  0.00     0.108 A 
HETATM   22  C14 UNL     1      33.649  23.704  15.863  1.00  0.00     0.106 A 
HETATM   23  N6  UNL     1      33.107  23.695  17.102  1.00  0.00    -0.361 N 
HETATM   24  C15 UNL     1      31.831  23.309  16.974  1.00  0.00     0.182 A 
ATOM     25  H6  UNL     1      33.581  23.937  17.972  1.00  0.00     0.166 HD
ENDBRANCH  19  20
ENDBRANCH  18  19
ENDBRANCH  17  18
ENDBRANCH   5  17
TORSDOF 9
ENDMDL
MODEL 5
REMARK VINA RESULT: -7.831122198      3.853      6.222
REMARK  9 active torsions:
REMARK  status: ('A' for Active; 'I' for Inactive)
REMARK    1  A    between atoms: N1_3  and  C3_4 
REMARK    2  A    between atoms: C3_4  and  C4_5 
REMARK    3  A    between atoms: C4_5  and  C5_6 
REMARK    4  A    between atoms: C5_6  and  C6_7 
REMARK    5  A    between atoms: C6_7  and  N2_8 
REMARK    6  A    between atoms: N4_15  and  C10_16 
REMARK    7  A    between atoms: C10_16  and  C11_17 
REMARK    8  A    between atoms: C11_17  and  C12_18 
REMARK    9  A    between atoms: C12_18  and  N5_19 
ROOT
HETATM    1  C1  UNL     1      29.656  18.425  11.830  1.00  0.00     0.034 A 
HETATM    2  C2  UNL     1      30.434  19.455  11.332  1.00  0.00     0.093 A 
HETATM    3  N1  UNL     1      29.841  20.651  11.140  1.00  0.00    -0.353 N 
HETATM    4  C9  UNL     1      28.545  20.822  11.428  1.00  0.00     0.184 A 
HETATM    5  N4  UNL     1      27.749  19.852  11.912  1.00  0.00    -0.353 N 
HETATM    6  C16 UNL     1      28.314  18.648  12.113  1.00  0.00     0.093 A 
ENDROOT
BRANCH   3   7
HETATM    7  C3  UNL     1      30.683  21.713  10.617  1.00  0.00     0.129 C 
BRANCH   7   8
HETATM    8  C4  UNL     1      30.214  22.106   9.212  1.00  0.00     0.022 C 
BRANCH   8   9
HETATM    9  C5  UNL     1      31.347  22.064   8.245  1.00  0.00     0.022 C 
BRANCH   9  10
HETATM   10  C6  UNL     1      32.671  21.780   8.894  1.00  0.00     0.131 C 
BRANCH  10  11
HETATM   11  N2  UNL     1      33.452  20.962   7.958  1.00  0.00    -0.331 N 
HETATM   12  C7  UNL     1      34.779  20.805   8.013  1.00  0.00     0.208 A 
HETATM   13  N3  UNL     1      35.137  19.995   7.004  1.00  0.00    -0.256 N 
HETATM   14  O1  UNL     1      34.050  19.681   6.367  1.00  0.00    -0.232 OA
ATOM     15  H3  UNL     1      36.083  19.686   6.781  1.00  0.00     0.195 HD
HETATM   16  C8  UNL     1      33.007  20.250   6.920  1.00  0.00     0.262 A 
ENDBRANCH  10  11
ENDBRANCH   9  10
ENDBRANCH   8   9
ENDBRANCH   7   8
ENDBRANCH   3   7
BRANCH   5  17
HETATM   17  C10 UNL     1      26.350  20.042  12.209  1.00  0.00     0.130 C 
BRANCH  17  18
HETATM   18  C11 UNL     1      26.030  20.400  13.612  1.00  0.00     0.040 C 
BRANCH  18  19
HETATM   19  C12 UNL     1      25.638  19.173  14.403  1.00  0.00     0.131 C 
BRANCH  19  20
HETATM   20  N5  UNL     1      26.656  18.884  15.386  1.00  0.00    -0.352 N 
HETATM   21  C13 UNL     1      27.747  19.621  15.599  1.00  0.00     0.108 A 
HETATM   22  C14 UNL     1      28.444  18.996  16.617  1.00  0.00     0.106 A 
HETATM   23  N6  UNL     1      27.749  17.896  16.988  1.00  0.00    -0.361 N 
HETATM   24  C15 UNL     1      26.652  17.842  16.221  1.00  0.00     0.182 A 
ATOM     25  H6  UNL     1      28.012  17.231  17.716  1.00  0.00     0.166 HD
ENDBRANCH  19  20
ENDBRANCH  18  19
ENDBRANCH  17  18
ENDBRANCH   5  17
TORSDOF 9
ENDMDL
