MODEL 1
REMARK VINA RESULT: -4.564479881      0.000      0.000
REMARK  1 active torsions:
REMARK  status: ('A' for Active; 'I' for Inactive)
REMARK    1  A    between atoms: C1_2  and  C2_4 
ROOT
HETATM    1  C2  UNL     1      30.366  18.718  11.810  1.00  0.00     0.151 A 
HETATM    2  C3  UNL     1      29.675  20.012  11.600  1.00  0.00     0.100 A 
HETATM    3  C4  UNL     1      30.485  19.766  12.875  1.00  0.00     0.141 A 
HETATM    4  O2  UNL     1      30.836  20.266  13.919  1.00  0.00    -0.297 OA
ENDROOT
BRANCH   1   5
HETATM    5  C1  UNL     1      29.592  17.508  12.137  1.00  0.00     0.242 C 
HETATM    6  N1  UNL     1      28.356  17.596  12.813  1.00  0.00    -0.061 NA
HETATM    7  O1  UNL     1      30.008  16.363  11.825  1.00  0.00    -0.276 OA
ENDBRANCH   1   5
TORSDOF 1
ENDMDL
MODEL 2
REMARK VINA RESULT: -4.548045547      4.348      5.065
REMARK  1 active torsions:
REMARK  status: ('A' for Active; 'I' for Inactive)
REMARK    1  A    between atoms: C1_2  and  C2_4 
ROOT
HETATM    1  C2  UNL     1      27.099  19.859  15.652  1.00  0.00     0.151 A 
HETATM    2  C3  UNL     1      25.957  18.916  15.704  1.00  0.00     0.100 A 
HETATM    3  C4  UNL     1      27.319  18.454  15.180  1.00  0.00     0.141 A 
HETATM    4  O2  UNL     1      27.920  17.504  14.732  1.00  0.00    -0.297 OA
ENDROOT
BRANCH   1   5
HETATM    5  C1  UNL     1      27.136  20.926  14.638  1.00  0.00     0.242 C 
HETATM    6  N1  UNL     1      28.363  21.380  14.106  1.00  0.00    -0.061 NA
HETATM    7  O1  UNL     1      26.081  21.464  14.217  1.00  0.00    -0.276 OA
ENDBRANCH   1   5
TORSDOF 1
ENDMDL
MODEL 3
REMARK VINA RESULT: -4.534386877      1.128      1.128
REMARK  1 active torsions:
REMARK  status: ('A' for Active; 'I' for Inactive)
REMARK    1  A    between atoms: C1_2  and  C2_4 
ROOT
HETATM    1  C2  UNL     1      30.325  18.681  11.708  1.00  0.00     0.151 A 
HETATM    2  C3  UNL     1      29.514  19.920  11.648  1.00  0.00     0.100 A 
HETATM    3  C4  UNL     1      30.467  19.675  12.820  1.00  0.00     0.141 A 
HETATM    4  O2  UNL     1      30.881  20.146  13.855  1.00  0.00    -0.297 OA
ENDROOT
BRANCH   1   5
HETATM    5  C1  UNL     1      29.690  17.393  12.031  1.00  0.00     0.242 C 
HETATM    6  N1  UNL     1      29.485  16.413  11.034  1.00  0.00    -0.061 NA
HETATM    7  O1  UNL     1      29.311  17.126  13.199  1.00  0.00    -0.276 OA
ENDBRANCH   1   5
TORSDOF 1
ENDMDL
MODEL 4
REMARK VINA RESULT: -4.526872855      1.805      3.204
REMARK  1 active torsions:
REMARK  status: ('A' for Active; 'I' for Inactive)
REMARK    1  A    between atoms: C1_2  and  C2_4 
ROOT
HETATM    1  C2  UNL     1      29.680  19.657  12.332  1.00  0.00     0.151 A 
HETATM    2  C3  UNL     1      30.785  18.858  11.751  1.00  0.00     0.100 A 
HETATM    3  C4  UNL     1      29.708  18.184  12.604  1.00  0.00     0.141 A 
HETATM    4  O2  UNL     1      29.345  17.121  13.056  1.00  0.00    -0.297 OA
ENDROOT
BRANCH   1   5
HETATM    5  C1  UNL     1      29.933  20.559  13.468  1.00  0.00     0.242 C 
HETATM    6  N1  UNL     1      29.022  21.586  13.797  1.00  0.00    -0.061 NA
HETATM    7  O1  UNL     1      30.964  20.442  14.177  1.00  0.00    -0.276 OA
ENDBRANCH   1   5
TORSDOF 1
ENDMDL
MODEL 5
REMARK VINA RESULT: -4.496283275      1.982      3.356
REMARK  1 active torsions:
REMARK  status: ('A' for Active; 'I' for Inactive)
REMARK    1  A    between atoms: C1_2  and  C2_4 
ROOT
HETATM    1  C2  UNL     1      29.545  19.661  12.256  1.00  0.00     0.151 A 
HETATM    2  C3  UNL     1      30.691  18.919  11.681  1.00  0.00     0.100 A 
HETATM    3  C4  UNL     1      29.671  18.201  12.569  1.00  0.00     0.141 A 
HETATM    4  O2  UNL     1      29.384  17.131  13.056  1.00  0.00    -0.297 OA
ENDROOT
BRANCH   1   5
HETATM    5  C1  UNL     1      29.755  20.610  13.363  1.00  0.00     0.242 C 
HETATM    6  N1  UNL     1      30.883  20.505  14.206  1.00  0.00    -0.061 NA
HETATM    7  O1  UNL     1      28.939  21.538  13.591  1.00  0.00    -0.276 OA
ENDBRANCH   1   5
TORSDOF 1
ENDMDL
