MODEL 1
REMARK VINA RESULT: -4.867957915      0.000      0.000
REMARK  2 active torsions:
REMARK  status: ('A' for Active; 'I' for Inactive)
REMARK    1  A    between atoms: C1_2  and  C2_3 
REMARK       I    between atoms: C2_3  and  N1_5 
REMARK    2  A    between atoms: N1_5  and  C3_7 
ROOT
HETATM    1  C2  UNL     1      28.548  17.991  13.061  1.00  0.00     0.279 C 
HETATM    2  O2  UNL     1      28.372  17.199  14.012  1.00  0.00    -0.265 OA
HETATM    3  N1  UNL     1      27.819  19.192  13.018  1.00  0.00    -0.350 N 
ATOM      4  H1  UNL     1      27.980  19.820  12.231  1.00  0.00     0.163 HD
ENDROOT
BRANCH   3   5
HETATM    5  C3  UNL     1      26.855  19.591  14.020  1.00  0.00     0.085 A 
HETATM    6  C4  UNL     1      26.768  20.980  14.496  1.00  0.00     0.027 A 
HETATM    7  C5  UNL     1      25.754  20.489  13.472  1.00  0.00     0.027 A 
ENDBRANCH   3   5
BRANCH   1   8
HETATM    8  C1  UNL     1      29.491  17.685  12.005  1.00  0.00     0.332 C 
HETATM    9  O1  UNL     1      29.996  16.543  11.849  1.00  0.00    -0.297 OA
ENDBRANCH   1   8
TORSDOF 2
ENDMDL
MODEL 2
REMARK VINA RESULT: -4.692833158      4.136      4.674
REMARK  2 active torsions:
REMARK  status: ('A' for Active; 'I' for Inactive)
REMARK    1  A    between atoms: C1_2  and  C2_3 
REMARK       I    between atoms: C2_3  and  N1_5 
REMARK    2  A    between atoms: N1_5  and  C3_7 
ROOT
HETATM    1  C2  UNL     1      30.392  22.192  14.693  1.00  0.00     0.279 C 
HETATM    2  O2  UNL     1      31.089  21.155  14.713  1.00  0.00    -0.265 OA
HETATM    3  N1  UNL     1      28.999  22.087  14.548  1.00  0.00    -0.350 N 
ATOM      4  H1  UNL     1      28.453  22.948  14.534  1.00  0.00     0.163 HD
ENDROOT
BRANCH   3   5
HETATM    5  C3  UNL     1      28.290  20.832  14.418  1.00  0.00     0.085 A 
HETATM    6  C4  UNL     1      27.567  20.234  15.552  1.00  0.00     0.027 A 
HETATM    7  C5  UNL     1      26.777  20.984  14.489  1.00  0.00     0.027 A 
ENDBRANCH   3   5
BRANCH   1   8
HETATM    8  C1  UNL     1      31.005  23.500  14.816  1.00  0.00     0.332 C 
HETATM    9  O1  UNL     1      32.124  23.780  14.314  1.00  0.00    -0.297 OA
ENDBRANCH   1   8
TORSDOF 2
ENDMDL
MODEL 3
REMARK VINA RESULT: -4.631874138      3.535      4.370
REMARK  2 active torsions:
REMARK  status: ('A' for Active; 'I' for Inactive)
REMARK    1  A    between atoms: C1_2  and  C2_3 
REMARK       I    between atoms: C2_3  and  N1_5 
REMARK    2  A    between atoms: N1_5  and  C3_7 
ROOT
HETATM    1  C2  UNL     1      28.561  19.592  17.395  1.00  0.00     0.279 C 
HETATM    2  O2  UNL     1      27.831  18.635  17.732  1.00  0.00    -0.265 OA
HETATM    3  N1  UNL     1      28.433  20.139  16.107  1.00  0.00    -0.350 N 
ATOM      4  H1  UNL     1      29.042  20.918  15.856  1.00  0.00     0.163 HD
ENDROOT
BRANCH   3   5
HETATM    5  C3  UNL     1      27.493  19.665  15.115  1.00  0.00     0.085 A 
HETATM    6  C4  UNL     1      26.040  19.802  15.302  1.00  0.00     0.027 A 
HETATM    7  C5  UNL     1      26.760  20.789  14.394  1.00  0.00     0.027 A 
ENDBRANCH   3   5
BRANCH   1   8
HETATM    8  C1  UNL     1      29.536  20.141  18.316  1.00  0.00     0.332 C 
HETATM    9  O1  UNL     1      30.769  20.168  18.069  1.00  0.00    -0.297 OA
ENDBRANCH   1   8
TORSDOF 2
ENDMDL
MODEL 4
REMARK VINA RESULT: -4.610655970      1.507      1.718
REMARK  2 active torsions:
REMARK  status: ('A' for Active; 'I' for Inactive)
REMARK    1  A    between atoms: C1_2  and  C2_3 
REMARK       I    between atoms: C2_3  and  N1_5 
REMARK    2  A    between atoms: N1_5  and  C3_7 
ROOT
HETATM    1  C2  UNL     1      28.714  19.001  12.310  1.00  0.00     0.279 C 
HETATM    2  O2  UNL     1      29.003  19.978  11.586  1.00  0.00    -0.265 OA
HETATM    3  N1  UNL     1      27.592  19.073  13.153  1.00  0.00    -0.350 N 
ATOM      4  H1  UNL     1      27.379  18.262  13.735  1.00  0.00     0.163 HD
ENDROOT
BRANCH   3   5
HETATM    5  C3  UNL     1      26.723  20.226  13.248  1.00  0.00     0.085 A 
HETATM    6  C4  UNL     1      25.574  20.251  14.167  1.00  0.00     0.027 A 
HETATM    7  C5  UNL     1      26.853  20.971  14.570  1.00  0.00     0.027 A 
ENDBRANCH   3   5
BRANCH   1   8
HETATM    8  C1  UNL     1      29.521  17.798  12.289  1.00  0.00     0.332 C 
HETATM    9  O1  UNL     1      29.372  16.860  13.115  1.00  0.00    -0.297 OA
ENDBRANCH   1   8
TORSDOF 2
ENDMDL
MODEL 5
REMARK VINA RESULT: -4.588922043      3.992      5.054
REMARK  2 active torsions:
REMARK  status: ('A' for Active; 'I' for Inactive)
REMARK    1  A    between atoms: C1_2  and  C2_3 
REMARK       I    between atoms: C2_3  and  N1_5 
REMARK    2  A    between atoms: N1_5  and  C3_7 
ROOT
HETATM    1  C2  UNL     1      30.140  21.714  14.604  1.00  0.00     0.279 C 
HETATM    2  O2  UNL     1      28.951  22.034  14.392  1.00  0.00    -0.265 OA
HETATM    3  N1  UNL     1      30.679  20.588  13.959  1.00  0.00    -0.350 N 
ATOM      4  H1  UNL     1      31.652  20.348  14.150  1.00  0.00     0.163 HD
ENDROOT
BRANCH   3   5
HETATM    5  C3  UNL     1      29.939  19.748  13.042  1.00  0.00     0.085 A 
HETATM    6  C4  UNL     1      29.881  20.044  11.602  1.00  0.00     0.027 A 
HETATM    7  C5  UNL     1      30.832  18.961  12.092  1.00  0.00     0.027 A 
ENDBRANCH   3   5
BRANCH   1   8
HETATM    8  C1  UNL     1      30.968  22.490  15.506  1.00  0.00     0.332 C 
HETATM    9  O1  UNL     1      32.220  22.551  15.403  1.00  0.00    -0.297 OA
ENDBRANCH   1   8
TORSDOF 2
ENDMDL
