MODEL 1
REMARK VINA RESULT: -5.187716924      0.000      0.000
REMARK  5 active torsions:
REMARK  status: ('A' for Active; 'I' for Inactive)
REMARK    1  A    between atoms: C2_2  and  C3_3 
REMARK    2  A    between atoms: C3_3  and  C4_4 
REMARK    3  A    between atoms: C4_4  and  C5_5 
REMARK    4  A    between atoms: C5_5  and  N2_7 
REMARK    5  A    between atoms: N2_7  and  N3_8 
ROOT
HETATM    1  C5  UNL     1      27.814  18.855  17.333  1.00  0.00     0.212 C 
HETATM    2  N1  UNL     1      26.950  17.770  17.088  1.00  0.00    -0.065 NA
ENDROOT
BRANCH   1   3
HETATM    3  C4  UNL     1      28.041  19.861  16.326  1.00  0.00     0.062 C 
BRANCH   3   4
HETATM    4  C3  UNL     1      27.420  19.784  15.156  1.00  0.00     0.004 C 
BRANCH   4   5
HETATM    5  C2  UNL     1      26.753  20.898  14.535  1.00  0.00    -0.010 C 
HETATM    6  C1  UNL     1      25.567  20.760  13.983  1.00  0.00     0.011 C 
ENDBRANCH   4   5
ENDBRANCH   3   4
ENDBRANCH   1   3
BRANCH   1   7
HETATM    7  N2  UNL     1      28.386  18.945  18.428  1.00  0.00    -0.318 NA
BRANCH   7   8
HETATM    8  N3  UNL     1      28.958  19.031  19.538  1.00  0.00    -0.279 N 
ATOM      9  H32 UNL     1      28.825  18.827  18.548  1.00  0.00     0.191 HD
ATOM     10  H31 UNL     1      29.417  19.105  20.446  1.00  0.00     0.191 HD
ENDBRANCH   7   8
ENDBRANCH   1   7
TORSDOF 5
ENDMDL
MODEL 2
REMARK VINA RESULT: -5.153421071      1.753      2.042
REMARK  5 active torsions:
REMARK  status: ('A' for Active; 'I' for Inactive)
REMARK    1  A    between atoms: C2_2  and  C3_3 
REMARK    2  A    between atoms: C3_3  and  C4_4 
REMARK    3  A    between atoms: C4_4  and  C5_5 
REMARK    4  A    between atoms: C5_5  and  N2_7 
REMARK    5  A    between atoms: N2_7  and  N3_8 
ROOT
HETATM    1  C5  UNL     1      27.507  18.471  15.715  1.00  0.00     0.212 C 
HETATM    2  N1  UNL     1      27.984  17.843  14.548  1.00  0.00    -0.065 NA
ENDROOT
BRANCH   1   3
HETATM    3  C4  UNL     1      27.553  19.905  15.855  1.00  0.00     0.062 C 
BRANCH   3   4
HETATM    4  C3  UNL     1      27.311  20.684  14.810  1.00  0.00     0.004 C 
BRANCH   4   5
HETATM    5  C2  UNL     1      26.007  20.847  14.223  1.00  0.00    -0.010 C 
HETATM    6  C1  UNL     1      25.724  20.344  13.042  1.00  0.00     0.011 C 
ENDBRANCH   4   5
ENDBRANCH   3   4
ENDBRANCH   1   3
BRANCH   1   7
HETATM    7  N2  UNL     1      27.041  17.781  16.632  1.00  0.00    -0.318 NA
BRANCH   7   8
HETATM    8  N3  UNL     1      26.574  17.076  17.555  1.00  0.00    -0.279 N 
ATOM      9  H32 UNL     1      26.657  17.509  16.636  1.00  0.00     0.191 HD
ATOM     10  H31 UNL     1      26.200  16.504  18.312  1.00  0.00     0.191 HD
ENDBRANCH   7   8
ENDBRANCH   1   7
TORSDOF 5
ENDMDL
MODEL 3
REMARK VINA RESULT: -5.091605442      0.667      1.744
REMARK  5 active torsions:
REMARK  status: ('A' for Active; 'I' for Inactive)
REMARK    1  A    between atoms: C2_2  and  C3_3 
REMARK    2  A    between atoms: C3_3  and  C4_4 
REMARK    3  A    between atoms: C4_4  and  C5_5 
REMARK    4  A    between atoms: C5_5  and  N2_7 
REMARK    5  A    between atoms: N2_7  and  N3_8 
ROOT
HETATM    1  C5  UNL     1      28.139  19.291  17.371  1.00  0.00     0.212 C 
HETATM    2  N1  UNL     1      28.911  19.710  18.472  1.00  0.00    -0.065 NA
ENDROOT
BRANCH   1   3
HETATM    3  C4  UNL     1      28.120  20.053  16.148  1.00  0.00     0.062 C 
BRANCH   3   4
HETATM    4  C3  UNL     1      27.135  19.888  15.275  1.00  0.00     0.004 C 
BRANCH   4   5
HETATM    5  C2  UNL     1      26.630  20.943  14.437  1.00  0.00    -0.010 C 
HETATM    6  C1  UNL     1      25.427  20.877  13.910  1.00  0.00     0.011 C 
ENDBRANCH   4   5
ENDBRANCH   3   4
ENDBRANCH   1   3
BRANCH   1   7
HETATM    7  N2  UNL     1      27.468  18.253  17.456  1.00  0.00    -0.318 NA
BRANCH   7   8
HETATM    8  N3  UNL     1      26.797  17.201  17.547  1.00  0.00    -0.279 N 
ATOM      9  H32 UNL     1      27.432  17.894  17.155  1.00  0.00     0.191 HD
ATOM     10  H31 UNL     1      26.247  16.345  17.628  1.00  0.00     0.191 HD
ENDBRANCH   7   8
ENDBRANCH   1   7
TORSDOF 5
ENDMDL
MODEL 4
REMARK VINA RESULT: -5.050896567      1.399      1.743
REMARK  5 active torsions:
REMARK  status: ('A' for Active; 'I' for Inactive)
REMARK    1  A    between atoms: C2_2  and  C3_3 
REMARK    2  A    between atoms: C3_3  and  C4_4 
REMARK    3  A    between atoms: C4_4  and  C5_5 
REMARK    4  A    between atoms: C5_5  and  N2_7 
REMARK    5  A    between atoms: N2_7  and  N3_8 
ROOT
HETATM    1  C5  UNL     1      27.081  18.267  16.275  1.00  0.00     0.212 C 
HETATM    2  N1  UNL     1      27.734  17.499  15.292  1.00  0.00    -0.065 NA
ENDROOT
BRANCH   1   3
HETATM    3  C4  UNL     1      25.743  18.761  16.060  1.00  0.00     0.062 C 
BRANCH   3   4
HETATM    4  C3  UNL     1      25.344  19.094  14.840  1.00  0.00     0.004 C 
BRANCH   4   5
HETATM    5  C2  UNL     1      25.485  20.416  14.290  1.00  0.00    -0.010 C 
HETATM    6  C1  UNL     1      26.645  21.035  14.290  1.00  0.00     0.011 C 
ENDBRANCH   4   5
ENDBRANCH   3   4
ENDBRANCH   1   3
BRANCH   1   7
HETATM    7  N2  UNL     1      27.663  18.521  17.338  1.00  0.00    -0.318 NA
BRANCH   7   8
HETATM    8  N3  UNL     1      28.255  18.769  18.413  1.00  0.00    -0.279 N 
ATOM      9  H32 UNL     1      27.763  18.935  17.536  1.00  0.00     0.191 HD
ATOM     10  H31 UNL     1      28.737  18.963  19.290  1.00  0.00     0.191 HD
ENDBRANCH   7   8
ENDBRANCH   1   7
TORSDOF 5
ENDMDL
MODEL 5
REMARK VINA RESULT: -5.050422841      4.428      4.944
REMARK  5 active torsions:
REMARK  status: ('A' for Active; 'I' for Inactive)
REMARK    1  A    between atoms: C2_2  and  C3_3 
REMARK    2  A    between atoms: C3_3  and  C4_4 
REMARK    3  A    between atoms: C4_4  and  C5_5 
REMARK    4  A    between atoms: C5_5  and  N2_7 
REMARK    5  A    between atoms: N2_7  and  N3_8 
ROOT
HETATM    1  C5  UNL     1      30.139  22.036  14.045  1.00  0.00     0.212 C 
HETATM    2  N1  UNL     1      31.185  21.627  14.895  1.00  0.00    -0.065 NA
ENDROOT
BRANCH   1   3
HETATM    3  C4  UNL     1      28.946  21.240  13.904  1.00  0.00     0.062 C 
BRANCH   3   4
HETATM    4  C3  UNL     1      27.990  21.306  14.820  1.00  0.00     0.004 C 
BRANCH   4   5
HETATM    5  C2  UNL     1      26.792  20.509  14.779  1.00  0.00    -0.010 C 
HETATM    6  C1  UNL     1      25.769  20.854  14.029  1.00  0.00     0.011 C 
ENDBRANCH   4   5
ENDBRANCH   3   4
ENDBRANCH   1   3
BRANCH   1   7
HETATM    7  N2  UNL     1      30.247  23.095  13.411  1.00  0.00    -0.318 NA
BRANCH   7   8
HETATM    8  N3  UNL     1      30.363  24.167  12.775  1.00  0.00    -0.279 N 
ATOM      9  H32 UNL     1      30.072  23.214  12.991  1.00  0.00     0.191 HD
ATOM     10  H31 UNL     1      30.461  25.044  12.263  1.00  0.00     0.191 HD
ENDBRANCH   7   8
ENDBRANCH   1   7
TORSDOF 5
ENDMDL
