MODEL 1
REMARK VINA RESULT: -7.297816348      0.000      0.000
REMARK  9 active torsions:
REMARK  status: ('A' for Active; 'I' for Inactive)
REMARK    1  A    between atoms: C3_3  and  N1_4 
REMARK    2  A    between atoms: N1_4  and  C4_5 
REMARK    3  A    between atoms: N1_4  and  C7_9 
REMARK    4  A    between atoms: C4_5  and  C5_6 
REMARK    5  A    between atoms: C7_9  and  C8_10 
REMARK    6  A    between atoms: C8_10  and  N2_11 
REMARK    7  A    between atoms: N2_11  and  C9_12 
REMARK    8  A    between atoms: N2_11  and  S1_15 
REMARK    9  A    between atoms: C9_12  and  C10_13 
ROOT
HETATM    1  C1  UNL     1      28.947  15.476  10.795  1.00  0.00     0.018 C 
HETATM    2  C2  UNL     1      28.975  16.385  11.584  1.00  0.00    -0.072 C 
HETATM    3  C3  UNL     1      28.997  17.508  12.537  1.00  0.00     0.155 C 
ENDROOT
BRANCH   3   4
HETATM    4  N1  UNL     1      27.768  18.129  12.748  1.00  0.00    -0.349 N 
BRANCH   4   5
HETATM    5  C4  UNL     1      26.772  17.552  13.532  1.00  0.00     0.099 C 
BRANCH   5   6
HETATM    6  C5  UNL     1      27.163  17.106  14.905  1.00  0.00     0.183 A 
HETATM    7  C6  UNL     1      26.423  17.739  16.071  1.00  0.00     0.206 A 
HETATM    8  O1  UNL     1      27.739  18.038  15.754  1.00  0.00    -0.376 OA
ENDBRANCH   5   6
ENDBRANCH   4   5
BRANCH   4   9
HETATM    9  C7  UNL     1      27.607  19.493  12.324  1.00  0.00     0.049 A 
HETATM   10  C13 UNL     1      26.595  19.787  11.258  1.00  0.00     0.035 A 
HETATM   11  C14 UNL     1      26.410  20.236  12.731  1.00  0.00     0.035 A 
BRANCH   9  12
HETATM   12  C8  UNL     1      28.922  20.198  12.130  1.00  0.00     0.139 C 
BRANCH  12  13
HETATM   13  N2  UNL     1      29.001  21.503  12.754  1.00  0.00    -0.205 NA
BRANCH  13  14
HETATM   14  C9  UNL     1      29.677  22.380  11.855  1.00  0.00     0.133 C 
BRANCH  14  15
HETATM   15  C10 UNL     1      29.700  21.936  10.454  1.00  0.00    -0.022 C 
HETATM   16  C11 UNL     1      30.707  22.302   9.677  1.00  0.00     0.008 C 
ENDBRANCH  14  15
ENDBRANCH  13  14
BRANCH  13  17
HETATM   17  S1  UNL     1      29.749  21.314  14.274  1.00  0.00     0.208 S 
HETATM   18  C12 UNL     1      30.679  22.728  14.782  1.00  0.00     0.180 C 
HETATM   19  O2  UNL     1      28.696  21.049  15.309  1.00  0.00    -0.212 OA
HETATM   20  O3  UNL     1      30.694  20.151  14.271  1.00  0.00    -0.212 OA
ENDBRANCH  13  17
ENDBRANCH  12  13
ENDBRANCH   9  12
ENDBRANCH   4   9
ENDBRANCH   3   4
TORSDOF 9
ENDMDL
MODEL 2
REMARK VINA RESULT: -7.219429664      1.938      3.234
REMARK  9 active torsions:
REMARK  status: ('A' for Active; 'I' for Inactive)
REMARK    1  A    between atoms: C3_3  and  N1_4 
REMARK    2  A    between atoms: N1_4  and  C4_5 
REMARK    3  A    between atoms: N1_4  and  C7_9 
REMARK    4  A    between atoms: C4_5  and  C5_6 
REMARK    5  A    between atoms: C7_9  and  C8_10 
REMARK    6  A    between atoms: C8_10  and  N2_11 
REMARK    7  A    between atoms: N2_11  and  C9_12 
REMARK    8  A    between atoms: N2_11  and  S1_15 
REMARK    9  A    between atoms: C9_12  and  C10_13 
ROOT
HETATM    1  C1  UNL     1      28.915  19.611  17.100  1.00  0.00     0.018 C 
HETATM    2  C2  UNL     1      28.127  19.052  16.383  1.00  0.00    -0.072 C 
HETATM    3  C3  UNL     1      27.161  18.384  15.492  1.00  0.00     0.155 C 
ENDROOT
BRANCH   3   4
HETATM    4  N1  UNL     1      27.418  18.525  14.130  1.00  0.00    -0.349 N 
BRANCH   4   5
HETATM    5  C4  UNL     1      27.470  17.431  13.270  1.00  0.00     0.099 C 
BRANCH   5   6
HETATM    6  C5  UNL     1      28.804  17.089  12.687  1.00  0.00     0.183 A 
HETATM    7  C6  UNL     1      28.809  16.229  11.436  1.00  0.00     0.206 A 
HETATM    8  O1  UNL     1      29.192  15.759  12.681  1.00  0.00    -0.376 OA
ENDBRANCH   5   6
ENDBRANCH   4   5
BRANCH   4   9
HETATM    9  C7  UNL     1      27.414  19.846  13.564  1.00  0.00     0.049 A 
HETATM   10  C13 UNL     1      26.509  20.114  12.400  1.00  0.00     0.035 A 
HETATM   11  C14 UNL     1      26.267  20.727  13.803  1.00  0.00     0.035 A 
BRANCH   9  12
HETATM   12  C8  UNL     1      28.799  20.412  13.404  1.00  0.00     0.139 C 
BRANCH  12  13
HETATM   13  N2  UNL     1      28.909  21.454  12.403  1.00  0.00    -0.205 NA
BRANCH  13  14
HETATM   14  C9  UNL     1      29.608  20.914  11.283  1.00  0.00     0.133 C 
BRANCH  14  15
HETATM   15  C10 UNL     1      29.235  21.487   9.982  1.00  0.00    -0.022 C 
HETATM   16  C11 UNL     1      30.188  21.848   9.138  1.00  0.00     0.008 C 
ENDBRANCH  14  15
ENDBRANCH  13  14
BRANCH  13  17
HETATM   17  S1  UNL     1      29.650  22.806  13.131  1.00  0.00     0.208 S 
HETATM   18  C12 UNL     1      29.929  22.607  14.864  1.00  0.00     0.180 C 
HETATM   19  O2  UNL     1      30.971  23.056  12.468  1.00  0.00    -0.212 OA
HETATM   20  O3  UNL     1      28.811  24.036  12.964  1.00  0.00    -0.212 OA
ENDBRANCH  13  17
ENDBRANCH  12  13
ENDBRANCH   9  12
ENDBRANCH   4   9
ENDBRANCH   3   4
TORSDOF 9
ENDMDL
MODEL 3
REMARK VINA RESULT: -7.209498689      1.077      1.306
REMARK  9 active torsions:
REMARK  status: ('A' for Active; 'I' for Inactive)
REMARK    1  A    between atoms: C3_3  and  N1_4 
REMARK    2  A    between atoms: N1_4  and  C4_5 
REMARK    3  A    between atoms: N1_4  and  C7_9 
REMARK    4  A    between atoms: C4_5  and  C5_6 
REMARK    5  A    between atoms: C7_9  and  C8_10 
REMARK    6  A    between atoms: C8_10  and  N2_11 
REMARK    7  A    between atoms: N2_11  and  C9_12 
REMARK    8  A    between atoms: N2_11  and  S1_15 
REMARK    9  A    between atoms: C9_12  and  C10_13 
ROOT
HETATM    1  C1  UNL     1      28.909  15.334  10.790  1.00  0.00     0.018 C 
HETATM    2  C2  UNL     1      29.028  16.322  11.468  1.00  0.00    -0.072 C 
HETATM    3  C3  UNL     1      29.160  17.542  12.284  1.00  0.00     0.155 C 
ENDROOT
BRANCH   3   4
HETATM    4  N1  UNL     1      27.961  18.186  12.583  1.00  0.00    -0.349 N 
BRANCH   4   5
HETATM    5  C4  UNL     1      27.002  17.614  13.415  1.00  0.00     0.099 C 
BRANCH   5   6
HETATM    6  C5  UNL     1      27.364  17.452  14.857  1.00  0.00     0.183 A 
HETATM    7  C6  UNL     1      26.305  17.828  15.879  1.00  0.00     0.206 A 
HETATM    8  O1  UNL     1      27.437  18.591  15.643  1.00  0.00    -0.376 OA
ENDBRANCH   5   6
ENDBRANCH   4   5
BRANCH   4   9
HETATM    9  C7  UNL     1      27.807  19.562  12.198  1.00  0.00     0.049 A 
HETATM   10  C13 UNL     1      26.796  19.892  11.142  1.00  0.00     0.035 A 
HETATM   11  C14 UNL     1      26.616  20.300  12.627  1.00  0.00     0.035 A 
BRANCH   9  12
HETATM   12  C8  UNL     1      29.126  20.265  12.021  1.00  0.00     0.139 C 
BRANCH  12  13
HETATM   13  N2  UNL     1      29.050  21.710  12.088  1.00  0.00    -0.205 NA
BRANCH  13  14
HETATM   14  C9  UNL     1      29.833  22.241  11.021  1.00  0.00     0.133 C 
BRANCH  14  15
HETATM   15  C10 UNL     1      29.517  21.703   9.690  1.00  0.00    -0.022 C 
HETATM   16  C11 UNL     1      30.433  21.758   8.737  1.00  0.00     0.008 C 
ENDBRANCH  14  15
ENDBRANCH  13  14
BRANCH  13  17
HETATM   17  S1  UNL     1      29.538  22.191  13.648  1.00  0.00     0.208 S 
HETATM   18  C12 UNL     1      29.916  20.836  14.717  1.00  0.00     0.180 C 
HETATM   19  O2  UNL     1      30.760  23.053  13.535  1.00  0.00    -0.212 OA
HETATM   20  O3  UNL     1      28.469  22.994  14.326  1.00  0.00    -0.212 OA
ENDBRANCH  13  17
ENDBRANCH  12  13
ENDBRANCH   9  12
ENDBRANCH   4   9
ENDBRANCH   3   4
TORSDOF 9
ENDMDL
MODEL 4
REMARK VINA RESULT: -7.048817630      1.304      2.754
REMARK  9 active torsions:
REMARK  status: ('A' for Active; 'I' for Inactive)
REMARK    1  A    between atoms: C3_3  and  N1_4 
REMARK    2  A    between atoms: N1_4  and  C4_5 
REMARK    3  A    between atoms: N1_4  and  C7_9 
REMARK    4  A    between atoms: C4_5  and  C5_6 
REMARK    5  A    between atoms: C7_9  and  C8_10 
REMARK    6  A    between atoms: C8_10  and  N2_11 
REMARK    7  A    between atoms: N2_11  and  C9_12 
REMARK    8  A    between atoms: N2_11  and  S1_15 
REMARK    9  A    between atoms: C9_12  and  C10_13 
ROOT
HETATM    1  C1  UNL     1      27.020  17.817  16.619  1.00  0.00     0.018 C 
HETATM    2  C2  UNL     1      26.847  17.768  15.429  1.00  0.00    -0.072 C 
HETATM    3  C3  UNL     1      26.641  17.728  13.970  1.00  0.00     0.155 C 
ENDROOT
BRANCH   3   4
HETATM    4  N1  UNL     1      27.605  18.396  13.218  1.00  0.00    -0.349 N 
BRANCH   4   5
HETATM    5  C4  UNL     1      28.708  17.741  12.679  1.00  0.00     0.099 C 
BRANCH   5   6
HETATM    6  C5  UNL     1      28.564  16.276  12.414  1.00  0.00     0.183 A 
HETATM    7  C6  UNL     1      29.540  15.656  11.429  1.00  0.00     0.206 A 
HETATM    8  O1  UNL     1      28.204  15.877  11.137  1.00  0.00    -0.376 OA
ENDBRANCH   5   6
ENDBRANCH   4   5
BRANCH   4   9
HETATM    9  C7  UNL     1      27.339  19.749  12.809  1.00  0.00     0.049 A 
HETATM   10  C13 UNL     1      26.176  19.996  11.896  1.00  0.00     0.035 A 
HETATM   11  C14 UNL     1      26.189  20.459  13.376  1.00  0.00     0.035 A 
BRANCH   9  12
HETATM   12  C8  UNL     1      28.588  20.493  12.421  1.00  0.00     0.139 C 
BRANCH  12  13
HETATM   13  N2  UNL     1      28.869  21.658  13.234  1.00  0.00    -0.205 NA
BRANCH  13  14
HETATM   14  C9  UNL     1      29.450  22.651  12.391  1.00  0.00     0.133 C 
BRANCH  14  15
HETATM   15  C10 UNL     1      29.641  22.245  10.992  1.00  0.00    -0.022 C 
HETATM   16  C11 UNL     1      30.728  22.638  10.348  1.00  0.00     0.008 C 
ENDBRANCH  14  15
ENDBRANCH  13  14
BRANCH  13  17
HETATM   17  S1  UNL     1      29.843  21.166  14.544  1.00  0.00     0.208 S 
HETATM   18  C12 UNL     1      30.840  22.464  15.207  1.00  0.00     0.180 C 
HETATM   19  O2  UNL     1      28.962  20.644  15.640  1.00  0.00    -0.212 OA
HETATM   20  O3  UNL     1      30.775  20.064  14.139  1.00  0.00    -0.212 OA
ENDBRANCH  13  17
ENDBRANCH  12  13
ENDBRANCH   9  12
ENDBRANCH   4   9
ENDBRANCH   3   4
TORSDOF 9
ENDMDL
MODEL 5
REMARK VINA RESULT: -6.981463004      2.621      5.389
REMARK  9 active torsions:
REMARK  status: ('A' for Active; 'I' for Inactive)
REMARK    1  A    between atoms: C3_3  and  N1_4 
REMARK    2  A    between atoms: N1_4  and  C4_5 
REMARK    3  A    between atoms: N1_4  and  C7_9 
REMARK    4  A    between atoms: C4_5  and  C5_6 
REMARK    5  A    between atoms: C7_9  and  C8_10 
REMARK    6  A    between atoms: C8_10  and  N2_11 
REMARK    7  A    between atoms: N2_11  and  C9_12 
REMARK    8  A    between atoms: N2_11  and  S1_15 
REMARK    9  A    between atoms: C9_12  and  C10_13 
ROOT
HETATM    1  C1  UNL     1      30.508  19.108  10.892  1.00  0.00     0.018 C 
HETATM    2  C2  UNL     1      29.943  20.092  11.295  1.00  0.00    -0.072 C 
HETATM    3  C3  UNL     1      29.235  21.282  11.797  1.00  0.00     0.155 C 
ENDROOT
BRANCH   3   4
HETATM    4  N1  UNL     1      28.738  21.173  13.094  1.00  0.00    -0.349 N 
BRANCH   4   5
HETATM    5  C4  UNL     1      29.112  22.052  14.106  1.00  0.00     0.099 C 
BRANCH   5   6
HETATM    6  C5  UNL     1      29.633  23.389  13.686  1.00  0.00     0.183 A 
HETATM    7  C6  UNL     1      29.181  24.590  14.499  1.00  0.00     0.206 A 
HETATM    8  O1  UNL     1      28.724  24.325  13.218  1.00  0.00    -0.376 OA
ENDBRANCH   5   6
ENDBRANCH   4   5
BRANCH   4   9
HETATM    9  C7  UNL     1      27.650  20.265  13.337  1.00  0.00     0.049 A 
HETATM   10  C13 UNL     1      26.345  20.834  13.805  1.00  0.00     0.035 A 
HETATM   11  C14 UNL     1      26.529  20.218  12.394  1.00  0.00     0.035 A 
BRANCH   9  12
HETATM   12  C8  UNL     1      28.081  19.031  14.083  1.00  0.00     0.139 C 
BRANCH  12  13
HETATM   13  N2  UNL     1      27.648  18.983  15.464  1.00  0.00    -0.205 NA
BRANCH  13  14
HETATM   14  C9  UNL     1      28.812  18.988  16.289  1.00  0.00     0.133 C 
BRANCH  14  15
HETATM   15  C10 UNL     1      28.747  19.887  17.450  1.00  0.00    -0.022 C 
HETATM   16  C11 UNL     1      28.732  19.369  18.668  1.00  0.00     0.008 C 
ENDBRANCH  14  15
ENDBRANCH  13  14
BRANCH  13  17
HETATM   17  S1  UNL     1      26.638  17.623  15.652  1.00  0.00     0.208 S 
HETATM   18  C12 UNL     1      24.974  17.905  15.128  1.00  0.00     0.180 C 
HETATM   19  O2  UNL     1      27.195  16.485  14.851  1.00  0.00    -0.212 OA
HETATM   20  O3  UNL     1      26.574  17.191  17.086  1.00  0.00    -0.212 OA
ENDBRANCH  13  17
ENDBRANCH  12  13
ENDBRANCH   9  12
ENDBRANCH   4   9
ENDBRANCH   3   4
TORSDOF 9
ENDMDL
