MODEL 1
REMARK VINA RESULT: -7.763963494      0.000      0.000
REMARK  9 active torsions:
REMARK  status: ('A' for Active; 'I' for Inactive)
REMARK    1  A    between atoms: C3_3  and  N1_4 
REMARK    2  A    between atoms: N1_4  and  C4_5 
REMARK    3  A    between atoms: N1_4  and  C7_8 
REMARK    4  A    between atoms: C7_8  and  C8_9 
REMARK    5  A    between atoms: C8_9  and  C9_10 
REMARK    6  A    between atoms: C9_10  and  N2_11 
REMARK    7  A    between atoms: N3_15  and  C12_16 
REMARK    8  A    between atoms: C12_16  and  C13_17 
REMARK    9  A    between atoms: C13_17  and  C14_18 
ROOT
HETATM    1  C1  UNL     1      28.917  15.003  10.769  1.00  0.00     0.013 C 
HETATM    2  C2  UNL     1      29.274  16.018  11.289  1.00  0.00    -0.087 C 
HETATM    3  C3  UNL     1      29.698  17.244  11.893  1.00  0.00     0.366 C 
ENDROOT
BRANCH   3   4
HETATM    4  N1  UNL     1      29.224  18.445  11.138  1.00  0.00     0.109 N 
BRANCH   4   5
HETATM    5  C4  UNL     1      30.072  19.561  11.475  1.00  0.00     0.353 C 
HETATM    6  C5  UNL     1      30.801  20.016  10.311  1.00  0.00    -0.158 C 
HETATM    7  C6  UNL     1      31.455  20.402   9.343  1.00  0.00     0.098 C 
ENDBRANCH   4   5
BRANCH   4   8
HETATM    8  C7  UNL     1      27.864  18.570  11.729  1.00  0.00     0.279 C 
BRANCH   8   9
HETATM    9  C8  UNL     1      27.170  19.831  11.502  1.00  0.00     0.075 C 
BRANCH   9  10
HETATM   10  C9  UNL     1      25.960  19.983  12.382  1.00  0.00     0.067 C 
BRANCH  10  11
HETATM   11  N2  UNL     1      26.091  20.300  13.726  1.00  0.00    -0.348 N 
HETATM   12  C10 UNL     1      25.980  19.344  14.740  1.00  0.00     0.166 C 
HETATM   13  C11 UNL     1      27.401  19.244  15.266  1.00  0.00     0.260 C 
HETATM   14  O1  UNL     1      27.900  18.262  15.914  1.00  0.00    -0.267 OA
HETATM   15  N3  UNL     1      28.052  20.441  14.896  1.00  0.00    -0.331 N 
HETATM   16  C16 UNL     1      27.184  21.190  14.043  1.00  0.00     0.256 C 
BRANCH  15  17
HETATM   17  C12 UNL     1      29.389  20.819  15.322  1.00  0.00     0.129 C 
BRANCH  17  18
HETATM   18  C13 UNL     1      29.961  21.872  14.422  1.00  0.00     0.034 C 
BRANCH  18  19
HETATM   19  C14 UNL     1      30.235  23.168  15.145  1.00  0.00     0.125 C 
HETATM   20  C15 UNL     1      29.344  24.181  14.558  1.00  0.00     0.059 C 
HETATM   21  N4  UNL     1      28.640  24.992  14.104  1.00  0.00    -0.197 NA
ENDBRANCH  18  19
ENDBRANCH  17  18
ENDBRANCH  15  17
ENDBRANCH  10  11
ENDBRANCH   9  10
ENDBRANCH   8   9
ENDBRANCH   4   8
ENDBRANCH   3   4
TORSDOF 9
ENDMDL
MODEL 2
REMARK VINA RESULT: -7.555374971      1.320      1.368
REMARK  9 active torsions:
REMARK  status: ('A' for Active; 'I' for Inactive)
REMARK    1  A    between atoms: C3_3  and  N1_4 
REMARK    2  A    between atoms: N1_4  and  C4_5 
REMARK    3  A    between atoms: N1_4  and  C7_8 
REMARK    4  A    between atoms: C7_8  and  C8_9 
REMARK    5  A    between atoms: C8_9  and  C9_10 
REMARK    6  A    between atoms: C9_10  and  N2_11 
REMARK    7  A    between atoms: N3_15  and  C12_16 
REMARK    8  A    between atoms: C12_16  and  C13_17 
REMARK    9  A    between atoms: C13_17  and  C14_18 
ROOT
HETATM    1  C1  UNL     1      29.258  15.717  11.176  1.00  0.00     0.013 C 
HETATM    2  C2  UNL     1      29.520  16.823  11.544  1.00  0.00    -0.087 C 
HETATM    3  C3  UNL     1      29.825  18.156  11.966  1.00  0.00     0.366 C 
ENDROOT
BRANCH   3   4
HETATM    4  N1  UNL     1      29.118  19.189  11.148  1.00  0.00     0.109 N 
BRANCH   4   5
HETATM    5  C4  UNL     1      29.593  20.491  11.546  1.00  0.00     0.353 C 
HETATM    6  C5  UNL     1      29.965  21.273  10.386  1.00  0.00    -0.158 C 
HETATM    7  C6  UNL     1      30.318  21.947   9.419  1.00  0.00     0.098 C 
ENDBRANCH   4   5
BRANCH   4   8
HETATM    8  C7  UNL     1      27.725  18.933  11.603  1.00  0.00     0.279 C 
BRANCH   8   9
HETATM    9  C8  UNL     1      26.800  20.057  11.531  1.00  0.00     0.075 C 
BRANCH   9  10
HETATM   10  C9  UNL     1      25.668  19.929  12.513  1.00  0.00     0.067 C 
BRANCH  10  11
HETATM   11  N2  UNL     1      25.871  20.149  13.868  1.00  0.00    -0.348 N 
HETATM   12  C10 UNL     1      25.741  19.136  14.823  1.00  0.00     0.166 C 
HETATM   13  C11 UNL     1      27.172  18.919  15.280  1.00  0.00     0.260 C 
HETATM   14  O1  UNL     1      27.636  17.869  15.843  1.00  0.00    -0.267 OA
HETATM   15  N3  UNL     1      27.880  20.098  14.959  1.00  0.00    -0.331 N 
HETATM   16  C16 UNL     1      27.027  20.951  14.193  1.00  0.00     0.256 C 
BRANCH  15  17
HETATM   17  C12 UNL     1      29.254  20.369  15.350  1.00  0.00     0.129 C 
BRANCH  17  18
HETATM   18  C13 UNL     1      29.630  21.786  15.041  1.00  0.00     0.034 C 
BRANCH  18  19
HETATM   19  C14 UNL     1      30.656  22.337  16.001  1.00  0.00     0.125 C 
HETATM   20  C15 UNL     1      31.720  22.944  15.186  1.00  0.00     0.059 C 
HETATM   21  N4  UNL     1      32.569  23.431  14.552  1.00  0.00    -0.197 NA
ENDBRANCH  18  19
ENDBRANCH  17  18
ENDBRANCH  15  17
ENDBRANCH  10  11
ENDBRANCH   9  10
ENDBRANCH   8   9
ENDBRANCH   4   8
ENDBRANCH   3   4
TORSDOF 9
ENDMDL
MODEL 3
REMARK VINA RESULT: -7.555181304      1.533      2.006
REMARK  9 active torsions:
REMARK  status: ('A' for Active; 'I' for Inactive)
REMARK    1  A    between atoms: C3_3  and  N1_4 
REMARK    2  A    between atoms: N1_4  and  C4_5 
REMARK    3  A    between atoms: N1_4  and  C7_8 
REMARK    4  A    between atoms: C7_8  and  C8_9 
REMARK    5  A    between atoms: C8_9  and  C9_10 
REMARK    6  A    between atoms: C9_10  and  N2_11 
REMARK    7  A    between atoms: N3_15  and  C12_16 
REMARK    8  A    between atoms: C12_16  and  C13_17 
REMARK    9  A    between atoms: C13_17  and  C14_18 
ROOT
HETATM    1  C1  UNL     1      28.987  14.433  10.786  1.00  0.00     0.013 C 
HETATM    2  C2  UNL     1      29.269  15.535  11.153  1.00  0.00    -0.087 C 
HETATM    3  C3  UNL     1      29.586  16.861  11.588  1.00  0.00     0.366 C 
ENDROOT
BRANCH   3   4
HETATM    4  N1  UNL     1      28.365  17.692  11.821  1.00  0.00     0.109 N 
BRANCH   4   5
HETATM    5  C4  UNL     1      28.776  19.053  12.059  1.00  0.00     0.353 C 
HETATM    6  C5  UNL     1      29.806  19.445  11.121  1.00  0.00    -0.158 C 
HETATM    7  C6  UNL     1      30.703  19.793  10.354  1.00  0.00     0.098 C 
ENDBRANCH   4   5
BRANCH   4   8
HETATM    8  C7  UNL     1      27.863  17.029  13.054  1.00  0.00     0.279 C 
BRANCH   8   9
HETATM    9  C8  UNL     1      26.872  17.764  13.831  1.00  0.00     0.075 C 
BRANCH   9  10
HETATM   10  C9  UNL     1      27.151  17.714  15.307  1.00  0.00     0.067 C 
BRANCH  10  11
HETATM   11  N2  UNL     1      27.357  18.878  16.033  1.00  0.00    -0.348 N 
HETATM   12  C10 UNL     1      28.001  18.887  17.275  1.00  0.00     0.166 C 
HETATM   13  C11 UNL     1      29.313  19.586  16.968  1.00  0.00     0.260 C 
HETATM   14  O1  UNL     1      30.390  19.507  17.652  1.00  0.00    -0.267 OA
HETATM   15  N3  UNL     1      29.105  20.332  15.788  1.00  0.00    -0.331 N 
HETATM   16  C16 UNL     1      27.815  20.009  15.262  1.00  0.00     0.256 C 
BRANCH  15  17
HETATM   17  C12 UNL     1      30.066  21.264  15.219  1.00  0.00     0.129 C 
BRANCH  17  18
HETATM   18  C13 UNL     1      30.168  22.504  16.054  1.00  0.00     0.034 C 
BRANCH  18  19
HETATM   19  C14 UNL     1      30.682  23.689  15.273  1.00  0.00     0.125 C 
HETATM   20  C15 UNL     1      29.513  24.332  14.654  1.00  0.00     0.059 C 
HETATM   21  N4  UNL     1      28.594  24.854  14.162  1.00  0.00    -0.197 NA
ENDBRANCH  18  19
ENDBRANCH  17  18
ENDBRANCH  15  17
ENDBRANCH  10  11
ENDBRANCH   9  10
ENDBRANCH   8   9
ENDBRANCH   4   8
ENDBRANCH   3   4
TORSDOF 9
ENDMDL
MODEL 4
REMARK VINA RESULT: -7.525361298      2.551      4.298
REMARK  9 active torsions:
REMARK  status: ('A' for Active; 'I' for Inactive)
REMARK    1  A    between atoms: C3_3  and  N1_4 
REMARK    2  A    between atoms: N1_4  and  C4_5 
REMARK    3  A    between atoms: N1_4  and  C7_8 
REMARK    4  A    between atoms: C7_8  and  C8_9 
REMARK    5  A    between atoms: C8_9  and  C9_10 
REMARK    6  A    between atoms: C9_10  and  N2_11 
REMARK    7  A    between atoms: N3_15  and  C12_16 
REMARK    8  A    between atoms: C12_16  and  C13_17 
REMARK    9  A    between atoms: C13_17  and  C14_18 
ROOT
HETATM    1  C1  UNL     1      28.840  16.963  12.177  1.00  0.00     0.013 C 
HETATM    2  C2  UNL     1      28.018  16.985  13.045  1.00  0.00    -0.087 C 
HETATM    3  C3  UNL     1      27.044  17.028  14.092  1.00  0.00     0.366 C 
ENDROOT
BRANCH   3   4
HETATM    4  N1  UNL     1      27.074  18.320  14.845  1.00  0.00     0.109 N 
BRANCH   4   5
HETATM    5  C4  UNL     1      27.111  18.025  16.256  1.00  0.00     0.353 C 
HETATM    6  C5  UNL     1      28.082  18.864  16.925  1.00  0.00    -0.158 C 
HETATM    7  C6  UNL     1      28.923  19.544  17.512  1.00  0.00     0.098 C 
ENDBRANCH   4   5
BRANCH   4   8
HETATM    8  C7  UNL     1      25.759  18.869  14.417  1.00  0.00     0.279 C 
BRANCH   8   9
HETATM    9  C8  UNL     1      25.758  20.238  13.918  1.00  0.00     0.075 C 
BRANCH   9  10
HETATM   10  C9  UNL     1      26.802  20.461  12.859  1.00  0.00     0.067 C 
BRANCH  10  11
HETATM   11  N2  UNL     1      28.123  20.709  13.202  1.00  0.00    -0.348 N 
HETATM   12  C10 UNL     1      29.137  20.841  12.247  1.00  0.00     0.166 C 
HETATM   13  C11 UNL     1      29.490  22.315  12.334  1.00  0.00     0.260 C 
HETATM   14  O1  UNL     1      30.068  23.009  11.429  1.00  0.00    -0.267 OA
HETATM   15  N3  UNL     1      29.054  22.759  13.601  1.00  0.00    -0.331 N 
HETATM   16  C16 UNL     1      28.315  21.708  14.227  1.00  0.00     0.256 C 
BRANCH  15  17
HETATM   17  C12 UNL     1      29.321  24.078  14.151  1.00  0.00     0.129 C 
BRANCH  17  18
HETATM   18  C13 UNL     1      30.065  23.978  15.448  1.00  0.00     0.034 C 
BRANCH  18  19
HETATM   19  C14 UNL     1      31.425  23.342  15.290  1.00  0.00     0.125 C 
HETATM   20  C15 UNL     1      31.935  23.082  16.645  1.00  0.00     0.059 C 
HETATM   21  N4  UNL     1      32.349  22.868  17.713  1.00  0.00    -0.197 NA
ENDBRANCH  18  19
ENDBRANCH  17  18
ENDBRANCH  15  17
ENDBRANCH  10  11
ENDBRANCH   9  10
ENDBRANCH   8   9
ENDBRANCH   4   8
ENDBRANCH   3   4
TORSDOF 9
ENDMDL
MODEL 5
REMARK VINA RESULT: -7.442663110      2.497      4.849
REMARK  9 active torsions:
REMARK  status: ('A' for Active; 'I' for Inactive)
REMARK    1  A    between atoms: C3_3  and  N1_4 
REMARK    2  A    between atoms: N1_4  and  C4_5 
REMARK    3  A    between atoms: N1_4  and  C7_8 
REMARK    4  A    between atoms: C7_8  and  C8_9 
REMARK    5  A    between atoms: C8_9  and  C9_10 
REMARK    6  A    between atoms: C9_10  and  N2_11 
REMARK    7  A    between atoms: N3_15  and  C12_16 
REMARK    8  A    between atoms: C12_16  and  C13_17 
REMARK    9  A    between atoms: C13_17  and  C14_18 
ROOT
HETATM    1  C1  UNL     1      25.468  20.062  12.272  1.00  0.00     0.013 C 
HETATM    2  C2  UNL     1      25.678  19.571  13.341  1.00  0.00    -0.087 C 
HETATM    3  C3  UNL     1      25.947  18.973  14.613  1.00  0.00     0.366 C 
ENDROOT
BRANCH   3   4
HETATM    4  N1  UNL     1      27.336  18.425  14.702  1.00  0.00     0.109 N 
BRANCH   4   5
HETATM    5  C4  UNL     1      27.341  17.098  14.140  1.00  0.00     0.353 C 
HETATM    6  C5  UNL     1      28.176  17.049  12.959  1.00  0.00    -0.158 C 
HETATM    7  C6  UNL     1      28.856  16.988  11.935  1.00  0.00     0.098 C 
ENDBRANCH   4   5
BRANCH   4   8
HETATM    8  C7  UNL     1      27.487  18.412  16.182  1.00  0.00     0.279 C 
BRANCH   8   9
HETATM    9  C8  UNL     1      28.512  19.285  16.740  1.00  0.00     0.075 C 
BRANCH   9  10
HETATM   10  C9  UNL     1      29.324  19.966  15.673  1.00  0.00     0.067 C 
BRANCH  10  11
HETATM   11  N2  UNL     1      29.218  21.332  15.460  1.00  0.00    -0.348 N 
HETATM   12  C10 UNL     1      30.240  22.228  15.788  1.00  0.00     0.166 C 
HETATM   13  C11 UNL     1      30.737  22.685  14.428  1.00  0.00     0.260 C 
HETATM   14  O1  UNL     1      31.883  23.192  14.173  1.00  0.00    -0.267 OA
HETATM   15  N3  UNL     1      29.691  22.437  13.513  1.00  0.00    -0.331 N 
HETATM   16  C16 UNL     1      28.657  21.712  14.184  1.00  0.00     0.256 C 
BRANCH  15  17
HETATM   17  C12 UNL     1      29.695  22.855  12.121  1.00  0.00     0.129 C 
BRANCH  17  18
HETATM   18  C13 UNL     1      29.503  21.682  11.209  1.00  0.00     0.034 C 
BRANCH  18  19
HETATM   19  C14 UNL     1      29.817  22.008   9.769  1.00  0.00     0.125 C 
HETATM   20  C15 UNL     1      31.229  22.417   9.722  1.00  0.00     0.059 C 
HETATM   21  N4  UNL     1      32.348  22.740   9.670  1.00  0.00    -0.197 NA
ENDBRANCH  18  19
ENDBRANCH  17  18
ENDBRANCH  15  17
ENDBRANCH  10  11
ENDBRANCH   9  10
ENDBRANCH   8   9
ENDBRANCH   4   8
ENDBRANCH   3   4
TORSDOF 9
ENDMDL
