MODEL 1
REMARK VINA RESULT: -7.450589828      0.000      0.000
REMARK  2 active torsions:
REMARK  status: ('A' for Active; 'I' for Inactive)
REMARK       I    between atoms: N1_1  and  C1_5 
REMARK       I    between atoms: C1_5  and  N2_6 
REMARK       I    between atoms: C1_5  and  N3_10 
REMARK    1  A    between atoms: N3_10  and  C2_12 
REMARK    2  A    between atoms: C2_12  and  C3_13 
ROOT
HETATM    1  C3  UNL     1     -11.691  -1.246 126.673  1.00  0.00     0.074 A 
HETATM    2  N4  UNL     1     -12.112  -0.515 125.620  1.00  0.00    -0.299 N 
ATOM      3  H4  UNL     1     -12.985   0.010 125.586  1.00  0.00     0.186 HD
HETATM    4  N5  UNL     1     -11.228  -0.578 124.634  1.00  0.00    -0.282 N 
ATOM      5  H5  UNL     1     -11.324  -0.108 123.734  1.00  0.00     0.188 HD
HETATM    6  C4  UNL     1     -10.178  -1.356 124.994  1.00  0.00     0.163 A 
HETATM    7  C5  UNL     1     -10.473  -1.771 126.272  1.00  0.00     0.118 A 
HETATM    8  N6  UNL     1      -9.373  -2.596 126.664  1.00  0.00    -0.279 N 
ATOM      9  H6  UNL     1      -9.111  -2.844 127.618  1.00  0.00     0.184 HD
HETATM   10  N7  UNL     1      -8.713  -3.003 125.475  1.00  0.00    -0.020 NA
HETATM   11  N8  UNL     1      -8.929  -1.914 124.626  1.00  0.00    -0.266 N 
ATOM     12  H8  UNL     1      -8.309  -1.584 123.886  1.00  0.00     0.186 HD
ENDROOT
BRANCH   1  13
HETATM   13  C2  UNL     1     -12.348  -1.467 127.989  1.00  0.00     0.179 C 
BRANCH  13  14
HETATM   14  N3  UNL     1     -13.227  -2.579 127.876  1.00  0.00    -0.369 N 
HETATM   15  C1  UNL     1     -13.087  -3.573 128.893  1.00  0.00     0.476 C 
HETATM   16  N1  UNL     1     -13.311  -3.126 130.222  1.00  0.00    -0.033 N 
HETATM   17  N2  UNL     1     -11.766  -4.197 128.726  1.00  0.00    -0.033 N 
ATOM     18  H13 UNL     1     -13.174  -3.882 130.892  1.00  0.00     0.278 HD
ATOM     19  H12 UNL     1     -12.566  -2.500 130.530  1.00  0.00     0.278 HD
ATOM     20  H11 UNL     1     -14.227  -2.692 130.338  1.00  0.00     0.278 HD
ATOM     21  H23 UNL     1     -11.022  -3.571 129.034  1.00  0.00     0.278 HD
ATOM     22  H22 UNL     1     -11.630  -4.954 129.396  1.00  0.00     0.278 HD
ATOM     23  H21 UNL     1     -11.606  -4.518 127.772  1.00  0.00     0.278 HD
ATOM     24  H3  UNL     1     -13.909  -2.662 127.123  1.00  0.00     0.157 HD
ENDBRANCH  13  14
ENDBRANCH   1  13
TORSDOF 2
ENDMDL
MODEL 2
REMARK VINA RESULT: -7.433716684      1.568      4.851
REMARK  2 active torsions:
REMARK  status: ('A' for Active; 'I' for Inactive)
REMARK       I    between atoms: N1_1  and  C1_5 
REMARK       I    between atoms: C1_5  and  N2_6 
REMARK       I    between atoms: C1_5  and  N3_10 
REMARK    1  A    between atoms: N3_10  and  C2_12 
REMARK    2  A    between atoms: C2_12  and  C3_13 
ROOT
HETATM    1  C3  UNL     1     -11.974  -2.891 127.842  1.00  0.00     0.074 A 
HETATM    2  N4  UNL     1     -13.210  -2.460 127.514  1.00  0.00    -0.299 N 
ATOM      3  H4  UNL     1     -13.420  -1.550 127.107  1.00  0.00     0.186 HD
HETATM    4  N5  UNL     1     -14.111  -3.389 127.797  1.00  0.00    -0.282 N 
ATOM      5  H5  UNL     1     -15.115  -3.295 127.639  1.00  0.00     0.188 HD
HETATM    6  C4  UNL     1     -13.509  -4.482 128.326  1.00  0.00     0.163 A 
HETATM    7  C5  UNL     1     -12.171  -4.165 128.351  1.00  0.00     0.118 A 
HETATM    8  N6  UNL     1     -11.523  -5.311 128.910  1.00  0.00    -0.279 N 
ATOM      9  H6  UNL     1     -10.535  -5.549 128.827  1.00  0.00     0.184 HD
HETATM   10  N7  UNL     1     -12.513  -6.054 129.603  1.00  0.00    -0.020 NA
HETATM   11  N8  UNL     1     -13.664  -5.787 128.853  1.00  0.00    -0.266 N 
ATOM     12  H8  UNL     1     -14.458  -6.411 128.713  1.00  0.00     0.186 HD
ENDROOT
BRANCH   1  13
HETATM   13  C2  UNL     1     -10.667  -2.197 127.705  1.00  0.00     0.179 C 
BRANCH  13  14
HETATM   14  N3  UNL     1      -9.839  -2.953 126.831  1.00  0.00    -0.369 N 
HETATM   15  C1  UNL     1      -9.339  -2.243 125.697  1.00  0.00     0.476 C 
HETATM   16  N1  UNL     1      -8.537  -1.109 125.989  1.00  0.00    -0.033 N 
HETATM   17  N2  UNL     1     -10.486  -1.913 124.837  1.00  0.00    -0.033 N 
ATOM     18  H13 UNL     1      -8.233  -0.643 125.134  1.00  0.00     0.278 HD
ATOM     19  H12 UNL     1      -9.096  -0.357 126.394  1.00  0.00     0.278 HD
ATOM     20  H11 UNL     1      -7.741  -1.338 126.585  1.00  0.00     0.278 HD
ATOM     21  H23 UNL     1     -11.045  -1.162 125.243  1.00  0.00     0.278 HD
ATOM     22  H22 UNL     1     -10.182  -1.447 123.982  1.00  0.00     0.278 HD
ATOM     23  H21 UNL     1     -11.061  -2.728 124.628  1.00  0.00     0.278 HD
ATOM     24  H3  UNL     1      -9.618  -3.934 127.001  1.00  0.00     0.157 HD
ENDBRANCH  13  14
ENDBRANCH   1  13
TORSDOF 2
ENDMDL
MODEL 3
REMARK VINA RESULT: -7.372154269      0.650      1.175
REMARK  2 active torsions:
REMARK  status: ('A' for Active; 'I' for Inactive)
REMARK       I    between atoms: N1_1  and  C1_5 
REMARK       I    between atoms: C1_5  and  N2_6 
REMARK       I    between atoms: C1_5  and  N3_10 
REMARK    1  A    between atoms: N3_10  and  C2_12 
REMARK    2  A    between atoms: C2_12  and  C3_13 
ROOT
HETATM    1  C3  UNL     1     -11.119  -1.536 126.955  1.00  0.00     0.074 A 
HETATM    2  N4  UNL     1     -11.815  -0.750 126.109  1.00  0.00    -0.299 N 
ATOM      3  H4  UNL     1     -12.691  -0.281 126.337  1.00  0.00     0.186 HD
HETATM    4  N5  UNL     1     -11.199  -0.674 124.938  1.00  0.00    -0.282 N 
ATOM      5  H5  UNL     1     -11.534  -0.139 124.137  1.00  0.00     0.188 HD
HETATM    6  C4  UNL     1     -10.062  -1.411 124.959  1.00  0.00     0.163 A 
HETATM    7  C5  UNL     1     -10.016  -1.948 126.224  1.00  0.00     0.118 A 
HETATM    8  N6  UNL     1      -8.819  -2.730 126.258  1.00  0.00    -0.279 N 
ATOM      9  H6  UNL     1      -8.320  -3.039 127.093  1.00  0.00     0.184 HD
HETATM   10  N7  UNL     1      -8.455  -2.995 124.913  1.00  0.00    -0.020 NA
HETATM   11  N8  UNL     1      -8.919  -1.855 124.249  1.00  0.00    -0.266 N 
ATOM     12  H8  UNL     1      -8.514  -1.427 123.416  1.00  0.00     0.186 HD
ENDROOT
BRANCH   1  13
HETATM   13  C2  UNL     1     -11.422  -1.907 128.363  1.00  0.00     0.179 C 
BRANCH  13  14
HETATM   14  N3  UNL     1     -11.631  -3.311 128.428  1.00  0.00    -0.369 N 
HETATM   15  C1  UNL     1     -12.963  -3.716 128.753  1.00  0.00     0.476 C 
HETATM   16  N1  UNL     1     -13.971  -3.288 127.849  1.00  0.00    -0.033 N 
HETATM   17  N2  UNL     1     -13.232  -3.293 130.135  1.00  0.00    -0.033 N 
ATOM     18  H13 UNL     1     -14.893  -3.596 128.155  1.00  0.00     0.278 HD
ATOM     19  H12 UNL     1     -14.109  -2.279 127.905  1.00  0.00     0.278 HD
ATOM     20  H11 UNL     1     -13.783  -3.582 126.890  1.00  0.00     0.278 HD
ATOM     21  H23 UNL     1     -13.371  -2.283 130.190  1.00  0.00     0.278 HD
ATOM     22  H22 UNL     1     -14.155  -3.601 130.441  1.00  0.00     0.278 HD
ATOM     23  H21 UNL     1     -12.508  -3.601 130.784  1.00  0.00     0.278 HD
ATOM     24  H3  UNL     1     -10.884  -3.984 128.257  1.00  0.00     0.157 HD
ENDBRANCH  13  14
ENDBRANCH   1  13
TORSDOF 2
ENDMDL
MODEL 4
REMARK VINA RESULT: -7.187163926      1.309      1.592
REMARK  2 active torsions:
REMARK  status: ('A' for Active; 'I' for Inactive)
REMARK       I    between atoms: N1_1  and  C1_5 
REMARK       I    between atoms: C1_5  and  N2_6 
REMARK       I    between atoms: C1_5  and  N3_10 
REMARK    1  A    between atoms: N3_10  and  C2_12 
REMARK    2  A    between atoms: C2_12  and  C3_13 
ROOT
HETATM    1  C3  UNL     1     -11.413  -2.482 127.151  1.00  0.00     0.074 A 
HETATM    2  N4  UNL     1     -12.300  -1.848 126.356  1.00  0.00    -0.299 N 
ATOM      3  H4  UNL     1     -13.270  -1.657 126.602  1.00  0.00     0.186 HD
HETATM    4  N5  UNL     1     -11.729  -1.509 125.209  1.00  0.00    -0.282 N 
ATOM      5  H5  UNL     1     -12.198  -1.020 124.447  1.00  0.00     0.188 HD
HETATM    6  C4  UNL     1     -10.433  -1.906 125.195  1.00  0.00     0.163 A 
HETATM    7  C5  UNL     1     -10.241  -2.514 126.413  1.00  0.00     0.118 A 
HETATM    8  N6  UNL     1      -8.875  -2.939 126.410  1.00  0.00    -0.279 N 
ATOM      9  H6  UNL     1      -8.310  -3.169 127.228  1.00  0.00     0.184 HD
HETATM   10  N7  UNL     1      -8.454  -2.981 125.056  1.00  0.00    -0.020 NA
HETATM   11  N8  UNL     1      -9.213  -1.960 124.477  1.00  0.00    -0.266 N 
ATOM     12  H8  UNL     1      -8.942  -1.369 123.691  1.00  0.00     0.186 HD
ENDROOT
BRANCH   1  13
HETATM   13  C2  UNL     1     -11.602  -3.039 128.517  1.00  0.00     0.179 C 
BRANCH  13  14
HETATM   14  N3  UNL     1     -11.375  -4.441 128.472  1.00  0.00    -0.369 N 
HETATM   15  C1  UNL     1     -12.430  -5.248 128.998  1.00  0.00     0.476 C 
HETATM   16  N1  UNL     1     -13.687  -5.110 128.353  1.00  0.00    -0.033 N 
HETATM   17  N2  UNL     1     -12.511  -4.988 130.444  1.00  0.00    -0.033 N 
ATOM     18  H13 UNL     1     -14.393  -5.699 128.793  1.00  0.00     0.278 HD
ATOM     19  H12 UNL     1     -14.098  -4.195 128.539  1.00  0.00     0.278 HD
ATOM     20  H11 UNL     1     -13.631  -5.290 127.350  1.00  0.00     0.278 HD
ATOM     21  H23 UNL     1     -12.922  -4.073 130.630  1.00  0.00     0.278 HD
ATOM     22  H22 UNL     1     -13.217  -5.577 130.884  1.00  0.00     0.278 HD
ATOM     23  H21 UNL     1     -11.608  -5.087 130.907  1.00  0.00     0.278 HD
ATOM     24  H3  UNL     1     -10.519  -4.844 128.092  1.00  0.00     0.157 HD
ENDBRANCH  13  14
ENDBRANCH   1  13
TORSDOF 2
ENDMDL
MODEL 5
REMARK VINA RESULT: -7.129709407      1.779      2.861
REMARK  2 active torsions:
REMARK  status: ('A' for Active; 'I' for Inactive)
REMARK       I    between atoms: N1_1  and  C1_5 
REMARK       I    between atoms: C1_5  and  N2_6 
REMARK       I    between atoms: C1_5  and  N3_10 
REMARK    1  A    between atoms: N3_10  and  C2_12 
REMARK    2  A    between atoms: C2_12  and  C3_13 
ROOT
HETATM    1  C3  UNL     1      -9.993  -1.050 125.579  1.00  0.00     0.074 A 
HETATM    2  N4  UNL     1      -9.065  -0.590 126.444  1.00  0.00    -0.299 N 
ATOM      3  H4  UNL     1      -9.210  -0.477 127.447  1.00  0.00     0.186 HD
HETATM    4  N5  UNL     1      -7.940  -0.308 125.805  1.00  0.00    -0.282 N 
ATOM      5  H5  UNL     1      -7.094   0.054 126.246  1.00  0.00     0.188 HD
HETATM    6  C4  UNL     1      -8.073  -0.570 124.482  1.00  0.00     0.163 A 
HETATM    7  C5  UNL     1      -9.360  -1.034 124.346  1.00  0.00     0.118 A 
HETATM    8  N6  UNL     1      -9.515  -1.313 122.952  1.00  0.00    -0.279 N 
ATOM      9  H6  UNL     1     -10.219  -1.918 122.529  1.00  0.00     0.184 HD
HETATM   10  N7  UNL     1      -8.504  -0.589 122.267  1.00  0.00    -0.020 NA
HETATM   11  N8  UNL     1      -7.465  -0.571 123.203  1.00  0.00    -0.266 N 
ATOM     12  H8  UNL     1      -6.465  -0.562 123.003  1.00  0.00     0.186 HD
ENDROOT
BRANCH   1  13
HETATM   13  C2  UNL     1     -11.390  -1.487 125.839  1.00  0.00     0.179 C 
BRANCH  13  14
HETATM   14  N3  UNL     1     -11.899  -0.750 126.943  1.00  0.00    -0.369 N 
HETATM   15  C1  UNL     1     -12.212  -1.524 128.102  1.00  0.00     0.476 C 
HETATM   16  N1  UNL     1     -11.127  -2.240 128.673  1.00  0.00    -0.033 N 
HETATM   17  N2  UNL     1     -13.343  -2.400 127.760  1.00  0.00    -0.033 N 
ATOM     18  H13 UNL     1     -11.430  -2.783 129.481  1.00  0.00     0.278 HD
ATOM     19  H12 UNL     1     -10.830  -3.004 128.065  1.00  0.00     0.278 HD
ATOM     20  H11 UNL     1     -10.342  -1.632 128.910  1.00  0.00     0.278 HD
ATOM     21  H23 UNL     1     -13.046  -3.164 127.152  1.00  0.00     0.278 HD
ATOM     22  H22 UNL     1     -13.646  -2.943 128.568  1.00  0.00     0.278 HD
ATOM     23  H21 UNL     1     -14.122  -1.886 127.350  1.00  0.00     0.278 HD
ATOM     24  H3  UNL     1     -12.032   0.261 126.910  1.00  0.00     0.157 HD
ENDBRANCH  13  14
ENDBRANCH   1  13
TORSDOF 2
ENDMDL
