MODEL 1
REMARK VINA RESULT: -6.679178715      0.000      0.000
REMARK  3 active torsions:
REMARK  status: ('A' for Active; 'I' for Inactive)
REMARK    1  A    between atoms: N1_1  and  C1_4 
REMARK    2  A    between atoms: C2_7  and  N3_8 
REMARK       I    between atoms: N4_11  and  C3_12 
REMARK       I    between atoms: C3_12  and  N5_13 
REMARK       I    between atoms: C3_12  and  N6_17 
REMARK    3  A    between atoms: N6_17  and  C4_20 
ROOT
HETATM    1  C1  UNL     1     -12.255  -2.052 127.172  1.00  0.00     0.705 A 
HETATM    2  N2  UNL     1     -11.145  -2.816 127.222  1.00  0.00    -0.020 N 
ATOM      3  H2  UNL     1     -10.211  -2.528 126.933  1.00  0.00     0.203 HD
HETATM    4  C2  UNL     1     -11.486  -4.049 127.728  1.00  0.00     0.711 A 
HETATM    5  N4  UNL     1     -12.821  -4.003 127.979  1.00  0.00    -0.051 N 
HETATM    6  C3  UNL     1     -13.640  -5.088 128.521  1.00  0.00     0.521 C 
HETATM    7  N5  UNL     1     -13.260  -5.438 129.877  1.00  0.00    -0.030 N 
ATOM      8  H51 UNL     1     -13.830  -6.194 130.255  1.00  0.00     0.279 HD
ATOM      9  H52 UNL     1     -13.278  -4.621 130.488  1.00  0.00     0.279 HD
ATOM     10  H53 UNL     1     -12.266  -5.661 129.935  1.00  0.00     0.279 HD
HETATM   11  N6  UNL     1     -13.372  -6.245 127.706  1.00  0.00    -0.006 N 
ATOM     12  H61 UNL     1     -13.855  -7.061 128.080  1.00  0.00     0.283 HD
ATOM     13  H62 UNL     1     -12.404  -6.544 127.823  1.00  0.00     0.283 HD
HETATM   14  N9  UNL     1     -13.253  -2.802 127.638  1.00  0.00    -0.112 N 
ATOM     15  H9  UNL     1     -14.221  -2.490 127.720  1.00  0.00     0.206 HD
ENDROOT
BRANCH   4  16
HETATM   16  N3  UNL     1     -10.739  -4.980 127.914  1.00  0.00    -0.233 N 
ATOM     17  H32 UNL     1     -10.717  -5.865 127.408  1.00  0.00     0.174 HD
ATOM     18  H31 UNL     1     -10.004  -5.036 128.619  1.00  0.00     0.174 HD
ENDBRANCH   4  16
BRANCH  11  19
HETATM   19  C4  UNL     1     -13.676  -6.078 126.329  1.00  0.00     0.314 C 
HETATM   20  C5  UNL     1     -12.699  -6.878 125.459  1.00  0.00     0.182 C 
HETATM   21  N7  UNL     1     -13.589  -7.993 125.723  1.00  0.00    -0.143 NA
HETATM   22  N8  UNL     1     -14.638  -7.039 125.819  1.00  0.00    -0.113 NA
ENDBRANCH  11  19
BRANCH   1  23
HETATM   23  N1  UNL     1     -12.324  -0.819 126.748  1.00  0.00    -0.233 N 
ATOM     24  H12 UNL     1     -11.548  -0.213 126.483  1.00  0.00     0.174 HD
ATOM     25  H11 UNL     1     -13.177  -0.275 126.616  1.00  0.00     0.174 HD
ENDBRANCH   1  23
TORSDOF 3
ENDMDL
MODEL 2
REMARK VINA RESULT: -6.323239832      2.015      3.089
REMARK  3 active torsions:
REMARK  status: ('A' for Active; 'I' for Inactive)
REMARK    1  A    between atoms: N1_1  and  C1_4 
REMARK    2  A    between atoms: C2_7  and  N3_8 
REMARK       I    between atoms: N4_11  and  C3_12 
REMARK       I    between atoms: C3_12  and  N5_13 
REMARK       I    between atoms: C3_12  and  N6_17 
REMARK    3  A    between atoms: N6_17  and  C4_20 
ROOT
HETATM    1  C1  UNL     1     -10.508  -1.960 125.228  1.00  0.00     0.705 A 
HETATM    2  N2  UNL     1      -9.788  -2.145 126.353  1.00  0.00    -0.020 N 
ATOM      3  H2  UNL     1      -8.773  -2.234 126.402  1.00  0.00     0.203 HD
HETATM    4  C2  UNL     1     -10.652  -2.193 127.422  1.00  0.00     0.711 A 
HETATM    5  N4  UNL     1     -11.902  -2.032 126.910  1.00  0.00    -0.051 N 
HETATM    6  C3  UNL     1     -13.154  -2.019 127.667  1.00  0.00     0.521 C 
HETATM    7  N5  UNL     1     -13.234  -0.891 128.577  1.00  0.00    -0.030 N 
ATOM      8  H51 UNL     1     -14.106  -0.883 129.105  1.00  0.00     0.279 HD
ATOM      9  H52 UNL     1     -13.091  -0.010 128.084  1.00  0.00     0.279 HD
ATOM     10  H53 UNL     1     -12.426  -0.862 129.199  1.00  0.00     0.279 HD
HETATM   11  N6  UNL     1     -13.148  -3.207 128.482  1.00  0.00    -0.006 N 
ATOM     12  H61 UNL     1     -13.961  -3.220 129.096  1.00  0.00     0.283 HD
ATOM     13  H62 UNL     1     -12.403  -3.156 129.178  1.00  0.00     0.283 HD
HETATM   14  N9  UNL     1     -11.785  -1.896 125.601  1.00  0.00    -0.112 N 
ATOM     15  H9  UNL     1     -12.568  -1.761 124.962  1.00  0.00     0.206 HD
ENDROOT
BRANCH   4  16
HETATM   16  N3  UNL     1     -10.351  -2.343 128.582  1.00  0.00    -0.233 N 
ATOM     17  H32 UNL     1      -9.413  -2.444 128.968  1.00  0.00     0.174 HD
ATOM     18  H31 UNL     1     -10.993  -2.399 129.373  1.00  0.00     0.174 HD
ENDBRANCH   4  16
BRANCH  11  19
HETATM   19  C4  UNL     1     -13.060  -4.422 127.752  1.00  0.00     0.314 C 
HETATM   20  C5  UNL     1     -12.119  -5.408 128.455  1.00  0.00     0.182 C 
HETATM   21  N7  UNL     1     -13.286  -5.742 129.251  1.00  0.00    -0.143 NA
HETATM   22  N8  UNL     1     -14.068  -5.401 128.116  1.00  0.00    -0.113 NA
ENDBRANCH  11  19
BRANCH   1  23
HETATM   23  N1  UNL     1     -10.034  -1.864 124.015  1.00  0.00    -0.233 N 
ATOM     24  H12 UNL     1      -9.174  -1.401 123.723  1.00  0.00     0.174 HD
ATOM     25  H11 UNL     1     -10.460  -2.245 123.170  1.00  0.00     0.174 HD
ENDBRANCH   1  23
TORSDOF 3
ENDMDL
MODEL 3
REMARK VINA RESULT: -6.111776842      1.740      2.203
REMARK  3 active torsions:
REMARK  status: ('A' for Active; 'I' for Inactive)
REMARK    1  A    between atoms: N1_1  and  C1_4 
REMARK    2  A    between atoms: C2_7  and  N3_8 
REMARK       I    between atoms: N4_11  and  C3_12 
REMARK       I    between atoms: C3_12  and  N5_13 
REMARK       I    between atoms: C3_12  and  N6_17 
REMARK    3  A    between atoms: N6_17  and  C4_20 
ROOT
HETATM    1  C1  UNL     1     -11.640  -1.168 125.714  1.00  0.00     0.705 A 
HETATM    2  N2  UNL     1     -10.498  -1.847 125.942  1.00  0.00    -0.020 N 
ATOM      3  H2  UNL     1      -9.651  -1.794 125.377  1.00  0.00     0.203 HD
HETATM    4  C2  UNL     1     -10.669  -2.623 127.066  1.00  0.00     0.711 A 
HETATM    5  N4  UNL     1     -11.935  -2.390 127.502  1.00  0.00    -0.051 N 
HETATM    6  C3  UNL     1     -12.576  -2.998 128.668  1.00  0.00     0.521 C 
HETATM    7  N5  UNL     1     -11.933  -2.613 129.911  1.00  0.00    -0.030 N 
ATOM      8  H51 UNL     1     -12.380  -3.037 130.724  1.00  0.00     0.279 HD
ATOM      9  H52 UNL     1     -11.886  -1.598 130.002  1.00  0.00     0.279 HD
ATOM     10  H53 UNL     1     -10.934  -2.820 129.889  1.00  0.00     0.279 HD
HETATM   11  N6  UNL     1     -12.397  -4.421 128.535  1.00  0.00    -0.006 N 
ATOM     12  H61 UNL     1     -12.754  -4.903 129.359  1.00  0.00     0.283 HD
ATOM     13  H62 UNL     1     -11.408  -4.662 128.606  1.00  0.00     0.283 HD
HETATM   14  N9  UNL     1     -12.490  -1.521 126.677  1.00  0.00    -0.112 N 
ATOM     15  H9  UNL     1     -13.443  -1.166 126.765  1.00  0.00     0.206 HD
ENDROOT
BRANCH   4  16
HETATM   16  N3  UNL     1      -9.847  -3.357 127.563  1.00  0.00    -0.233 N 
ATOM     17  H32 UNL     1      -9.926  -3.865 128.443  1.00  0.00     0.174 HD
ATOM     18  H31 UNL     1      -8.929  -3.586 127.181  1.00  0.00     0.174 HD
ENDBRANCH   4  16
BRANCH  11  19
HETATM   19  C4  UNL     1     -12.958  -4.977 127.355  1.00  0.00     0.314 C 
HETATM   20  C5  UNL     1     -13.096  -6.499 127.487  1.00  0.00     0.182 C 
HETATM   21  N7  UNL     1     -14.339  -6.191 128.169  1.00  0.00    -0.143 NA
HETATM   22  N8  UNL     1     -14.410  -5.025 127.360  1.00  0.00    -0.113 NA
ENDBRANCH  11  19
BRANCH   1  23
HETATM   23  N1  UNL     1     -11.857  -0.331 124.735  1.00  0.00    -0.233 N 
ATOM     24  H12 UNL     1     -11.884  -0.542 123.738  1.00  0.00     0.174 HD
ATOM     25  H11 UNL     1     -12.034   0.669 124.826  1.00  0.00     0.174 HD
ENDBRANCH   1  23
TORSDOF 3
ENDMDL
MODEL 4
REMARK VINA RESULT: -5.863912157      2.371      2.894
REMARK  3 active torsions:
REMARK  status: ('A' for Active; 'I' for Inactive)
REMARK    1  A    between atoms: N1_1  and  C1_4 
REMARK    2  A    between atoms: C2_7  and  N3_8 
REMARK       I    between atoms: N4_11  and  C3_12 
REMARK       I    between atoms: C3_12  and  N5_13 
REMARK       I    between atoms: C3_12  and  N6_17 
REMARK    3  A    between atoms: N6_17  and  C4_20 
ROOT
HETATM    1  C1  UNL     1     -11.990  -1.764 126.303  1.00  0.00     0.705 A 
HETATM    2  N2  UNL     1     -10.868  -1.669 127.045  1.00  0.00    -0.020 N 
ATOM      3  H2  UNL     1      -9.962  -1.340 126.714  1.00  0.00     0.203 HD
HETATM    4  C2  UNL     1     -11.154  -2.092 128.323  1.00  0.00     0.711 A 
HETATM    5  N4  UNL     1     -12.468  -2.439 128.326  1.00  0.00    -0.051 N 
HETATM    6  C3  UNL     1     -13.226  -2.955 129.466  1.00  0.00     0.521 C 
HETATM    7  N5  UNL     1     -13.341  -1.981 130.535  1.00  0.00    -0.030 N 
ATOM      8  H51 UNL     1     -13.869  -2.341 131.330  1.00  0.00     0.279 HD
ATOM      9  H52 UNL     1     -13.738  -1.105 130.195  1.00  0.00     0.279 HD
ATOM     10  H53 UNL     1     -12.424  -1.641 130.825  1.00  0.00     0.279 HD
HETATM   11  N6  UNL     1     -12.465  -4.058 129.993  1.00  0.00    -0.006 N 
ATOM     12  H61 UNL     1     -12.901  -4.417 130.842  1.00  0.00     0.283 HD
ATOM     13  H62 UNL     1     -11.580  -3.727 130.377  1.00  0.00     0.283 HD
HETATM   14  N9  UNL     1     -12.940  -2.234 127.109  1.00  0.00    -0.112 N 
ATOM     15  H9  UNL     1     -13.904  -2.412 126.825  1.00  0.00     0.206 HD
ENDROOT
BRANCH   4  16
HETATM   16  N3  UNL     1     -10.383  -2.136 129.253  1.00  0.00    -0.233 N 
ATOM     17  H32 UNL     1     -10.279  -1.451 130.001  1.00  0.00     0.174 HD
ATOM     18  H31 UNL     1      -9.701  -2.870 129.440  1.00  0.00     0.174 HD
ENDBRANCH   4  16
BRANCH  11  19
HETATM   19  C4  UNL     1     -12.240  -5.114 129.070  1.00  0.00     0.314 C 
HETATM   20  C5  UNL     1     -11.559  -6.301 129.762  1.00  0.00     0.182 C 
HETATM   21  N7  UNL     1     -12.906  -6.670 130.156  1.00  0.00    -0.143 NA
HETATM   22  N8  UNL     1     -13.349  -6.044 128.959  1.00  0.00    -0.113 NA
ENDBRANCH  11  19
BRANCH   1  23
HETATM   23  N1  UNL     1     -12.108  -1.453 125.040  1.00  0.00    -0.233 N 
ATOM     24  H12 UNL     1     -12.384  -2.069 124.276  1.00  0.00     0.174 HD
ATOM     25  H11 UNL     1     -11.938  -0.535 124.628  1.00  0.00     0.174 HD
ENDBRANCH   1  23
TORSDOF 3
ENDMDL
MODEL 5
REMARK VINA RESULT: -5.860665094      4.110      6.145
REMARK  3 active torsions:
REMARK  status: ('A' for Active; 'I' for Inactive)
REMARK    1  A    between atoms: N1_1  and  C1_4 
REMARK    2  A    between atoms: C2_7  and  N3_8 
REMARK       I    between atoms: N4_11  and  C3_12 
REMARK       I    between atoms: C3_12  and  N5_13 
REMARK       I    between atoms: C3_12  and  N6_17 
REMARK    3  A    between atoms: N6_17  and  C4_20 
ROOT
HETATM    1  C1  UNL     1     -11.648  -1.260 127.018  1.00  0.00     0.705 A 
HETATM    2  N2  UNL     1     -10.570  -1.915 127.493  1.00  0.00    -0.020 N 
ATOM      3  H2  UNL     1     -10.336  -2.041 128.478  1.00  0.00     0.203 HD
HETATM    4  C2  UNL     1      -9.838  -2.383 126.426  1.00  0.00     0.711 A 
HETATM    5  N4  UNL     1     -10.505  -1.995 125.307  1.00  0.00    -0.051 N 
HETATM    6  C3  UNL     1     -10.104  -2.258 123.924  1.00  0.00     0.521 C 
HETATM    7  N5  UNL     1     -10.122  -3.674 123.608  1.00  0.00    -0.030 N 
ATOM      8  H51 UNL     1      -9.843  -3.858 122.644  1.00  0.00     0.279 HD
ATOM      9  H52 UNL     1     -11.033  -4.086 123.813  1.00  0.00     0.279 HD
ATOM     10  H53 UNL     1      -9.552  -4.206 124.265  1.00  0.00     0.279 HD
HETATM   11  N6  UNL     1      -8.735  -1.827 123.809  1.00  0.00    -0.006 N 
ATOM     12  H61 UNL     1      -8.367  -2.056 122.886  1.00  0.00     0.283 HD
ATOM     13  H62 UNL     1      -8.130  -2.410 124.388  1.00  0.00     0.283 HD
HETATM   14  N9  UNL     1     -11.578  -1.327 125.690  1.00  0.00    -0.112 N 
ATOM     15  H9  UNL     1     -12.262  -0.918 125.053  1.00  0.00     0.206 HD
ENDROOT
BRANCH   4  16
HETATM   16  N3  UNL     1      -8.812  -3.018 126.483  1.00  0.00    -0.233 N 
ATOM     17  H32 UNL     1      -8.650  -3.884 126.996  1.00  0.00     0.174 HD
ATOM     18  H31 UNL     1      -7.929  -2.786 126.028  1.00  0.00     0.174 HD
ENDBRANCH   4  16
BRANCH  11  19
HETATM   19  C4  UNL     1      -8.523  -0.453 124.099  1.00  0.00     0.314 C 
HETATM   20  C5  UNL     1      -7.708   0.215 122.985  1.00  0.00     0.182 C 
HETATM   21  N7  UNL     1      -8.989   0.351 122.316  1.00  0.00    -0.143 NA
HETATM   22  N8  UNL     1      -9.575   0.420 123.609  1.00  0.00    -0.113 NA
ENDBRANCH  11  19
BRANCH   1  23
HETATM   23  N1  UNL     1     -12.574  -0.678 127.732  1.00  0.00    -0.233 N 
ATOM     24  H12 UNL     1     -13.370  -0.140 127.391  1.00  0.00     0.174 HD
ATOM     25  H11 UNL     1     -12.637  -0.677 128.750  1.00  0.00     0.174 HD
ENDBRANCH   1  23
TORSDOF 3
ENDMDL
