MODEL 1
REMARK VINA RESULT: -7.420958244      0.000      0.000
REMARK  3 active torsions:
REMARK  status: ('A' for Active; 'I' for Inactive)
REMARK    1  A    between atoms: N1_1  and  C1_4 
REMARK    2  A    between atoms: C4_13  and  N6_14 
REMARK    3  A    between atoms: N6_14  and  N7_16 
REMARK       I    between atoms: N7_16  and  C5_18 
ROOT
HETATM    1  C1  UNL     1     -11.555  -1.013 127.089  1.00  0.00     0.133 A 
HETATM    2  N2  UNL     1     -10.506  -0.421 126.421  1.00  0.00    -0.315 N 
ATOM      3  H2  UNL     1     -10.541   0.579 126.225  1.00  0.00     0.170 HD
HETATM    4  C2  UNL     1      -9.441  -1.129 126.025  1.00  0.00     0.195 A 
HETATM    5  N3  UNL     1      -8.380  -0.475 125.336  1.00  0.00    -0.063 NA
HETATM    6  N4  UNL     1      -9.376  -2.447 126.274  1.00  0.00    -0.317 N 
ATOM      7  H4  UNL     1      -8.566  -2.991 125.977  1.00  0.00     0.169 HD
HETATM    8  C3  UNL     1     -10.398  -3.039 126.927  1.00  0.00     0.150 A 
HETATM    9  N5  UNL     1     -10.268  -4.418 127.167  1.00  0.00    -0.080 NA
HETATM   10  C4  UNL     1     -11.528  -2.373 127.366  1.00  0.00     0.133 A 
ENDROOT
BRANCH  10  11
HETATM   11  N6  UNL     1     -12.595  -3.011 128.046  1.00  0.00    -0.291 N 
ATOM     12  H6  UNL     1     -12.880  -2.612 128.940  1.00  0.00     0.187 HD
BRANCH  11  13
HETATM   13  N7  UNL     1     -13.290  -4.135 127.603  1.00  0.00    -0.253 N 
HETATM   14  C5  UNL     1     -13.591  -5.235 128.452  1.00  0.00     0.347 C 
HETATM   15  N8  UNL     1     -14.301  -6.360 127.964  1.00  0.00    -0.038 NA
HETATM   16  O1  UNL     1     -13.223  -5.211 129.650  1.00  0.00    -0.249 OA
ATOM     17  H7  UNL     1     -13.595  -4.170 126.630  1.00  0.00     0.191 HD
ENDBRANCH  11  13
ENDBRANCH  10  11
BRANCH   1  18
HETATM   18  N1  UNL     1     -12.534  -0.282 127.441  1.00  0.00    -0.383 N 
ATOM     19  H12 UNL     1     -12.633   0.675 127.104  1.00  0.00     0.157 HD
ATOM     20  H11 UNL     1     -13.230  -0.678 128.073  1.00  0.00     0.157 HD
ENDBRANCH   1  18
TORSDOF 3
ENDMDL
MODEL 2
REMARK VINA RESULT: -7.404851546      0.560      2.241
REMARK  3 active torsions:
REMARK  status: ('A' for Active; 'I' for Inactive)
REMARK    1  A    between atoms: N1_1  and  C1_4 
REMARK    2  A    between atoms: C4_13  and  N6_14 
REMARK    3  A    between atoms: N6_14  and  N7_16 
REMARK       I    between atoms: N7_16  and  C5_18 
ROOT
HETATM    1  C1  UNL     1     -10.509  -3.061 127.310  1.00  0.00     0.133 A 
HETATM    2  N2  UNL     1      -9.646  -2.363 126.496  1.00  0.00    -0.315 N 
ATOM      3  H2  UNL     1      -8.803  -2.822 126.152  1.00  0.00     0.170 HD
HETATM    4  C2  UNL     1      -9.889  -1.093 126.146  1.00  0.00     0.195 A 
HETATM    5  N3  UNL     1      -8.967  -0.409 125.303  1.00  0.00    -0.063 NA
HETATM    6  N4  UNL     1     -10.993  -0.471 126.587  1.00  0.00    -0.317 N 
ATOM      7  H4  UNL     1     -11.184   0.495 126.323  1.00  0.00     0.169 HD
HETATM    8  C3  UNL     1     -11.846  -1.145 127.387  1.00  0.00     0.150 A 
HETATM    9  N5  UNL     1     -12.989  -0.443 127.809  1.00  0.00    -0.080 NA
HETATM   10  C4  UNL     1     -11.661  -2.455 127.789  1.00  0.00     0.133 A 
ENDROOT
BRANCH  10  11
HETATM   11  N6  UNL     1     -12.566  -3.147 128.633  1.00  0.00    -0.291 N 
ATOM     12  H6  UNL     1     -12.510  -2.950 129.633  1.00  0.00     0.187 HD
BRANCH  11  13
HETATM   13  N7  UNL     1     -13.524  -4.071 128.221  1.00  0.00    -0.253 N 
HETATM   14  C5  UNL     1     -13.415  -5.463 128.490  1.00  0.00     0.347 C 
HETATM   15  N8  UNL     1     -14.411  -6.370 128.054  1.00  0.00    -0.038 NA
HETATM   16  O1  UNL     1     -12.421  -5.894 129.121  1.00  0.00    -0.249 OA
ATOM     17  H7  UNL     1     -14.338  -3.735 127.705  1.00  0.00     0.191 HD
ENDBRANCH  11  13
ENDBRANCH  10  11
BRANCH   1  18
HETATM   18  N1  UNL     1     -10.221  -4.266 127.601  1.00  0.00    -0.383 N 
ATOM     19  H12 UNL     1      -9.299  -4.522 127.954  1.00  0.00     0.157 HD
ATOM     20  H11 UNL     1     -10.940  -4.978 127.476  1.00  0.00     0.157 HD
ENDBRANCH   1  18
TORSDOF 3
ENDMDL
MODEL 3
REMARK VINA RESULT: -7.247749641      2.252      3.585
REMARK  3 active torsions:
REMARK  status: ('A' for Active; 'I' for Inactive)
REMARK    1  A    between atoms: N1_1  and  C1_4 
REMARK    2  A    between atoms: C4_13  and  N6_14 
REMARK    3  A    between atoms: N6_14  and  N7_16 
REMARK       I    between atoms: N7_16  and  C5_18 
ROOT
HETATM    1  C1  UNL     1     -12.656  -3.725 128.707  1.00  0.00     0.133 A 
HETATM    2  N2  UNL     1     -13.089  -2.427 128.559  1.00  0.00    -0.315 N 
ATOM      3  H2  UNL     1     -13.938  -2.126 129.038  1.00  0.00     0.170 HD
HETATM    4  C2  UNL     1     -12.420  -1.549 127.801  1.00  0.00     0.195 A 
HETATM    5  N3  UNL     1     -12.906  -0.216 127.675  1.00  0.00    -0.063 NA
HETATM    6  N4  UNL     1     -11.300  -1.924 127.163  1.00  0.00    -0.317 N 
ATOM      7  H4  UNL     1     -10.786  -1.260 126.585  1.00  0.00     0.169 HD
HETATM    8  C3  UNL     1     -10.866  -3.196 127.299  1.00  0.00     0.150 A 
HETATM    9  N5  UNL     1      -9.684  -3.525 126.615  1.00  0.00    -0.080 NA
HETATM   10  C4  UNL     1     -11.504  -4.154 128.064  1.00  0.00     0.133 A 
ENDROOT
BRANCH  10  11
HETATM   11  N6  UNL     1     -11.037  -5.487 128.193  1.00  0.00    -0.291 N 
ATOM     12  H6  UNL     1     -11.299  -5.991 129.040  1.00  0.00     0.187 HD
BRANCH  11  13
HETATM   13  N7  UNL     1     -10.251  -6.170 127.266  1.00  0.00    -0.253 N 
HETATM   14  C5  UNL     1     -10.807  -6.949 126.214  1.00  0.00     0.347 C 
HETATM   15  N8  UNL     1      -9.974  -7.628 125.292  1.00  0.00    -0.038 NA
HETATM   16  O1  UNL     1     -12.053  -7.037 126.101  1.00  0.00    -0.249 OA
ATOM     17  H7  UNL     1      -9.236  -6.109 127.346  1.00  0.00     0.191 HD
ENDBRANCH  11  13
ENDBRANCH  10  11
BRANCH   1  18
HETATM   18  N1  UNL     1     -13.336  -4.507 129.446  1.00  0.00    -0.383 N 
ATOM     19  H12 UNL     1     -14.331  -4.660 129.285  1.00  0.00     0.157 HD
ATOM     20  H11 UNL     1     -12.859  -4.986 130.209  1.00  0.00     0.157 HD
ENDBRANCH   1  18
TORSDOF 3
ENDMDL
MODEL 4
REMARK VINA RESULT: -7.228413901      2.108      4.970
REMARK  3 active torsions:
REMARK  status: ('A' for Active; 'I' for Inactive)
REMARK    1  A    between atoms: N1_1  and  C1_4 
REMARK    2  A    between atoms: C4_13  and  N6_14 
REMARK    3  A    between atoms: N6_14  and  N7_16 
REMARK       I    between atoms: N7_16  and  C5_18 
ROOT
HETATM    1  C1  UNL     1     -12.815  -3.266 129.193  1.00  0.00     0.133 A 
HETATM    2  N2  UNL     1     -13.682  -4.335 129.160  1.00  0.00    -0.315 N 
ATOM      3  H2  UNL     1     -14.544  -4.296 129.703  1.00  0.00     0.170 HD
HETATM    4  C2  UNL     1     -13.418  -5.426 128.429  1.00  0.00     0.195 A 
HETATM    5  N3  UNL     1     -14.343  -6.509 128.426  1.00  0.00    -0.063 NA
HETATM    6  N4  UNL     1     -12.289  -5.497 127.706  1.00  0.00    -0.317 N 
ATOM      7  H4  UNL     1     -12.084  -6.324 127.146  1.00  0.00     0.169 HD
HETATM    8  C3  UNL     1     -11.431  -4.456 127.732  1.00  0.00     0.150 A 
HETATM    9  N5  UNL     1     -10.272  -4.586 126.948  1.00  0.00    -0.080 NA
HETATM   10  C4  UNL     1     -11.636  -3.300 128.462  1.00  0.00     0.133 A 
ENDROOT
BRANCH  10  11
HETATM   11  N6  UNL     1     -10.722  -2.216 128.481  1.00  0.00    -0.291 N 
ATOM     12  H6  UNL     1     -10.538  -1.780 129.385  1.00  0.00     0.187 HD
BRANCH  11  13
HETATM   13  N7  UNL     1     -10.052  -1.693 127.376  1.00  0.00    -0.253 N 
HETATM   14  C5  UNL     1     -10.715  -0.968 126.349  1.00  0.00     0.347 C 
HETATM   15  N8  UNL     1      -9.998  -0.451 125.242  1.00  0.00    -0.038 NA
HETATM   16  O1  UNL     1     -11.953  -0.783 126.422  1.00  0.00    -0.249 OA
ATOM     17  H7  UNL     1      -9.045  -1.836 127.302  1.00  0.00     0.191 HD
ENDBRANCH  11  13
ENDBRANCH  10  11
BRANCH   1  18
HETATM   18  N1  UNL     1     -13.128  -2.259 129.905  1.00  0.00    -0.383 N 
ATOM     19  H12 UNL     1     -13.919  -2.286 130.548  1.00  0.00     0.157 HD
ATOM     20  H11 UNL     1     -12.563  -1.414 129.821  1.00  0.00     0.157 HD
ENDBRANCH   1  18
TORSDOF 3
ENDMDL
MODEL 5
REMARK VINA RESULT: -7.200426749      2.282      3.558
REMARK  3 active torsions:
REMARK  status: ('A' for Active; 'I' for Inactive)
REMARK    1  A    between atoms: N1_1  and  C1_4 
REMARK    2  A    between atoms: C4_13  and  N6_14 
REMARK    3  A    between atoms: N6_14  and  N7_16 
REMARK       I    between atoms: N7_16  and  C5_18 
ROOT
HETATM    1  C1  UNL     1      -8.332  -0.572 125.323  1.00  0.00     0.133 A 
HETATM    2  N2  UNL     1      -8.182   0.134 124.151  1.00  0.00    -0.315 N 
ATOM      3  H2  UNL     1      -7.741   1.053 124.175  1.00  0.00     0.170 HD
HETATM    4  C2  UNL     1      -8.602  -0.359 122.979  1.00  0.00     0.195 A 
HETATM    5  N3  UNL     1      -8.428   0.408 121.792  1.00  0.00    -0.063 NA
HETATM    6  N4  UNL     1      -9.186  -1.567 122.925  1.00  0.00    -0.317 N 
ATOM      7  H4  UNL     1      -9.506  -1.948 122.035  1.00  0.00     0.169 HD
HETATM    8  C3  UNL     1      -9.340  -2.269 124.068  1.00  0.00     0.150 A 
HETATM    9  N5  UNL     1      -9.948  -3.530 123.946  1.00  0.00    -0.080 NA
HETATM   10  C4  UNL     1      -8.931  -1.824 125.311  1.00  0.00     0.133 A 
ENDROOT
BRANCH  10  11
HETATM   11  N6  UNL     1      -9.105  -2.573 126.503  1.00  0.00    -0.291 N 
ATOM     12  H6  UNL     1      -8.326  -3.161 126.799  1.00  0.00     0.187 HD
BRANCH  11  13
HETATM   13  N7  UNL     1     -10.243  -2.577 127.307  1.00  0.00    -0.253 N 
HETATM   14  C5  UNL     1     -10.935  -3.770 127.652  1.00  0.00     0.347 C 
HETATM   15  N8  UNL     1     -12.089  -3.732 128.472  1.00  0.00    -0.038 NA
HETATM   16  O1  UNL     1     -10.519  -4.872 127.223  1.00  0.00    -0.249 OA
ATOM     17  H7  UNL     1     -10.595  -1.687 127.662  1.00  0.00     0.191 HD
ENDBRANCH  11  13
ENDBRANCH  10  11
BRANCH   1  18
HETATM   18  N1  UNL     1      -7.907  -0.049 126.401  1.00  0.00    -0.383 N 
ATOM     19  H12 UNL     1      -8.535   0.148 127.181  1.00  0.00     0.157 HD
ATOM     20  H11 UNL     1      -6.914   0.170 126.474  1.00  0.00     0.157 HD
ENDBRANCH   1  18
TORSDOF 3
ENDMDL
