MODEL 1
REMARK VINA RESULT: -7.179297962      0.000      0.000
REMARK  4 active torsions:
REMARK  status: ('A' for Active; 'I' for Inactive)
REMARK    1  A    between atoms: N1_1  and  C1_4 
REMARK    2  A    between atoms: C3_10  and  N4_11 
REMARK    3  A    between atoms: N4_11  and  N5_13 
REMARK    4  A    between atoms: N5_13  and  N6_14 
ROOT
HETATM    1  C1  UNL     1      -8.663  -1.205 124.913  1.00  0.00     0.225 A 
HETATM    2  N2  UNL     1      -8.732  -2.100 125.914  1.00  0.00    -0.305 N 
ATOM      3  H2  UNL     1      -8.035  -2.822 126.098  1.00  0.00     0.171 HD
HETATM    4  C2  UNL     1      -9.851  -1.911 126.638  1.00  0.00     0.162 A 
HETATM    5  N3  UNL     1     -10.393  -2.499 127.704  1.00  0.00    -0.320 N 
ATOM      6  H3  UNL     1      -9.893  -3.284 128.121  1.00  0.00     0.169 HD
HETATM    7  C3  UNL     1     -11.547  -2.131 128.262  1.00  0.00     0.189 A 
HETATM    8  C4  UNL     1     -12.182  -1.049 127.635  1.00  0.00     0.292 A 
HETATM    9  O1  UNL     1     -13.275  -0.686 128.146  1.00  0.00    -0.264 OA
HETATM   10  N7  UNL     1     -11.654  -0.444 126.561  1.00  0.00    -0.297 N 
ATOM     11  H7  UNL     1     -12.160   0.339 126.147  1.00  0.00     0.171 HD
HETATM   12  C5  UNL     1     -10.494  -0.816 126.005  1.00  0.00     0.199 A 
HETATM   13  O2  UNL     1      -9.725  -0.473 125.013  1.00  0.00    -0.258 OA
ENDROOT
BRANCH   7  14
HETATM   14  N4  UNL     1     -12.097  -2.763 129.406  1.00  0.00    -0.265 N 
ATOM     15  H4  UNL     1     -11.981  -2.313 130.314  1.00  0.00     0.186 HD
BRANCH  14  16
HETATM   16  N5  UNL     1     -12.790  -3.973 129.348  1.00  0.00    -0.028 NA
BRANCH  16  17
HETATM   17  N6  UNL     1     -12.561  -4.751 130.496  1.00  0.00    -0.329 N 
ATOM     18  H62 UNL     1     -12.448  -4.356 131.430  1.00  0.00     0.174 HD
ATOM     19  H61 UNL     1     -12.525  -5.745 130.270  1.00  0.00     0.174 HD
ENDBRANCH  16  17
ENDBRANCH  14  16
ENDBRANCH   7  14
BRANCH   1  20
HETATM   20  N1  UNL     1      -7.704  -1.107 124.020  1.00  0.00    -0.365 N 
ATOM     21  H12 UNL     1      -7.693  -1.488 123.074  1.00  0.00     0.159 HD
ATOM     22  H11 UNL     1      -6.812  -0.628 124.142  1.00  0.00     0.159 HD
ENDBRANCH   1  20
TORSDOF 4
ENDMDL
MODEL 2
REMARK VINA RESULT: -7.051323429      1.966      2.398
REMARK  4 active torsions:
REMARK  status: ('A' for Active; 'I' for Inactive)
REMARK    1  A    between atoms: N1_1  and  C1_4 
REMARK    2  A    between atoms: C3_10  and  N4_11 
REMARK    3  A    between atoms: N4_11  and  N5_13 
REMARK    4  A    between atoms: N5_13  and  N6_14 
ROOT
HETATM    1  C1  UNL     1      -8.826  -1.180 125.749  1.00  0.00     0.225 A 
HETATM    2  N2  UNL     1      -9.932  -0.835 126.431  1.00  0.00    -0.305 N 
ATOM      3  H2  UNL     1     -10.285   0.118 126.524  1.00  0.00     0.171 HD
HETATM    4  C2  UNL     1     -10.508  -1.924 126.975  1.00  0.00     0.162 A 
HETATM    5  N3  UNL     1     -11.588  -2.142 127.725  1.00  0.00    -0.320 N 
ATOM      6  H3  UNL     1     -12.160  -1.337 127.982  1.00  0.00     0.169 HD
HETATM    7  C3  UNL     1     -11.971  -3.343 128.162  1.00  0.00     0.189 A 
HETATM    8  C4  UNL     1     -11.137  -4.401 127.774  1.00  0.00     0.292 A 
HETATM    9  O1  UNL     1     -11.481  -5.544 128.178  1.00  0.00    -0.264 OA
HETATM   10  N7  UNL     1     -10.046  -4.202 127.021  1.00  0.00    -0.297 N 
ATOM     11  H7  UNL     1      -9.476  -5.010 126.769  1.00  0.00     0.171 HD
HETATM   12  C5  UNL     1      -9.665  -2.995 126.583  1.00  0.00     0.199 A 
HETATM   13  O2  UNL     1      -8.715  -2.463 125.871  1.00  0.00    -0.258 OA
ENDROOT
BRANCH   7  14
HETATM   14  N4  UNL     1     -13.134  -3.552 128.947  1.00  0.00    -0.265 N 
ATOM     15  H4  UNL     1     -14.033  -3.629 128.472  1.00  0.00     0.186 HD
BRANCH  14  16
HETATM   16  N5  UNL     1     -13.105  -3.657 130.338  1.00  0.00    -0.028 NA
BRANCH  16  17
HETATM   17  N6  UNL     1     -12.897  -4.986 130.747  1.00  0.00    -0.329 N 
ATOM     18  H62 UNL     1     -13.551  -5.744 130.550  1.00  0.00     0.174 HD
ATOM     19  H61 UNL     1     -12.019  -5.085 131.258  1.00  0.00     0.174 HD
ENDBRANCH  16  17
ENDBRANCH  14  16
ENDBRANCH   7  14
BRANCH   1  20
HETATM   20  N1  UNL     1      -8.027  -0.365 125.097  1.00  0.00    -0.365 N 
ATOM     21  H12 UNL     1      -8.158   0.633 124.930  1.00  0.00     0.159 HD
ATOM     22  H11 UNL     1      -7.144  -0.612 124.653  1.00  0.00     0.159 HD
ENDBRANCH   1  20
TORSDOF 4
ENDMDL
MODEL 3
REMARK VINA RESULT: -7.033169950      3.678      5.626
REMARK  4 active torsions:
REMARK  status: ('A' for Active; 'I' for Inactive)
REMARK    1  A    between atoms: N1_1  and  C1_4 
REMARK    2  A    between atoms: C3_10  and  N4_11 
REMARK    3  A    between atoms: N4_11  and  N5_13 
REMARK    4  A    between atoms: N5_13  and  N6_14 
ROOT
HETATM    1  C1  UNL     1     -14.142  -6.843 126.221  1.00  0.00     0.225 A 
HETATM    2  N2  UNL     1     -13.899  -5.568 125.870  1.00  0.00    -0.305 N 
ATOM      3  H2  UNL     1     -13.920  -5.213 124.914  1.00  0.00     0.171 HD
HETATM    4  C2  UNL     1     -13.624  -4.825 126.959  1.00  0.00     0.162 A 
HETATM    5  N3  UNL     1     -13.320  -3.545 127.172  1.00  0.00    -0.320 N 
ATOM      6  H3  UNL     1     -13.270  -2.926 126.363  1.00  0.00     0.169 HD
HETATM    7  C3  UNL     1     -13.077  -3.019 128.374  1.00  0.00     0.189 A 
HETATM    8  C4  UNL     1     -13.160  -3.928 129.439  1.00  0.00     0.292 A 
HETATM    9  O1  UNL     1     -12.932  -3.451 130.583  1.00  0.00    -0.264 OA
HETATM   10  N7  UNL     1     -13.463  -5.219 129.244  1.00  0.00    -0.297 N 
ATOM     11  H7  UNL     1     -13.510  -5.834 130.057  1.00  0.00     0.171 HD
HETATM   12  C5  UNL     1     -13.708  -5.743 128.036  1.00  0.00     0.199 A 
HETATM   13  O2  UNL     1     -14.017  -6.891 127.507  1.00  0.00    -0.258 OA
ENDROOT
BRANCH   7  14
HETATM   14  N4  UNL     1     -12.771  -1.649 128.578  1.00  0.00    -0.265 N 
ATOM     15  H4  UNL     1     -12.433  -1.358 129.495  1.00  0.00     0.186 HD
BRANCH  14  16
HETATM   16  N5  UNL     1     -12.909  -0.682 127.582  1.00  0.00    -0.028 NA
BRANCH  16  17
HETATM   17  N6  UNL     1     -11.700  -0.479 126.893  1.00  0.00    -0.329 N 
ATOM     18  H62 UNL     1     -11.234  -1.205 126.349  1.00  0.00     0.174 HD
ATOM     19  H61 UNL     1     -11.362   0.477 127.010  1.00  0.00     0.174 HD
ENDBRANCH  16  17
ENDBRANCH  14  16
ENDBRANCH   7  14
BRANCH   1  20
HETATM   20  N1  UNL     1     -14.444  -7.831 125.408  1.00  0.00    -0.365 N 
ATOM     21  H12 UNL     1     -14.425  -7.825 124.388  1.00  0.00     0.159 HD
ATOM     22  H11 UNL     1     -14.748  -8.765 125.679  1.00  0.00     0.159 HD
ENDBRANCH   1  20
TORSDOF 4
ENDMDL
MODEL 4
REMARK VINA RESULT: -7.001190043      1.968      2.742
REMARK  4 active torsions:
REMARK  status: ('A' for Active; 'I' for Inactive)
REMARK    1  A    between atoms: N1_1  and  C1_4 
REMARK    2  A    between atoms: C3_10  and  N4_11 
REMARK    3  A    between atoms: N4_11  and  N5_13 
REMARK    4  A    between atoms: N5_13  and  N6_14 
ROOT
HETATM    1  C1  UNL     1     -11.383  -1.244 125.964  1.00  0.00     0.225 A 
HETATM    2  N2  UNL     1     -11.112  -2.503 126.347  1.00  0.00    -0.305 N 
ATOM      3  H2  UNL     1     -10.557  -3.169 125.809  1.00  0.00     0.171 HD
HETATM    4  C2  UNL     1     -11.676  -2.763 127.542  1.00  0.00     0.162 A 
HETATM    5  N3  UNL     1     -11.721  -3.821 128.351  1.00  0.00    -0.320 N 
ATOM      6  H3  UNL     1     -11.231  -4.666 128.058  1.00  0.00     0.169 HD
HETATM    7  C3  UNL     1     -12.364  -3.848 129.520  1.00  0.00     0.189 A 
HETATM    8  C4  UNL     1     -13.018  -2.654 129.857  1.00  0.00     0.292 A 
HETATM    9  O1  UNL     1     -13.634  -2.659 130.956  1.00  0.00    -0.264 OA
HETATM   10  N7  UNL     1     -12.986  -1.579 129.055  1.00  0.00    -0.297 N 
ATOM     11  H7  UNL     1     -13.480  -0.738 129.352  1.00  0.00     0.171 HD
HETATM   12  C5  UNL     1     -12.337  -1.556 127.883  1.00  0.00     0.199 A 
HETATM   13  O2  UNL     1     -12.107  -0.730 126.904  1.00  0.00    -0.258 OA
ENDROOT
BRANCH   7  14
HETATM   14  N4  UNL     1     -12.385  -4.981 130.372  1.00  0.00    -0.265 N 
ATOM     15  H4  UNL     1     -12.668  -4.855 131.343  1.00  0.00     0.186 HD
BRANCH  14  16
HETATM   16  N5  UNL     1     -12.036  -6.263 129.943  1.00  0.00    -0.028 NA
BRANCH  16  17
HETATM   17  N6  UNL     1     -10.826  -6.685 130.519  1.00  0.00    -0.329 N 
ATOM     18  H62 UNL     1     -10.243  -6.087 131.106  1.00  0.00     0.174 HD
ATOM     19  H61 UNL     1     -10.615  -7.652 130.274  1.00  0.00     0.174 HD
ENDBRANCH  16  17
ENDBRANCH  14  16
ENDBRANCH   7  14
BRANCH   1  20
HETATM   20  N1  UNL     1     -10.986  -0.665 124.852  1.00  0.00    -0.365 N 
ATOM     21  H12 UNL     1     -10.751  -1.114 123.967  1.00  0.00     0.159 HD
ATOM     22  H11 UNL     1     -10.850   0.335 124.707  1.00  0.00     0.159 HD
ENDBRANCH   1  20
TORSDOF 4
ENDMDL
MODEL 5
REMARK VINA RESULT: -6.985937266      1.746      5.447
REMARK  4 active torsions:
REMARK  status: ('A' for Active; 'I' for Inactive)
REMARK    1  A    between atoms: N1_1  and  C1_4 
REMARK    2  A    between atoms: C3_10  and  N4_11 
REMARK    3  A    between atoms: N4_11  and  N5_13 
REMARK    4  A    between atoms: N5_13  and  N6_14 
ROOT
HETATM    1  C1  UNL     1     -12.559  -2.465 129.286  1.00  0.00     0.225 A 
HETATM    2  N2  UNL     1     -12.681  -1.580 128.282  1.00  0.00    -0.305 N 
ATOM      3  H2  UNL     1     -13.409  -0.868 128.218  1.00  0.00     0.171 HD
HETATM    4  C2  UNL     1     -11.707  -1.766 127.370  1.00  0.00     0.162 A 
HETATM    5  N3  UNL     1     -11.373  -1.185 126.218  1.00  0.00    -0.320 N 
ATOM      6  H3  UNL     1     -11.947  -0.408 125.892  1.00  0.00     0.169 HD
HETATM    7  C3  UNL     1     -10.337  -1.553 125.462  1.00  0.00     0.189 A 
HETATM    8  C4  UNL     1      -9.594  -2.630 125.969  1.00  0.00     0.292 A 
HETATM    9  O1  UNL     1      -8.612  -2.994 125.269  1.00  0.00    -0.264 OA
HETATM   10  N7  UNL     1      -9.915  -3.227 127.126  1.00  0.00    -0.297 N 
ATOM     11  H7  UNL     1      -9.338  -4.005 127.446  1.00  0.00     0.171 HD
HETATM   12  C5  UNL     1     -10.955  -2.854 127.883  1.00  0.00     0.199 A 
HETATM   13  O2  UNL     1     -11.527  -3.191 129.002  1.00  0.00    -0.258 OA
ENDROOT
BRANCH   7  14
HETATM   14  N4  UNL     1      -9.992  -0.910 124.247  1.00  0.00    -0.265 N 
ATOM     15  H4  UNL     1     -10.392  -1.264 123.378  1.00  0.00     0.186 HD
BRANCH  14  16
HETATM   16  N5  UNL     1      -9.130   0.186 124.183  1.00  0.00    -0.028 NA
BRANCH  16  17
HETATM   17  N6  UNL     1      -7.792  -0.202 124.368  1.00  0.00    -0.329 N 
ATOM     18  H62 UNL     1      -7.460  -0.700 125.194  1.00  0.00     0.174 HD
ATOM     19  H61 UNL     1      -7.211   0.078 123.578  1.00  0.00     0.174 HD
ENDBRANCH  16  17
ENDBRANCH  14  16
ENDBRANCH   7  14
BRANCH   1  20
HETATM   20  N1  UNL     1     -13.340  -2.560 130.339  1.00  0.00    -0.365 N 
ATOM     21  H12 UNL     1     -14.354  -2.452 130.373  1.00  0.00     0.159 HD
ATOM     22  H11 UNL     1     -13.045  -2.760 131.294  1.00  0.00     0.159 HD
ENDBRANCH   1  20
TORSDOF 4
ENDMDL
