MODEL 1
REMARK VINA RESULT: -6.983801478      0.000      0.000
REMARK  3 active torsions:
REMARK  status: ('A' for Active; 'I' for Inactive)
REMARK    1  A    between atoms: N1_1  and  C1_4 
REMARK    2  A    between atoms: C5_14  and  C6_15 
REMARK    3  A    between atoms: C6_15  and  N5_16 
ROOT
HETATM    1  C1  UNL     1     -12.122  -1.087 127.600  1.00  0.00     0.130 A 
HETATM    2  N2  UNL     1     -12.819  -1.709 128.606  1.00  0.00    -0.337 N 
ATOM      3  H2  UNL     1     -13.618  -1.242 129.036  1.00  0.00     0.168 HD
HETATM    4  C2  UNL     1     -12.453  -2.929 129.027  1.00  0.00     0.183 A 
HETATM    5  N3  UNL     1     -11.404  -3.555 128.471  1.00  0.00    -0.336 N 
ATOM      6  H3  UNL     1     -11.133  -4.483 128.796  1.00  0.00     0.168 HD
HETATM    7  C3  UNL     1     -10.700  -2.952 127.469  1.00  0.00     0.148 A 
HETATM    8  C4  UNL     1     -11.046  -1.700 127.011  1.00  0.00     0.119 A 
HETATM    9  N4  UNL     1     -10.261  -1.132 125.970  1.00  0.00    -0.363 N 
ATOM     10  H4  UNL     1     -10.196  -0.124 125.830  1.00  0.00     0.161 HD
HETATM   11  C5  UNL     1      -9.558  -2.073 125.121  1.00  0.00     0.222 C 
HETATM   12  N6  UNL     1      -8.719  -2.862 126.020  1.00  0.00    -0.112 NA
HETATM   13  N7  UNL     1      -9.583  -3.580 126.851  1.00  0.00    -0.285 N 
ATOM     14  H7  UNL     1      -9.410  -4.571 127.017  1.00  0.00     0.184 HD
ENDROOT
BRANCH  11  15
HETATM   15  C6  UNL     1      -8.753  -1.400 124.047  1.00  0.00     0.273 C 
BRANCH  15  16
HETATM   16  N5  UNL     1      -7.865  -0.452 124.693  1.00  0.00    -0.076 N 
ATOM     17  H53 UNL     1      -7.835   0.450 124.218  1.00  0.00     0.274 HD
ATOM     18  H52 UNL     1      -8.223  -0.120 125.588  1.00  0.00     0.274 HD
ATOM     19  H51 UNL     1      -6.948  -0.891 124.770  1.00  0.00     0.274 HD
ENDBRANCH  15  16
ENDBRANCH  11  15
BRANCH   1  20
HETATM   20  N1  UNL     1     -12.471   0.077 127.196  1.00  0.00    -0.383 N 
ATOM     21  H12 UNL     1     -12.520   0.257 126.194  1.00  0.00     0.157 HD
ATOM     22  H11 UNL     1     -12.696   0.810 127.869  1.00  0.00     0.157 HD
ENDBRANCH   1  20
TORSDOF 3
ENDMDL
MODEL 2
REMARK VINA RESULT: -6.663068853      1.555      4.830
REMARK  3 active torsions:
REMARK  status: ('A' for Active; 'I' for Inactive)
REMARK    1  A    between atoms: N1_1  and  C1_4 
REMARK    2  A    between atoms: C5_14  and  C6_15 
REMARK    3  A    between atoms: C6_15  and  N5_16 
ROOT
HETATM    1  C1  UNL     1      -9.848  -2.482 126.301  1.00  0.00     0.130 A 
HETATM    2  N2  UNL     1      -9.890  -1.432 125.417  1.00  0.00    -0.337 N 
ATOM      3  H2  UNL     1      -9.075  -1.218 124.841  1.00  0.00     0.168 HD
HETATM    4  C2  UNL     1     -11.000  -0.685 125.306  1.00  0.00     0.183 A 
HETATM    5  N3  UNL     1     -12.079  -0.956 126.056  1.00  0.00    -0.336 N 
ATOM      6  H3  UNL     1     -12.919  -0.384 125.966  1.00  0.00     0.168 HD
HETATM    7  C3  UNL     1     -12.056  -1.995 126.940  1.00  0.00     0.148 A 
HETATM    8  C4  UNL     1     -10.934  -2.784 127.082  1.00  0.00     0.119 A 
HETATM    9  N4  UNL     1     -10.981  -3.843 128.028  1.00  0.00    -0.363 N 
ATOM     10  H4  UNL     1     -10.137  -4.222 128.459  1.00  0.00     0.161 HD
HETATM   11  C5  UNL     1     -12.301  -4.354 128.344  1.00  0.00     0.222 C 
HETATM   12  N6  UNL     1     -13.061  -3.205 128.827  1.00  0.00    -0.112 NA
HETATM   13  N7  UNL     1     -13.177  -2.317 127.754  1.00  0.00    -0.285 N 
ATOM     14  H7  UNL     1     -14.082  -1.894 127.550  1.00  0.00     0.184 HD
ENDROOT
BRANCH  11  15
HETATM   15  C6  UNL     1     -12.269  -5.470 129.347  1.00  0.00     0.273 C 
BRANCH  15  16
HETATM   16  N5  UNL     1     -12.647  -4.915 130.633  1.00  0.00    -0.076 N 
ATOM     17  H53 UNL     1     -12.402  -5.522 131.415  1.00  0.00     0.274 HD
ATOM     18  H52 UNL     1     -12.077  -4.113 130.902  1.00  0.00     0.274 HD
ATOM     19  H51 UNL     1     -13.643  -4.699 130.595  1.00  0.00     0.274 HD
ENDBRANCH  15  16
ENDBRANCH  11  15
BRANCH   1  20
HETATM   20  N1  UNL     1      -8.791  -3.196 126.407  1.00  0.00    -0.383 N 
ATOM     21  H12 UNL     1      -8.817  -4.034 126.987  1.00  0.00     0.157 HD
ATOM     22  H11 UNL     1      -7.937  -2.929 125.916  1.00  0.00     0.157 HD
ENDBRANCH   1  20
TORSDOF 3
ENDMDL
MODEL 3
REMARK VINA RESULT: -6.576434866      1.477      4.265
REMARK  3 active torsions:
REMARK  status: ('A' for Active; 'I' for Inactive)
REMARK    1  A    between atoms: N1_1  and  C1_4 
REMARK    2  A    between atoms: C5_14  and  C6_15 
REMARK    3  A    between atoms: C6_15  and  N5_16 
ROOT
HETATM    1  C1  UNL     1     -11.102  -0.985 125.279  1.00  0.00     0.130 A 
HETATM    2  N2  UNL     1      -9.962  -0.546 124.651  1.00  0.00    -0.337 N 
ATOM      3  H2  UNL     1     -10.008   0.241 124.004  1.00  0.00     0.168 HD
HETATM    4  C2  UNL     1      -8.787  -1.149 124.887  1.00  0.00     0.183 A 
HETATM    5  N3  UNL     1      -8.712  -2.186 125.737  1.00  0.00    -0.336 N 
ATOM      6  H3  UNL     1      -7.815  -2.638 125.910  1.00  0.00     0.168 HD
HETATM    7  C3  UNL     1      -9.835  -2.635 126.369  1.00  0.00     0.148 A 
HETATM    8  C4  UNL     1     -11.060  -2.041 126.152  1.00  0.00     0.119 A 
HETATM    9  N4  UNL     1     -12.186  -2.569 126.841  1.00  0.00    -0.363 N 
ATOM     10  H4  UNL     1     -13.136  -2.460 126.486  1.00  0.00     0.161 HD
HETATM   11  C5  UNL     1     -11.902  -3.271 128.076  1.00  0.00     0.222 C 
HETATM   12  N6  UNL     1     -10.978  -4.342 127.715  1.00  0.00    -0.112 NA
HETATM   13  N7  UNL     1      -9.800  -3.729 127.277  1.00  0.00    -0.285 N 
ATOM     14  H7  UNL     1      -8.901  -4.072 127.615  1.00  0.00     0.184 HD
ENDROOT
BRANCH  11  15
HETATM   15  C6  UNL     1     -13.139  -3.797 128.745  1.00  0.00     0.273 C 
BRANCH  15  16
HETATM   16  N5  UNL     1     -12.815  -4.043 130.137  1.00  0.00    -0.076 N 
ATOM     17  H53 UNL     1     -12.253  -4.883 130.272  1.00  0.00     0.274 HD
ATOM     18  H52 UNL     1     -12.145  -3.372 130.513  1.00  0.00     0.274 HD
ATOM     19  H51 UNL     1     -13.691  -4.064 130.658  1.00  0.00     0.274 HD
ENDBRANCH  15  16
ENDBRANCH  11  15
BRANCH   1  20
HETATM   20  N1  UNL     1     -12.225  -0.409 125.056  1.00  0.00    -0.383 N 
ATOM     21  H12 UNL     1     -12.480   0.407 125.612  1.00  0.00     0.157 HD
ATOM     22  H11 UNL     1     -12.851  -0.763 124.333  1.00  0.00     0.157 HD
ENDBRANCH   1  20
TORSDOF 3
ENDMDL
MODEL 4
REMARK VINA RESULT: -6.412193676      1.481      4.662
REMARK  3 active torsions:
REMARK  status: ('A' for Active; 'I' for Inactive)
REMARK    1  A    between atoms: N1_1  and  C1_4 
REMARK    2  A    between atoms: C5_14  and  C6_15 
REMARK    3  A    between atoms: C6_15  and  N5_16 
ROOT
HETATM    1  C1  UNL     1      -9.945  -0.113 123.625  1.00  0.00     0.130 A 
HETATM    2  N2  UNL     1      -8.858   0.301 122.895  1.00  0.00    -0.337 N 
ATOM      3  H2  UNL     1      -8.964   1.036 122.196  1.00  0.00     0.168 HD
HETATM    4  C2  UNL     1      -7.655  -0.258 123.099  1.00  0.00     0.183 A 
HETATM    5  N3  UNL     1      -7.501  -1.225 124.017  1.00  0.00    -0.336 N 
ATOM      6  H3  UNL     1      -6.583  -1.644 124.166  1.00  0.00     0.168 HD
HETATM    7  C3  UNL     1      -8.570  -1.649 124.751  1.00  0.00     0.148 A 
HETATM    8  C4  UNL     1      -9.821  -1.099 124.569  1.00  0.00     0.119 A 
HETATM    9  N4  UNL     1     -10.888  -1.597 125.366  1.00  0.00    -0.363 N 
ATOM     10  H4  UNL     1     -11.862  -1.536 125.065  1.00  0.00     0.161 HD
HETATM   11  C5  UNL     1     -10.510  -2.198 126.629  1.00  0.00     0.222 C 
HETATM   12  N6  UNL     1      -9.583  -3.274 126.290  1.00  0.00    -0.112 NA
HETATM   13  N7  UNL     1      -8.451  -2.670 125.734  1.00  0.00    -0.285 N 
ATOM     14  H7  UNL     1      -7.524  -2.967 126.038  1.00  0.00     0.184 HD
ENDROOT
BRANCH  11  15
HETATM   15  C6  UNL     1     -11.689  -2.698 127.412  1.00  0.00     0.273 C 
BRANCH  15  16
HETATM   16  N5  UNL     1     -11.250  -3.848 128.181  1.00  0.00    -0.076 N 
ATOM     17  H53 UNL     1     -11.326  -3.705 129.187  1.00  0.00     0.274 HD
ATOM     18  H52 UNL     1     -11.889  -4.640 128.109  1.00  0.00     0.274 HD
ATOM     19  H51 UNL     1     -10.302  -4.075 127.882  1.00  0.00     0.274 HD
ENDBRANCH  15  16
ENDBRANCH  11  15
BRANCH   1  20
HETATM   20  N1  UNL     1     -11.094   0.420 123.432  1.00  0.00    -0.383 N 
ATOM     21  H12 UNL     1     -11.152   1.289 122.904  1.00  0.00     0.157 HD
ATOM     22  H11 UNL     1     -11.935  -0.022 123.803  1.00  0.00     0.157 HD
ENDBRANCH   1  20
TORSDOF 3
ENDMDL
MODEL 5
REMARK VINA RESULT: -6.409054046      1.219      4.818
REMARK  3 active torsions:
REMARK  status: ('A' for Active; 'I' for Inactive)
REMARK    1  A    between atoms: N1_1  and  C1_4 
REMARK    2  A    between atoms: C5_14  and  C6_15 
REMARK    3  A    between atoms: C6_15  and  N5_16 
ROOT
HETATM    1  C1  UNL     1      -9.181  -2.187 125.638  1.00  0.00     0.130 A 
HETATM    2  N2  UNL     1      -8.854  -1.678 124.405  1.00  0.00    -0.337 N 
ATOM      3  H2  UNL     1      -7.997  -1.979 123.941  1.00  0.00     0.168 HD
HETATM    4  C2  UNL     1      -9.658  -0.785 123.808  1.00  0.00     0.183 A 
HETATM    5  N3  UNL     1     -10.789  -0.380 124.408  1.00  0.00    -0.336 N 
ATOM      6  H3  UNL     1     -11.395   0.299 123.947  1.00  0.00     0.168 HD
HETATM    7  C3  UNL     1     -11.129  -0.876 125.633  1.00  0.00     0.148 A 
HETATM    8  C4  UNL     1     -10.329  -1.794 126.277  1.00  0.00     0.119 A 
HETATM    9  N4  UNL     1     -10.745  -2.260 127.554  1.00  0.00    -0.363 N 
ATOM     10  H4  UNL     1     -10.082  -2.623 128.239  1.00  0.00     0.161 HD
HETATM   11  C5  UNL     1     -12.167  -2.188 127.823  1.00  0.00     0.222 C 
HETATM   12  N6  UNL     1     -12.528  -0.783 127.650  1.00  0.00    -0.112 NA
HETATM   13  N7  UNL     1     -12.319  -0.475 126.302  1.00  0.00    -0.285 N 
ATOM     14  H7  UNL     1     -13.031   0.045 125.791  1.00  0.00     0.184 HD
ENDROOT
BRANCH  11  15
HETATM   15  C6  UNL     1     -12.529  -2.697 129.187  1.00  0.00     0.273 C 
BRANCH  15  16
HETATM   16  N5  UNL     1     -12.168  -4.101 129.242  1.00  0.00    -0.076 N 
ATOM     17  H53 UNL     1     -11.652  -4.346 130.086  1.00  0.00     0.274 HD
ATOM     18  H52 UNL     1     -12.972  -4.712 129.394  1.00  0.00     0.274 HD
ATOM     19  H51 UNL     1     -11.658  -4.322 128.387  1.00  0.00     0.274 HD
ENDBRANCH  15  16
ENDBRANCH  11  15
BRANCH   1  20
HETATM   20  N1  UNL     1      -8.415  -3.041 126.208  1.00  0.00    -0.383 N 
ATOM     21  H12 UNL     1      -8.698  -4.020 126.231  1.00  0.00     0.157 HD
ATOM     22  H11 UNL     1      -7.536  -2.743 126.631  1.00  0.00     0.157 HD
ENDBRANCH   1  20
TORSDOF 3
ENDMDL
