MODEL 1
REMARK VINA RESULT: -6.864619368      0.000      0.000
REMARK  5 active torsions:
REMARK  status: ('A' for Active; 'I' for Inactive)
REMARK    1  A    between atoms: C7_8  and  N1_9 
REMARK    2  A    between atoms: N1_9  and  N2_11 
REMARK    3  A    between atoms: N2_11  and  N3_13 
REMARK    4  A    between atoms: C8_15  and  C9_16 
REMARK    5  A    between atoms: N4_19  and  O1_20 
ROOT
HETATM    1  N2  UNL     1      44.287  14.543   0.734  1.00  0.00    -0.243 N 
ATOM      2  H2  UNL     1      43.827  15.269   0.185  1.00  0.00     0.208 HD
ENDROOT
BRANCH   1   3
HETATM    3  N1  UNL     1      44.416  14.675   2.098  1.00  0.00    -0.286 N 
ATOM      4  H1  UNL     1      43.637  14.314   2.649  1.00  0.00     0.188 HD
BRANCH   3   5
HETATM    5  C7  UNL     1      45.470  15.237   2.833  1.00  0.00     0.055 A 
HETATM    6  C2  UNL     1      46.505  14.532   3.384  1.00  0.00    -0.032 A 
HETATM    7  C1  UNL     1      46.577  13.062   3.233  1.00  0.00     0.050 C 
HETATM    8  C3  UNL     1      47.508  15.196   4.098  1.00  0.00     0.033 A 
HETATM    9  C4  UNL     1      47.494  16.547   4.271  1.00  0.00     0.034 A 
HETATM   10 CL1  UNL     1      48.732  17.402   5.157  1.00  0.00    -0.084 Cl
HETATM   11  C5  UNL     1      46.467  17.270   3.728  1.00  0.00     0.026 A 
HETATM   12  C6  UNL     1      45.489  16.614   3.030  1.00  0.00     0.033 A 
ENDBRANCH   3   5
ENDBRANCH   1   3
BRANCH   1  13
HETATM   13  N3  UNL     1      44.801  13.391   0.110  1.00  0.00    -0.297 N 
HETATM   14  C8  UNL     1      44.695  12.218   0.575  1.00  0.00     0.120 C 
ATOM     15  H3  UNL     1      45.292  13.509  -0.776  1.00  0.00     0.187 HD
BRANCH  14  16
HETATM   16  C9  UNL     1      45.266  11.097  -0.156  1.00  0.00    -0.017 A 
HETATM   17  C10 UNL     1      44.491  10.102  -0.719  1.00  0.00     0.032 A 
HETATM   18  C11 UNL     1      45.052   9.049  -1.408  1.00  0.00     0.123 A 
HETATM   19  N4  UNL     1      46.376   8.982  -1.539  1.00  0.00    -0.247 N 
HETATM   20  C12 UNL     1      47.154   9.928  -1.006  1.00  0.00     0.123 A 
HETATM   21  C13 UNL     1      46.626  10.989  -0.315  1.00  0.00     0.032 A 
BRANCH  19  22
HETATM   22  O1  UNL     1      46.962   7.944  -2.221  1.00  0.00    -0.284 OA
ATOM     23  H1  UNL     1      47.760   8.078  -2.718  1.00  0.00     0.245 HD
ENDBRANCH  19  22
ENDBRANCH  14  16
ENDBRANCH   1  13
TORSDOF 5
ENDMDL
MODEL 2
REMARK VINA RESULT: -6.863594233      4.354      5.316
REMARK  5 active torsions:
REMARK  status: ('A' for Active; 'I' for Inactive)
REMARK    1  A    between atoms: C7_8  and  N1_9 
REMARK    2  A    between atoms: N1_9  and  N2_11 
REMARK    3  A    between atoms: N2_11  and  N3_13 
REMARK    4  A    between atoms: C8_15  and  C9_16 
REMARK    5  A    between atoms: N4_19  and  O1_20 
ROOT
HETATM    1  N2  UNL     1      44.687  13.616   0.430  1.00  0.00    -0.243 N 
ATOM      2  H2  UNL     1      44.785  12.621   0.227  1.00  0.00     0.208 HD
ENDROOT
BRANCH   1   3
HETATM    3  N1  UNL     1      44.560  14.056   1.727  1.00  0.00    -0.286 N 
ATOM      4  H1  UNL     1      43.666  13.854   2.174  1.00  0.00     0.188 HD
BRANCH   3   5
HETATM    5  C7  UNL     1      45.492  14.744   2.519  1.00  0.00     0.055 A 
HETATM    6  C2  UNL     1      46.504  14.157   3.227  1.00  0.00    -0.032 A 
HETATM    7  C1  UNL     1      46.684  12.690   3.205  1.00  0.00     0.050 C 
HETATM    8  C3  UNL     1      47.380  14.942   3.985  1.00  0.00     0.033 A 
HETATM    9  C4  UNL     1      47.263  16.298   4.045  1.00  0.00     0.034 A 
HETATM   10 CL1  UNL     1      48.343  17.302   4.981  1.00  0.00    -0.084 Cl
HETATM   11  C5  UNL     1      46.258  16.903   3.343  1.00  0.00     0.026 A 
HETATM   12  C6  UNL     1      45.403  16.130   2.604  1.00  0.00     0.033 A 
ENDBRANCH   3   5
ENDBRANCH   1   3
BRANCH   1  13
HETATM   13  N3  UNL     1      44.679  14.561  -0.614  1.00  0.00    -0.297 N 
HETATM   14  C8  UNL     1      43.901  15.558  -0.670  1.00  0.00     0.120 C 
ATOM     15  H3  UNL     1      45.345  14.434  -1.375  1.00  0.00     0.187 HD
BRANCH  14  16
HETATM   16  C9  UNL     1      43.980  16.474  -1.798  1.00  0.00    -0.017 A 
HETATM   17  C10 UNL     1      43.100  16.424  -2.861  1.00  0.00     0.032 A 
HETATM   18  C11 UNL     1      43.193  17.302  -3.920  1.00  0.00     0.123 A 
HETATM   19  N4  UNL     1      44.155  18.223  -3.925  1.00  0.00    -0.247 N 
HETATM   20  C12 UNL     1      45.023  18.298  -2.913  1.00  0.00     0.123 A 
HETATM   21  C13 UNL     1      44.956  17.440  -1.844  1.00  0.00     0.032 A 
BRANCH  19  22
HETATM   22  O1  UNL     1      44.271  19.110  -4.968  1.00  0.00    -0.284 OA
ATOM     23  H1  UNL     1      44.032  18.855  -5.851  1.00  0.00     0.245 HD
ENDBRANCH  19  22
ENDBRANCH  14  16
ENDBRANCH   1  13
TORSDOF 5
ENDMDL
MODEL 3
REMARK VINA RESULT: -6.848400966      4.496      7.691
REMARK  5 active torsions:
REMARK  status: ('A' for Active; 'I' for Inactive)
REMARK    1  A    between atoms: C7_8  and  N1_9 
REMARK    2  A    between atoms: N1_9  and  N2_11 
REMARK    3  A    between atoms: N2_11  and  N3_13 
REMARK    4  A    between atoms: C8_15  and  C9_16 
REMARK    5  A    between atoms: N4_19  and  O1_20 
ROOT
HETATM    1  N2  UNL     1      46.826  10.778   2.100  1.00  0.00    -0.243 N 
ATOM      2  H2  UNL     1      46.737  10.015   2.771  1.00  0.00     0.208 HD
ENDROOT
BRANCH   1   3
HETATM    3  N1  UNL     1      46.828  10.522   0.748  1.00  0.00    -0.286 N 
ATOM      4  H1  UNL     1      47.748  10.472   0.311  1.00  0.00     0.188 HD
BRANCH   3   5
HETATM    5  C7  UNL     1      45.738  10.320  -0.112  1.00  0.00     0.055 A 
HETATM    6  C2  UNL     1      45.298  11.219  -1.044  1.00  0.00    -0.032 A 
HETATM    7  C1  UNL     1      45.974  12.524  -1.207  1.00  0.00     0.050 C 
HETATM    8  C3  UNL     1      44.199  10.914  -1.853  1.00  0.00     0.033 A 
HETATM    9  C4  UNL     1      43.535   9.728  -1.748  1.00  0.00     0.034 A 
HETATM   10 CL1  UNL     1      42.161   9.320  -2.745  1.00  0.00    -0.084 Cl
HETATM   11  C5  UNL     1      43.960   8.816  -0.822  1.00  0.00     0.026 A 
HETATM   12  C6  UNL     1      45.036   9.122  -0.033  1.00  0.00     0.033 A 
ENDBRANCH   3   5
ENDBRANCH   1   3
BRANCH   1  13
HETATM   13  N3  UNL     1      46.950  12.108   2.541  1.00  0.00    -0.297 N 
HETATM   14  C8  UNL     1      46.007  12.953   2.538  1.00  0.00     0.120 C 
ATOM     15  H3  UNL     1      47.860  12.412   2.887  1.00  0.00     0.187 HD
BRANCH  14  16
HETATM   16  C9  UNL     1      46.247  14.305   3.019  1.00  0.00    -0.017 A 
HETATM   17  C10 UNL     1      45.478  15.384   2.626  1.00  0.00     0.032 A 
HETATM   18  C11 UNL     1      45.724  16.657   3.093  1.00  0.00     0.123 A 
HETATM   19  N4  UNL     1      46.726  16.860   3.946  1.00  0.00    -0.247 N 
HETATM   20  C12 UNL     1      47.489  15.839   4.346  1.00  0.00     0.123 A 
HETATM   21  C13 UNL     1      47.270  14.560   3.899  1.00  0.00     0.032 A 
BRANCH  19  22
HETATM   22  O1  UNL     1      46.993  18.118   4.429  1.00  0.00    -0.284 OA
ATOM     23  H1  UNL     1      46.439  18.511   5.093  1.00  0.00     0.245 HD
ENDBRANCH  19  22
ENDBRANCH  14  16
ENDBRANCH   1  13
TORSDOF 5
ENDMDL
MODEL 4
REMARK VINA RESULT: -6.844576643      4.246      7.447
REMARK  5 active torsions:
REMARK  status: ('A' for Active; 'I' for Inactive)
REMARK    1  A    between atoms: C7_8  and  N1_9 
REMARK    2  A    between atoms: N1_9  and  N2_11 
REMARK    3  A    between atoms: N2_11  and  N3_13 
REMARK    4  A    between atoms: C8_15  and  C9_16 
REMARK    5  A    between atoms: N4_19  and  O1_20 
ROOT
HETATM    1  N2  UNL     1      44.576  12.938   0.607  1.00  0.00    -0.243 N 
ATOM      2  H2  UNL     1      44.010  13.323  -0.149  1.00  0.00     0.208 HD
ENDROOT
BRANCH   1   3
HETATM    3  N1  UNL     1      44.558  11.590   0.877  1.00  0.00    -0.286 N 
ATOM      4  H1  UNL     1      43.808  11.275   1.493  1.00  0.00     0.188 HD
BRANCH   3   5
HETATM    5  C7  UNL     1      45.428  10.588   0.421  1.00  0.00     0.055 A 
HETATM    6  C2  UNL     1      46.561  10.179   1.069  1.00  0.00    -0.032 A 
HETATM    7  C1  UNL     1      46.960  10.803   2.349  1.00  0.00     0.050 C 
HETATM    8  C3  UNL     1      47.357   9.166   0.525  1.00  0.00     0.033 A 
HETATM    9  C4  UNL     1      47.041   8.556  -0.652  1.00  0.00     0.034 A 
HETATM   10 CL1  UNL     1      48.015   7.289  -1.355  1.00  0.00    -0.084 Cl
HETATM   11  C5  UNL     1      45.911   8.950  -1.315  1.00  0.00     0.026 A 
HETATM   12  C6  UNL     1      45.137   9.942  -0.776  1.00  0.00     0.033 A 
ENDBRANCH   3   5
ENDBRANCH   1   3
BRANCH   1  13
HETATM   13  N3  UNL     1      45.390  13.778   1.390  1.00  0.00    -0.297 N 
HETATM   14  C8  UNL     1      44.971  14.481   2.357  1.00  0.00     0.120 C 
ATOM     15  H3  UNL     1      46.383  13.824   1.164  1.00  0.00     0.187 HD
BRANCH  14  16
HETATM   16  C9  UNL     1      45.904  15.315   3.100  1.00  0.00    -0.017 A 
HETATM   17  C10 UNL     1      45.710  16.671   3.280  1.00  0.00     0.032 A 
HETATM   18  C11 UNL     1      46.606  17.443   3.988  1.00  0.00     0.123 A 
HETATM   19  N4  UNL     1      47.689  16.874   4.514  1.00  0.00    -0.247 N 
HETATM   20  C12 UNL     1      47.907  15.565   4.357  1.00  0.00     0.123 A 
HETATM   21  C13 UNL     1      47.034  14.770   3.658  1.00  0.00     0.032 A 
BRANCH  19  22
HETATM   22  O1  UNL     1      48.599  17.619   5.223  1.00  0.00    -0.284 OA
ATOM     23  H1  UNL     1      48.837  17.378   6.111  1.00  0.00     0.245 HD
ENDBRANCH  19  22
ENDBRANCH  14  16
ENDBRANCH   1  13
TORSDOF 5
ENDMDL
MODEL 5
REMARK VINA RESULT: -6.838839605      2.030      2.752
REMARK  5 active torsions:
REMARK  status: ('A' for Active; 'I' for Inactive)
REMARK    1  A    between atoms: C7_8  and  N1_9 
REMARK    2  A    between atoms: N1_9  and  N2_11 
REMARK    3  A    between atoms: N2_11  and  N3_13 
REMARK    4  A    between atoms: C8_15  and  C9_16 
REMARK    5  A    between atoms: N4_19  and  O1_20 
ROOT
HETATM    1  N2  UNL     1      44.698  13.210   0.772  1.00  0.00    -0.243 N 
ATOM      2  H2  UNL     1      44.488  13.495  -0.185  1.00  0.00     0.208 HD
ENDROOT
BRANCH   1   3
HETATM    3  N1  UNL     1      44.465  14.066   1.823  1.00  0.00    -0.286 N 
ATOM      4  H1  UNL     1      43.497  14.123   2.138  1.00  0.00     0.188 HD
BRANCH   3   5
HETATM    5  C7  UNL     1      45.377  14.873   2.521  1.00  0.00     0.055 A 
HETATM    6  C2  UNL     1      45.406  16.240   2.480  1.00  0.00    -0.032 A 
HETATM    7  C1  UNL     1      44.434  16.987   1.653  1.00  0.00     0.050 C 
HETATM    8  C3  UNL     1      46.360  16.946   3.220  1.00  0.00     0.033 A 
HETATM    9  C4  UNL     1      47.281  16.313   3.999  1.00  0.00     0.034 A 
HETATM   10 CL1  UNL     1      48.483  17.169   4.933  1.00  0.00    -0.084 Cl
HETATM   11  C5  UNL     1      47.268  14.946   4.053  1.00  0.00     0.026 A 
HETATM   12  C6  UNL     1      46.332  14.260   3.326  1.00  0.00     0.033 A 
ENDBRANCH   3   5
ENDBRANCH   1   3
BRANCH   1  13
HETATM   13  N3  UNL     1      45.229  11.934   1.038  1.00  0.00    -0.297 N 
HETATM   14  C8  UNL     1      46.396  11.564   0.714  1.00  0.00     0.120 C 
ATOM     15  H3  UNL     1      44.635  11.263   1.523  1.00  0.00     0.187 HD
BRANCH  14  16
HETATM   16  C9  UNL     1      46.843  10.218   1.040  1.00  0.00    -0.017 A 
HETATM   17  C10 UNL     1      47.422   9.899   2.253  1.00  0.00     0.032 A 
HETATM   18  C11 UNL     1      47.838   8.616   2.541  1.00  0.00     0.123 A 
HETATM   19  N4  UNL     1      47.681   7.656   1.632  1.00  0.00    -0.247 N 
HETATM   20  C12 UNL     1      47.125   7.932   0.449  1.00  0.00     0.123 A 
HETATM   21  C13 UNL     1      46.700   9.198   0.132  1.00  0.00     0.032 A 
BRANCH  19  22
HETATM   22  O1  UNL     1      48.087   6.370   1.892  1.00  0.00    -0.284 OA
ATOM     23  H1  UNL     1      48.322   6.104   2.773  1.00  0.00     0.245 HD
ENDBRANCH  19  22
ENDBRANCH  14  16
ENDBRANCH   1  13
TORSDOF 5
ENDMDL
