MODEL 1
REMARK VINA RESULT: -5.898077706      0.000      0.000
REMARK  5 active torsions:
REMARK  status: ('A' for Active; 'I' for Inactive)
REMARK    1  A    between atoms: C1_2  and  C2_4 
REMARK    2  A    between atoms: C1_2  and  N4_15 
REMARK    3  A    between atoms: C2_4  and  C3_5 
REMARK    4  A    between atoms: C3_5  and  N1_6 
REMARK    5  A    between atoms: N1_6  and  C4_8 
ROOT
HETATM    1  C2  UNL     1      44.504  15.712   3.085  1.00  0.00     0.110 C 
ENDROOT
BRANCH   1   2
HETATM    2  C1  UNL     1      45.829  15.183   3.500  1.00  0.00     0.192 C 
HETATM    3 CL1  UNL     1      45.797  14.702   5.221  1.00  0.00    -0.077 Cl
HETATM    4 CL2  UNL     1      47.057  16.442   3.299  1.00  0.00    -0.077 Cl
BRANCH   2   5
HETATM    5  N4  UNL     1      46.220  14.037   2.726  1.00  0.00    -0.359 N 
HETATM    6  C7  UNL     1      47.043  13.065   3.296  1.00  0.00     0.125 C 
HETATM    7  C8  UNL     1      46.473  11.649   3.154  1.00  0.00     0.020 C 
HETATM    8  C9  UNL     1      46.416  11.162   1.756  1.00  0.00     0.002 C 
HETATM    9  C10 UNL     1      45.036  11.346   1.209  1.00  0.00     0.005 C 
HETATM   10  C11 UNL     1      44.505  12.700   1.586  1.00  0.00     0.044 C 
HETATM   11  C12 UNL     1      45.575  13.766   1.532  1.00  0.00     0.061 C 
ENDBRANCH   2   5
ENDBRANCH   1   2
BRANCH   1  12
HETATM   12  C3  UNL     1      44.397  16.778   2.062  1.00  0.00     0.069 C 
BRANCH  12  13
HETATM   13  N1  UNL     1      43.466  16.668   1.013  1.00  0.00    -0.342 N 
ATOM     14  H1  UNL     1      42.484  16.869   1.199  1.00  0.00     0.167 HD
BRANCH  13  15
HETATM   15  C4  UNL     1      43.863  16.276  -0.327  1.00  0.00     0.174 C 
HETATM   16  N2  UNL     1      44.691  17.027  -0.969  1.00  0.00    -0.361 N 
HETATM   17  C5  UNL     1      44.988  16.516  -2.271  1.00  0.00     0.142 C 
ATOM     18  H2  UNL     1      45.089  17.887  -0.591  1.00  0.00     0.162 HD
HETATM   19  C6  UNL     1      43.924  15.450  -2.509  1.00  0.00     0.142 C 
HETATM   20  N3  UNL     1      43.499  15.193  -1.138  1.00  0.00    -0.361 N 
ATOM     21  H3  UNL     1      43.013  14.355  -0.819  1.00  0.00     0.162 HD
ENDBRANCH  13  15
ENDBRANCH  12  13
ENDBRANCH   1  12
TORSDOF 5
ENDMDL
MODEL 2
REMARK VINA RESULT: -5.779506209      3.580      6.681
REMARK  5 active torsions:
REMARK  status: ('A' for Active; 'I' for Inactive)
REMARK    1  A    between atoms: C1_2  and  C2_4 
REMARK    2  A    between atoms: C1_2  and  N4_15 
REMARK    3  A    between atoms: C2_4  and  C3_5 
REMARK    4  A    between atoms: C3_5  and  N1_6 
REMARK    5  A    between atoms: N1_6  and  C4_8 
ROOT
HETATM    1  C2  UNL     1      46.865  12.130   1.207  1.00  0.00     0.110 C 
ENDROOT
BRANCH   1   2
HETATM    2  C1  UNL     1      45.546  12.771   1.438  1.00  0.00     0.192 C 
HETATM    3 CL1  UNL     1      44.304  11.535   1.789  1.00  0.00    -0.077 Cl
HETATM    4 CL2  UNL     1      45.054  13.652  -0.017  1.00  0.00    -0.077 Cl
BRANCH   2   5
HETATM    5  N4  UNL     1      45.578  13.693   2.539  1.00  0.00    -0.359 N 
HETATM    6  C7  UNL     1      46.624  13.633   3.462  1.00  0.00     0.125 C 
HETATM    7  C8  UNL     1      47.303  14.991   3.676  1.00  0.00     0.020 C 
HETATM    8  C9  UNL     1      46.434  16.000   4.326  1.00  0.00     0.002 C 
HETATM    9  C10 UNL     1      45.843  16.904   3.291  1.00  0.00     0.005 C 
HETATM   10  C11 UNL     1      45.362  16.102   2.115  1.00  0.00     0.044 C 
HETATM   11  C12 UNL     1      44.736  14.792   2.538  1.00  0.00     0.061 C 
ENDBRANCH   2   5
ENDBRANCH   1   2
BRANCH   1  12
HETATM   12  C3  UNL     1      47.004  10.655   1.206  1.00  0.00     0.069 C 
BRANCH  12  13
HETATM   13  N1  UNL     1      47.599   9.994   2.297  1.00  0.00    -0.342 N 
ATOM     14  H1  UNL     1      47.613  10.454   3.207  1.00  0.00     0.167 HD
BRANCH  13  15
HETATM   15  C4  UNL     1      48.195   8.678   2.164  1.00  0.00     0.174 C 
HETATM   16  N2  UNL     1      49.426   8.594   1.790  1.00  0.00    -0.361 N 
HETATM   17  C5  UNL     1      49.873   7.238   1.703  1.00  0.00     0.142 C 
ATOM     18  H2  UNL     1      50.013   9.400   1.580  1.00  0.00     0.162 HD
HETATM   19  C6  UNL     1      48.592   6.414   1.761  1.00  0.00     0.142 C 
HETATM   20  N3  UNL     1      47.679   7.388   2.347  1.00  0.00    -0.361 N 
ATOM     21  H3  UNL     1      46.802   7.165   2.817  1.00  0.00     0.162 HD
ENDBRANCH  13  15
ENDBRANCH  12  13
ENDBRANCH   1  12
TORSDOF 5
ENDMDL
MODEL 3
REMARK VINA RESULT: -5.647028114      4.438      7.616
REMARK  5 active torsions:
REMARK  status: ('A' for Active; 'I' for Inactive)
REMARK    1  A    between atoms: C1_2  and  C2_4 
REMARK    2  A    between atoms: C1_2  and  N4_15 
REMARK    3  A    between atoms: C2_4  and  C3_5 
REMARK    4  A    between atoms: C3_5  and  N1_6 
REMARK    5  A    between atoms: N1_6  and  C4_8 
ROOT
HETATM    1  C2  UNL     1      47.152   9.946   1.440  1.00  0.00     0.110 C 
ENDROOT
BRANCH   1   2
HETATM    2  C1  UNL     1      46.135  10.869   0.875  1.00  0.00     0.192 C 
HETATM    3 CL1  UNL     1      44.694   9.956   0.341  1.00  0.00    -0.077 Cl
HETATM    4 CL2  UNL     1      46.811  11.707  -0.529  1.00  0.00    -0.077 Cl
BRANCH   2   5
HETATM    5  N4  UNL     1      45.707  11.852   1.832  1.00  0.00    -0.359 N 
HETATM    6  C7  UNL     1      46.556  12.215   2.879  1.00  0.00     0.125 C 
HETATM    7  C8  UNL     1      46.751  13.731   2.985  1.00  0.00     0.020 C 
HETATM    8  C9  UNL     1      45.525  14.469   3.370  1.00  0.00     0.002 C 
HETATM    9  C10 UNL     1      44.871  15.037   2.151  1.00  0.00     0.005 C 
HETATM   10  C11 UNL     1      44.853  14.017   1.048  1.00  0.00     0.044 C 
HETATM   11  C12 UNL     1      44.588  12.622   1.568  1.00  0.00     0.061 C 
ENDBRANCH   2   5
ENDBRANCH   1   2
BRANCH   1  12
HETATM   12  C3  UNL     1      47.450   8.650   0.787  1.00  0.00     0.069 C 
BRANCH  12  13
HETATM   13  N1  UNL     1      47.341   7.446   1.508  1.00  0.00    -0.342 N 
ATOM     14  H1  UNL     1      46.693   6.730   1.180  1.00  0.00     0.167 HD
BRANCH  13  15
HETATM   15  C4  UNL     1      48.122   7.196   2.705  1.00  0.00     0.174 C 
HETATM   16  N2  UNL     1      49.408   7.232   2.620  1.00  0.00    -0.361 N 
HETATM   17  C5  UNL     1      50.041   6.966   3.874  1.00  0.00     0.142 C 
ATOM     18  H2  UNL     1      49.915   7.428   1.757  1.00  0.00     0.162 HD
HETATM   19  C6  UNL     1      48.925   6.401   4.747  1.00  0.00     0.142 C 
HETATM   20  N3  UNL     1      47.755   6.879   4.020  1.00  0.00    -0.361 N 
ATOM     21  H3  UNL     1      46.817   6.970   4.408  1.00  0.00     0.162 HD
ENDBRANCH  13  15
ENDBRANCH  12  13
ENDBRANCH   1  12
TORSDOF 5
ENDMDL
MODEL 4
REMARK VINA RESULT: -5.626915363      3.267      4.960
REMARK  5 active torsions:
REMARK  status: ('A' for Active; 'I' for Inactive)
REMARK    1  A    between atoms: C1_2  and  C2_4 
REMARK    2  A    between atoms: C1_2  and  N4_15 
REMARK    3  A    between atoms: C2_4  and  C3_5 
REMARK    4  A    between atoms: C3_5  and  N1_6 
REMARK    5  A    between atoms: N1_6  and  C4_8 
ROOT
HETATM    1  C2  UNL     1      45.180  12.127   1.426  1.00  0.00     0.110 C 
ENDROOT
BRANCH   1   2
HETATM    2  C1  UNL     1      45.670  11.173   0.398  1.00  0.00     0.192 C 
HETATM    3 CL1  UNL     1      45.881  12.001  -1.172  1.00  0.00    -0.077 Cl
HETATM    4 CL2  UNL     1      44.485   9.875   0.185  1.00  0.00    -0.077 Cl
BRANCH   2   5
HETATM    5  N4  UNL     1      46.929  10.586   0.763  1.00  0.00    -0.359 N 
HETATM    6  C7  UNL     1      47.206  10.317   2.104  1.00  0.00     0.125 C 
HETATM    7  C8  UNL     1      47.663   8.872   2.336  1.00  0.00     0.020 C 
HETATM    8  C9  UNL     1      48.975   8.553   1.726  1.00  0.00     0.002 C 
HETATM    9  C10 UNL     1      48.771   7.859   0.417  1.00  0.00     0.005 C 
HETATM   10  C11 UNL     1      47.691   8.545  -0.370  1.00  0.00     0.044 C 
HETATM   11  C12 UNL     1      47.743  10.048  -0.219  1.00  0.00     0.061 C 
ENDBRANCH   2   5
ENDBRANCH   1   2
BRANCH   1  12
HETATM   12  C3  UNL     1      44.821  13.518   1.063  1.00  0.00     0.069 C 
BRANCH  12  13
HETATM   13  N1  UNL     1      44.482  14.451   2.061  1.00  0.00    -0.342 N 
ATOM     14  H1  UNL     1      43.499  14.591   2.293  1.00  0.00     0.167 HD
BRANCH  13  15
HETATM   15  C4  UNL     1      45.490  15.218   2.768  1.00  0.00     0.174 C 
HETATM   16  N2  UNL     1      45.436  16.505   2.711  1.00  0.00    -0.361 N 
HETATM   17  C5  UNL     1      46.492  17.123   3.453  1.00  0.00     0.142 C 
ATOM     18  H2  UNL     1      44.725  17.022   2.196  1.00  0.00     0.162 HD
HETATM   19  C6  UNL     1      47.468  15.987   3.736  1.00  0.00     0.142 C 
HETATM   20  N3  UNL     1      46.598  14.835   3.536  1.00  0.00    -0.361 N 
ATOM     21  H3  UNL     1      46.768  13.897   3.897  1.00  0.00     0.162 HD
ENDBRANCH  13  15
ENDBRANCH  12  13
ENDBRANCH   1  12
TORSDOF 5
ENDMDL
MODEL 5
REMARK VINA RESULT: -5.626823918      3.913      5.473
REMARK  5 active torsions:
REMARK  status: ('A' for Active; 'I' for Inactive)
REMARK    1  A    between atoms: C1_2  and  C2_4 
REMARK    2  A    between atoms: C1_2  and  N4_15 
REMARK    3  A    between atoms: C2_4  and  C3_5 
REMARK    4  A    between atoms: C3_5  and  N1_6 
REMARK    5  A    between atoms: N1_6  and  C4_8 
ROOT
HETATM    1  C2  UNL     1      45.189  12.075   1.850  1.00  0.00     0.110 C 
ENDROOT
BRANCH   1   2
HETATM    2  C1  UNL     1      45.698  11.351   0.658  1.00  0.00     0.192 C 
HETATM    3 CL1  UNL     1      45.826  12.459  -0.738  1.00  0.00    -0.077 Cl
HETATM    4 CL2  UNL     1      44.575  10.050   0.232  1.00  0.00    -0.077 Cl
BRANCH   2   5
HETATM    5  N4  UNL     1      46.995  10.776   0.888  1.00  0.00    -0.359 N 
HETATM    6  C7  UNL     1      47.233  10.047   2.054  1.00  0.00     0.125 C 
HETATM    7  C8  UNL     1      47.834   8.665   1.776  1.00  0.00     0.020 C 
HETATM    8  C9  UNL     1      49.201   8.708   1.207  1.00  0.00     0.002 C 
HETATM    9  C10 UNL     1      49.139   8.542  -0.278  1.00  0.00     0.005 C 
HETATM   10  C11 UNL     1      48.030   9.381  -0.848  1.00  0.00     0.044 C 
HETATM   11  C12 UNL     1      47.911  10.716  -0.149  1.00  0.00     0.061 C 
ENDBRANCH   2   5
ENDBRANCH   1   2
BRANCH   1  12
HETATM   12  C3  UNL     1      45.740  13.397   2.229  1.00  0.00     0.069 C 
BRANCH  12  13
HETATM   13  N1  UNL     1      46.682  13.506   3.269  1.00  0.00    -0.342 N 
ATOM     14  H1  UNL     1      47.218  12.682   3.539  1.00  0.00     0.167 HD
BRANCH  13  15
HETATM   15  C4  UNL     1      46.911  14.757   3.968  1.00  0.00     0.174 C 
HETATM   16  N2  UNL     1      45.978  15.218   4.729  1.00  0.00    -0.361 N 
HETATM   17  C5  UNL     1      46.346  16.453   5.348  1.00  0.00     0.142 C 
ATOM     18  H2  UNL     1      45.081  14.755   4.872  1.00  0.00     0.162 HD
HETATM   19  C6  UNL     1      47.582  16.907   4.580  1.00  0.00     0.142 C 
HETATM   20  N3  UNL     1      47.996  15.644   3.979  1.00  0.00    -0.361 N 
ATOM     21  H3  UNL     1      48.929  15.439   3.623  1.00  0.00     0.162 HD
ENDBRANCH  13  15
ENDBRANCH  12  13
ENDBRANCH   1  12
TORSDOF 5
ENDMDL
