MODEL 1
REMARK VINA RESULT: -8.478455349      0.000      0.000
REMARK  12 active torsions:
REMARK  status: ('A' for Active; 'I' for Inactive)
REMARK    1  A    between atoms: C2_2  and  C3_3 
REMARK    2  A    between atoms: C3_3  and  C4_4 
REMARK    3  A    between atoms: C4_4  and  C5_5 
REMARK    4  A    between atoms: C5_5  and  N1_6 
REMARK    5  A    between atoms: C5_5  and  C19_27 
REMARK       I    between atoms: N1_6  and  C6_8 
REMARK    6  A    between atoms: C6_8  and  C7_10 
REMARK    7  A    between atoms: C11_15  and  C12_16 
REMARK    8  A    between atoms: C12_16  and  C13_18 
REMARK       I    between atoms: C13_18  and  N2_20 
REMARK    9  A    between atoms: N2_20  and  C14_22 
REMARK   10  A    between atoms: C19_27  and  C20_29 
REMARK       I    between atoms: C20_29  and  N3_31 
REMARK   11  A    between atoms: N3_31  and  C21_33 
REMARK   12  A    between atoms: C21_33  and  C22_34 
ROOT
HETATM    1  C5  UNL     1       6.374  15.285  16.506  1.00  0.00     0.165 C 
ENDROOT
BRANCH   1   2
HETATM    2  C4  UNL     1       5.180  15.361  15.656  1.00  0.00     0.043 C 
BRANCH   2   3
HETATM    3  C3  UNL     1       4.269  14.264  15.366  1.00  0.00    -0.038 C 
HETATM    4  C26 UNL     1       4.910  13.182  14.489  1.00  0.00     0.010 C 
HETATM    5  C27 UNL     1       4.079  11.970  14.812  1.00  0.00     0.001 C 
HETATM    6  C28 UNL     1       3.602  12.145  16.224  1.00  0.00     0.001 C 
HETATM    7  C29 UNL     1       4.160  13.447  16.692  1.00  0.00     0.010 C 
BRANCH   3   8
HETATM    8  C2  UNL     1       2.916  14.518  14.830  1.00  0.00     0.005 C 
HETATM    9  C1  UNL     1       2.287  15.818  15.287  1.00  0.00     0.006 C 
ENDBRANCH   3   8
ENDBRANCH   2   3
ENDBRANCH   1   2
BRANCH   1  10
HETATM   10  N1  UNL     1       6.430  16.612  17.266  1.00  0.00    -0.349 N 
HETATM   11  C6  UNL     1       5.943  16.715  18.567  1.00  0.00     0.224 C 
HETATM   12  O1  UNL     1       5.472  15.634  19.083  1.00  0.00    -0.273 OA
ATOM     13  H1  UNL     1       6.830  17.433  16.813  1.00  0.00     0.163 HD
BRANCH  11  14
HETATM   14  C7  UNL     1       5.929  17.924  19.348  1.00  0.00     0.100 C 
HETATM   15  C8  UNL     1       4.576  18.073  20.060  1.00  0.00     0.089 C 
HETATM   16  S1  UNL     1       4.971  17.315  21.662  1.00  0.00    -0.163 SA
HETATM   17  C9  UNL     1       6.799  17.425  21.560  1.00  0.00     0.056 C 
HETATM   18  C10 UNL     1       7.491  16.125  21.655  1.00  0.00     0.022 C 
HETATM   19  C11 UNL     1       6.994  18.215  20.318  1.00  0.00     0.092 C 
BRANCH  19  20
HETATM   20  C12 UNL     1       8.319  18.217  19.730  1.00  0.00     0.222 C 
HETATM   21  O2  UNL     1       8.775  17.317  18.958  1.00  0.00    -0.287 OA
BRANCH  20  22
HETATM   22  C13 UNL     1       9.243  19.322  20.016  1.00  0.00     0.288 C 
HETATM   23  O3  UNL     1       9.602  19.509  21.195  1.00  0.00    -0.264 OA
HETATM   24  N2  UNL     1       9.746  20.185  19.026  1.00  0.00    -0.350 N 
ATOM     25  H2  UNL     1       9.439  20.025  18.066  1.00  0.00     0.163 HD
BRANCH  24  26
HETATM   26  C14 UNL     1      10.649  21.265  19.251  1.00  0.00     0.084 C 
HETATM   27  C15 UNL     1      10.981  22.012  17.965  1.00  0.00     0.025 C 
HETATM   28  C16 UNL     1      12.363  22.613  18.224  1.00  0.00     0.002 C 
HETATM   29  C17 UNL     1      13.054  21.545  19.003  1.00  0.00     0.002 C 
HETATM   30  C18 UNL     1      11.972  20.900  19.823  1.00  0.00     0.025 C 
ENDBRANCH  24  26
ENDBRANCH  20  22
ENDBRANCH  19  20
ENDBRANCH  11  14
ENDBRANCH   1  10
BRANCH   1  31
HETATM   31  C19 UNL     1       7.641  15.174  15.792  1.00  0.00     0.239 C 
HETATM   32  O4  UNL     1       8.200  14.048  15.549  1.00  0.00    -0.285 OA
BRANCH  31  33
HETATM   33  C20 UNL     1       8.389  16.356  15.275  1.00  0.00     0.293 C 
HETATM   34  O5  UNL     1       7.644  17.184  14.707  1.00  0.00    -0.264 OA
HETATM   35  N3  UNL     1       9.762  16.438  15.453  1.00  0.00    -0.332 N 
ATOM     36  H3  UNL     1      10.172  15.637  15.932  1.00  0.00     0.168 HD
BRANCH  35  37
HETATM   37  C21 UNL     1      10.673  17.417  15.094  1.00  0.00     0.096 C 
BRANCH  37  38
HETATM   38  C22 UNL     1      10.705  18.765  15.663  1.00  0.00     0.159 C 
HETATM   39  C23 UNL     1      11.836  19.648  15.276  1.00  0.00     0.039 C 
HETATM   40  C24 UNL     1      13.019  18.859  15.861  1.00  0.00     0.029 C 
HETATM   41  C25 UNL     1      12.359  18.273  17.104  1.00  0.00     0.168 C 
HETATM   42  O6  UNL     1      11.020  18.668  17.080  1.00  0.00    -0.381 OA
ENDBRANCH  37  38
ENDBRANCH  35  37
ENDBRANCH  31  33
ENDBRANCH   1  31
TORSDOF 12
ENDMDL
MODEL 2
REMARK VINA RESULT: -8.284293279      4.997     10.207
REMARK  12 active torsions:
REMARK  status: ('A' for Active; 'I' for Inactive)
REMARK    1  A    between atoms: C2_2  and  C3_3 
REMARK    2  A    between atoms: C3_3  and  C4_4 
REMARK    3  A    between atoms: C4_4  and  C5_5 
REMARK    4  A    between atoms: C5_5  and  N1_6 
REMARK    5  A    between atoms: C5_5  and  C19_27 
REMARK       I    between atoms: N1_6  and  C6_8 
REMARK    6  A    between atoms: C6_8  and  C7_10 
REMARK    7  A    between atoms: C11_15  and  C12_16 
REMARK    8  A    between atoms: C12_16  and  C13_18 
REMARK       I    between atoms: C13_18  and  N2_20 
REMARK    9  A    between atoms: N2_20  and  C14_22 
REMARK   10  A    between atoms: C19_27  and  C20_29 
REMARK       I    between atoms: C20_29  and  N3_31 
REMARK   11  A    between atoms: N3_31  and  C21_33 
REMARK   12  A    between atoms: C21_33  and  C22_34 
ROOT
HETATM    1  C5  UNL     1      13.921  22.415  16.025  1.00  0.00     0.165 C 
ENDROOT
BRANCH   1   2
HETATM    2  C4  UNL     1      14.896  22.411  17.122  1.00  0.00     0.043 C 
BRANCH   2   3
HETATM    3  C3  UNL     1      15.335  23.576  17.877  1.00  0.00    -0.038 C 
HETATM    4  C26 UNL     1      14.260  24.666  17.955  1.00  0.00     0.010 C 
HETATM    5  C27 UNL     1      14.660  25.426  19.190  1.00  0.00     0.001 C 
HETATM    6  C28 UNL     1      15.338  24.440  20.096  1.00  0.00     0.001 C 
HETATM    7  C29 UNL     1      15.321  23.135  19.375  1.00  0.00     0.010 C 
BRANCH   3   8
HETATM    8  C2  UNL     1      16.616  24.244  17.571  1.00  0.00     0.005 C 
HETATM    9  C1  UNL     1      17.818  23.322  17.530  1.00  0.00     0.006 C 
ENDBRANCH   3   8
ENDBRANCH   2   3
ENDBRANCH   1   2
BRANCH   1  10
HETATM   10  N1  UNL     1      13.061  21.165  16.227  1.00  0.00    -0.349 N 
HETATM   11  C6  UNL     1      11.719  21.268  16.583  1.00  0.00     0.224 C 
HETATM   12  O1  UNL     1      11.255  22.462  16.707  1.00  0.00    -0.273 OA
ATOM     13  H1  UNL     1      13.478  20.244  16.098  1.00  0.00     0.163 HD
BRANCH  11  14
HETATM   14  C7  UNL     1      10.841  20.152  16.820  1.00  0.00     0.100 C 
HETATM   15  C8  UNL     1      10.776  19.262  15.570  1.00  0.00     0.089 C 
HETATM   16  S1  UNL     1      12.058  18.042  15.977  1.00  0.00    -0.163 SA
HETATM   17  C9  UNL     1      12.137  18.339  17.785  1.00  0.00     0.056 C 
HETATM   18  C10 UNL     1      13.467  18.745  18.277  1.00  0.00     0.022 C 
HETATM   19  C11 UNL     1      11.011  19.285  17.994  1.00  0.00     0.092 C 
BRANCH  19  20
HETATM   20  C12 UNL     1      10.972  20.007  19.250  1.00  0.00     0.222 C 
HETATM   21  O2  UNL     1      11.781  20.928  19.587  1.00  0.00    -0.287 OA
BRANCH  20  22
HETATM   22  C13 UNL     1       9.937  19.691  20.242  1.00  0.00     0.288 C 
HETATM   23  O3  UNL     1       9.849  20.406  21.259  1.00  0.00    -0.264 OA
HETATM   24  N2  UNL     1       9.037  18.620  20.106  1.00  0.00    -0.350 N 
ATOM     25  H2  UNL     1       9.124  18.039  19.271  1.00  0.00     0.163 HD
BRANCH  24  26
HETATM   26  C14 UNL     1       8.011  18.277  21.035  1.00  0.00     0.084 C 
HETATM   27  C15 UNL     1       8.222  16.893  21.636  1.00  0.00     0.025 C 
HETATM   28  C16 UNL     1       6.815  16.430  22.017  1.00  0.00     0.002 C 
HETATM   29  C17 UNL     1       5.974  16.952  20.901  1.00  0.00     0.002 C 
HETATM   30  C18 UNL     1       6.626  18.244  20.495  1.00  0.00     0.025 C 
ENDBRANCH  24  26
ENDBRANCH  20  22
ENDBRANCH  19  20
ENDBRANCH  11  14
ENDBRANCH   1  10
BRANCH   1  31
HETATM   31  C19 UNL     1      14.491  22.303  14.686  1.00  0.00     0.239 C 
HETATM   32  O4  UNL     1      13.772  22.112  13.645  1.00  0.00    -0.285 OA
BRANCH  31  33
HETATM   33  C20 UNL     1      15.953  22.411  14.414  1.00  0.00     0.293 C 
HETATM   34  O5  UNL     1      16.561  21.338  14.624  1.00  0.00    -0.264 OA
HETATM   35  N3  UNL     1      16.489  23.613  13.980  1.00  0.00    -0.332 N 
ATOM     36  H3  UNL     1      15.809  24.369  13.892  1.00  0.00     0.168 HD
BRANCH  35  37
HETATM   37  C21 UNL     1      17.784  23.969  13.643  1.00  0.00     0.096 C 
BRANCH  37  38
HETATM   38  C22 UNL     1      18.248  25.348  13.481  1.00  0.00     0.159 C 
HETATM   39  C23 UNL     1      17.564  26.187  12.464  1.00  0.00     0.039 C 
HETATM   40  C24 UNL     1      17.916  25.416  11.181  1.00  0.00     0.029 C 
HETATM   41  C25 UNL     1      19.309  24.916  11.547  1.00  0.00     0.168 C 
HETATM   42  O6  UNL     1      19.561  25.329  12.856  1.00  0.00    -0.381 OA
ENDBRANCH  37  38
ENDBRANCH  35  37
ENDBRANCH  31  33
ENDBRANCH   1  31
TORSDOF 12
ENDMDL
MODEL 3
REMARK VINA RESULT: -8.122675429      4.675     10.496
REMARK  12 active torsions:
REMARK  status: ('A' for Active; 'I' for Inactive)
REMARK    1  A    between atoms: C2_2  and  C3_3 
REMARK    2  A    between atoms: C3_3  and  C4_4 
REMARK    3  A    between atoms: C4_4  and  C5_5 
REMARK    4  A    between atoms: C5_5  and  N1_6 
REMARK    5  A    between atoms: C5_5  and  C19_27 
REMARK       I    between atoms: N1_6  and  C6_8 
REMARK    6  A    between atoms: C6_8  and  C7_10 
REMARK    7  A    between atoms: C11_15  and  C12_16 
REMARK    8  A    between atoms: C12_16  and  C13_18 
REMARK       I    between atoms: C13_18  and  N2_20 
REMARK    9  A    between atoms: N2_20  and  C14_22 
REMARK   10  A    between atoms: C19_27  and  C20_29 
REMARK       I    between atoms: C20_29  and  N3_31 
REMARK   11  A    between atoms: N3_31  and  C21_33 
REMARK   12  A    between atoms: C21_33  and  C22_34 
ROOT
HETATM    1  C5  UNL     1      14.347  22.442  17.354  1.00  0.00     0.165 C 
ENDROOT
BRANCH   1   2
HETATM    2  C4  UNL     1      15.546  22.705  18.158  1.00  0.00     0.043 C 
BRANCH   2   3
HETATM    3  C3  UNL     1      15.973  24.006  18.653  1.00  0.00    -0.038 C 
HETATM    4  C26 UNL     1      15.796  24.146  20.169  1.00  0.00     0.010 C 
HETATM    5  C27 UNL     1      16.790  25.221  20.513  1.00  0.00     0.001 C 
HETATM    6  C28 UNL     1      17.901  25.110  19.509  1.00  0.00     0.001 C 
HETATM    7  C29 UNL     1      17.534  23.981  18.607  1.00  0.00     0.010 C 
BRANCH   3   8
HETATM    8  C2  UNL     1      15.481  25.255  18.037  1.00  0.00     0.005 C 
HETATM    9  C1  UNL     1      14.094  25.676  18.477  1.00  0.00     0.006 C 
ENDBRANCH   3   8
ENDBRANCH   2   3
ENDBRANCH   1   2
BRANCH   1  10
HETATM   10  N1  UNL     1      13.816  21.088  17.827  1.00  0.00    -0.349 N 
HETATM   11  C6  UNL     1      12.584  20.983  18.467  1.00  0.00     0.224 C 
HETATM   12  O1  UNL     1      11.925  22.079  18.609  1.00  0.00    -0.273 OA
ATOM     13  H1  UNL     1      14.374  20.248  17.672  1.00  0.00     0.163 HD
BRANCH  11  14
HETATM   14  C7  UNL     1      12.016  19.759  18.969  1.00  0.00     0.100 C 
HETATM   15  C8  UNL     1      11.281  20.025  20.290  1.00  0.00     0.089 C 
HETATM   16  S1  UNL     1       9.593  20.283  19.672  1.00  0.00    -0.163 SA
HETATM   17  C9  UNL     1       9.793  19.494  18.028  1.00  0.00     0.056 C 
HETATM   18  C10 UNL     1       9.512  20.387  16.888  1.00  0.00     0.022 C 
HETATM   19  C11 UNL     1      11.158  18.916  18.125  1.00  0.00     0.092 C 
BRANCH  19  20
HETATM   20  C12 UNL     1      11.796  18.502  16.890  1.00  0.00     0.222 C 
HETATM   21  O2  UNL     1      13.037  18.606  16.642  1.00  0.00    -0.287 OA
BRANCH  20  22
HETATM   22  C13 UNL     1      10.990  17.910  15.816  1.00  0.00     0.288 C 
HETATM   23  O3  UNL     1      11.164  18.313  14.650  1.00  0.00    -0.264 OA
HETATM   24  N2  UNL     1      10.028  16.907  16.033  1.00  0.00    -0.350 N 
ATOM     25  H2  UNL     1       9.892  16.591  16.994  1.00  0.00     0.163 HD
BRANCH  24  26
HETATM   26  C14 UNL     1       9.228  16.296  15.024  1.00  0.00     0.084 C 
HETATM   27  C15 UNL     1       7.793  16.809  15.041  1.00  0.00     0.025 C 
HETATM   28  C16 UNL     1       6.976  15.662  14.448  1.00  0.00     0.002 C 
HETATM   29  C17 UNL     1       7.643  14.449  15.003  1.00  0.00     0.002 C 
HETATM   30  C18 UNL     1       9.097  14.817  15.103  1.00  0.00     0.025 C 
ENDBRANCH  24  26
ENDBRANCH  20  22
ENDBRANCH  19  20
ENDBRANCH  11  14
ENDBRANCH   1  10
BRANCH   1  31
HETATM   31  C19 UNL     1      14.576  22.309  15.919  1.00  0.00     0.239 C 
HETATM   32  O4  UNL     1      13.623  22.154  15.080  1.00  0.00    -0.285 OA
BRANCH  31  33
HETATM   33  C20 UNL     1      15.934  22.353  15.306  1.00  0.00     0.293 C 
HETATM   34  O5  UNL     1      16.391  21.213  15.068  1.00  0.00    -0.264 OA
HETATM   35  N3  UNL     1      16.546  23.574  15.065  1.00  0.00    -0.332 N 
ATOM     36  H3  UNL     1      15.997  24.383  15.356  1.00  0.00     0.168 HD
BRANCH  35  37
HETATM   37  C21 UNL     1      17.770  23.887  14.500  1.00  0.00     0.096 C 
BRANCH  37  38
HETATM   38  C22 UNL     1      17.981  24.959  13.525  1.00  0.00     0.159 C 
HETATM   39  C23 UNL     1      17.015  25.065  12.402  1.00  0.00     0.039 C 
HETATM   40  C24 UNL     1      17.262  23.725  11.691  1.00  0.00     0.029 C 
HETATM   41  C25 UNL     1      18.757  23.563  11.943  1.00  0.00     0.168 C 
HETATM   42  O6  UNL     1      19.158  24.644  12.731  1.00  0.00    -0.381 OA
ENDBRANCH  37  38
ENDBRANCH  35  37
ENDBRANCH  31  33
ENDBRANCH   1  31
TORSDOF 12
ENDMDL
MODEL 4
REMARK VINA RESULT: -8.100916854      4.015      9.723
REMARK  12 active torsions:
REMARK  status: ('A' for Active; 'I' for Inactive)
REMARK    1  A    between atoms: C2_2  and  C3_3 
REMARK    2  A    between atoms: C3_3  and  C4_4 
REMARK    3  A    between atoms: C4_4  and  C5_5 
REMARK    4  A    between atoms: C5_5  and  N1_6 
REMARK    5  A    between atoms: C5_5  and  C19_27 
REMARK       I    between atoms: N1_6  and  C6_8 
REMARK    6  A    between atoms: C6_8  and  C7_10 
REMARK    7  A    between atoms: C11_15  and  C12_16 
REMARK    8  A    between atoms: C12_16  and  C13_18 
REMARK       I    between atoms: C13_18  and  N2_20 
REMARK    9  A    between atoms: N2_20  and  C14_22 
REMARK   10  A    between atoms: C19_27  and  C20_29 
REMARK       I    between atoms: C20_29  and  N3_31 
REMARK   11  A    between atoms: N3_31  and  C21_33 
REMARK   12  A    between atoms: C21_33  and  C22_34 
ROOT
HETATM    1  C5  UNL     1      13.635  21.548  17.021  1.00  0.00     0.165 C 
ENDROOT
BRANCH   1   2
HETATM    2  C4  UNL     1      13.603  21.654  15.558  1.00  0.00     0.043 C 
BRANCH   2   3
HETATM    3  C3  UNL     1      14.759  21.810  14.688  1.00  0.00    -0.038 C 
HETATM    4  C26 UNL     1      15.711  22.912  15.166  1.00  0.00     0.010 C 
HETATM    5  C27 UNL     1      17.017  22.506  14.538  1.00  0.00     0.001 C 
HETATM    6  C28 UNL     1      16.986  21.010  14.421  1.00  0.00     0.001 C 
HETATM    7  C29 UNL     1      15.672  20.577  14.979  1.00  0.00     0.010 C 
BRANCH   3   8
HETATM    8  C2  UNL     1      14.599  21.971  13.228  1.00  0.00     0.005 C 
HETATM    9  C1  UNL     1      13.513  21.115  12.611  1.00  0.00     0.006 C 
ENDBRANCH   3   8
ENDBRANCH   2   3
ENDBRANCH   1   2
BRANCH   1  10
HETATM   10  N1  UNL     1      12.539  20.546  17.391  1.00  0.00    -0.349 N 
HETATM   11  C6  UNL     1      12.841  19.375  18.082  1.00  0.00     0.224 C 
HETATM   12  O1  UNL     1      14.076  19.208  18.401  1.00  0.00    -0.273 OA
ATOM     13  H1  UNL     1      11.574  20.740  17.128  1.00  0.00     0.163 HD
BRANCH  11  14
HETATM   14  C7  UNL     1      11.883  18.365  18.449  1.00  0.00     0.100 C 
HETATM   15  C8  UNL     1      11.323  18.657  19.849  1.00  0.00     0.089 C 
HETATM   16  S1  UNL     1       9.826  19.587  19.409  1.00  0.00    -0.163 SA
HETATM   17  C9  UNL     1       9.692  19.052  17.659  1.00  0.00     0.056 C 
HETATM   18  C10 UNL     1       9.724  20.157  16.682  1.00  0.00     0.022 C 
HETATM   19  C11 UNL     1      10.760  18.024  17.566  1.00  0.00     0.092 C 
BRANCH  19  20
HETATM   20  C12 UNL     1      11.178  17.616  16.239  1.00  0.00     0.222 C 
HETATM   21  O2  UNL     1      12.340  17.789  15.756  1.00  0.00    -0.287 OA
BRANCH  20  22
HETATM   22  C13 UNL     1      10.224  16.945  15.347  1.00  0.00     0.288 C 
HETATM   23  O3  UNL     1      10.553  16.749  14.162  1.00  0.00    -0.264 OA
HETATM   24  N2  UNL     1       8.952  16.509  15.762  1.00  0.00    -0.350 N 
ATOM     25  H2  UNL     1       8.693  16.682  16.734  1.00  0.00     0.163 HD
BRANCH  24  26
HETATM   26  C14 UNL     1       7.995  15.848  14.939  1.00  0.00     0.084 C 
HETATM   27  C15 UNL     1       6.565  16.117  15.392  1.00  0.00     0.025 C 
HETATM   28  C16 UNL     1       5.782  14.895  14.911  1.00  0.00     0.002 C 
HETATM   29  C17 UNL     1       6.739  13.772  15.131  1.00  0.00     0.002 C 
HETATM   30  C18 UNL     1       8.097  14.365  14.883  1.00  0.00     0.025 C 
ENDBRANCH  24  26
ENDBRANCH  20  22
ENDBRANCH  19  20
ENDBRANCH  11  14
ENDBRANCH   1  10
BRANCH   1  31
HETATM   31  C19 UNL     1      13.322  22.777  17.742  1.00  0.00     0.239 C 
HETATM   32  O4  UNL     1      12.132  23.237  17.835  1.00  0.00    -0.285 OA
BRANCH  31  33
HETATM   33  C20 UNL     1      14.355  23.595  18.440  1.00  0.00     0.293 C 
HETATM   34  O5  UNL     1      14.872  22.994  19.407  1.00  0.00    -0.264 OA
HETATM   35  N3  UNL     1      14.642  24.875  17.991  1.00  0.00    -0.332 N 
ATOM     36  H3  UNL     1      14.085  25.175  17.191  1.00  0.00     0.168 HD
BRANCH  35  37
HETATM   37  C21 UNL     1      15.552  25.818  18.438  1.00  0.00     0.096 C 
BRANCH  37  38
HETATM   38  C22 UNL     1      16.750  26.226  17.701  1.00  0.00     0.159 C 
HETATM   39  C23 UNL     1      17.538  25.162  17.029  1.00  0.00     0.039 C 
HETATM   40  C24 UNL     1      17.990  24.338  18.245  1.00  0.00     0.029 C 
HETATM   41  C25 UNL     1      18.157  25.451  19.273  1.00  0.00     0.168 C 
HETATM   42  O6  UNL     1      17.767  26.640  18.654  1.00  0.00    -0.381 OA
ENDBRANCH  37  38
ENDBRANCH  35  37
ENDBRANCH  31  33
ENDBRANCH   1  31
TORSDOF 12
ENDMDL
MODEL 5
REMARK VINA RESULT: -8.096706391      2.111      3.453
REMARK  12 active torsions:
REMARK  status: ('A' for Active; 'I' for Inactive)
REMARK    1  A    between atoms: C2_2  and  C3_3 
REMARK    2  A    between atoms: C3_3  and  C4_4 
REMARK    3  A    between atoms: C4_4  and  C5_5 
REMARK    4  A    between atoms: C5_5  and  N1_6 
REMARK    5  A    between atoms: C5_5  and  C19_27 
REMARK       I    between atoms: N1_6  and  C6_8 
REMARK    6  A    between atoms: C6_8  and  C7_10 
REMARK    7  A    between atoms: C11_15  and  C12_16 
REMARK    8  A    between atoms: C12_16  and  C13_18 
REMARK       I    between atoms: C13_18  and  N2_20 
REMARK    9  A    between atoms: N2_20  and  C14_22 
REMARK   10  A    between atoms: C19_27  and  C20_29 
REMARK       I    between atoms: C20_29  and  N3_31 
REMARK   11  A    between atoms: N3_31  and  C21_33 
REMARK   12  A    between atoms: C21_33  and  C22_34 
ROOT
HETATM    1  C5  UNL     1       9.044  16.811  15.865  1.00  0.00     0.165 C 
ENDROOT
BRANCH   1   2
HETATM    2  C4  UNL     1       7.900  16.545  14.985  1.00  0.00     0.043 C 
BRANCH   2   3
HETATM    3  C3  UNL     1       6.808  15.623  15.261  1.00  0.00    -0.038 C 
HETATM    4  C26 UNL     1       6.900  15.005  16.661  1.00  0.00     0.010 C 
HETATM    5  C27 UNL     1       5.473  14.616  16.937  1.00  0.00     0.001 C 
HETATM    6  C28 UNL     1       4.613  15.590  16.184  1.00  0.00     0.001 C 
HETATM    7  C29 UNL     1       5.550  16.519  15.490  1.00  0.00     0.010 C 
BRANCH   3   8
HETATM    8  C2  UNL     1       6.473  14.533  14.322  1.00  0.00     0.005 C 
HETATM    9  C1  UNL     1       7.595  14.138  13.384  1.00  0.00     0.006 C 
ENDBRANCH   3   8
ENDBRANCH   2   3
ENDBRANCH   1   2
BRANCH   1  10
HETATM   10  N1  UNL     1       8.657  18.039  16.692  1.00  0.00    -0.349 N 
HETATM   11  C6  UNL     1       8.503  17.954  18.074  1.00  0.00     0.224 C 
HETATM   12  O1  UNL     1       8.726  16.800  18.598  1.00  0.00    -0.273 OA
ATOM     13  H1  UNL     1       8.509  18.932  16.224  1.00  0.00     0.163 HD
BRANCH  11  14
HETATM   14  C7  UNL     1       8.116  19.045  18.929  1.00  0.00     0.100 C 
HETATM   15  C8  UNL     1       7.075  18.567  19.951  1.00  0.00     0.089 C 
HETATM   16  S1  UNL     1       8.160  18.160  21.349  1.00  0.00    -0.163 SA
HETATM   17  C9  UNL     1       9.633  19.118  20.823  1.00  0.00     0.056 C 
HETATM   18  C10 UNL     1      10.854  18.308  20.649  1.00  0.00     0.022 C 
HETATM   19  C11 UNL     1       9.121  19.850  19.637  1.00  0.00     0.092 C 
BRANCH  19  20
HETATM   20  C12 UNL     1      10.099  20.454  18.753  1.00  0.00     0.222 C 
HETATM   21  O2  UNL     1      10.161  20.265  17.498  1.00  0.00    -0.287 OA
BRANCH  20  22
HETATM   22  C13 UNL     1      11.115  21.361  19.300  1.00  0.00     0.288 C 
HETATM   23  O3  UNL     1      10.912  21.882  20.413  1.00  0.00    -0.264 OA
HETATM   24  N2  UNL     1      12.312  21.675  18.630  1.00  0.00    -0.350 N 
ATOM     25  H2  UNL     1      12.463  21.246  17.717  1.00  0.00     0.163 HD
BRANCH  24  26
HETATM   26  C14 UNL     1      13.331  22.542  19.121  1.00  0.00     0.084 C 
HETATM   27  C15 UNL     1      13.491  23.787  18.256  1.00  0.00     0.025 C 
HETATM   28  C16 UNL     1      14.944  24.211  18.471  1.00  0.00     0.002 C 
HETATM   29  C17 UNL     1      15.668  22.909  18.547  1.00  0.00     0.002 C 
HETATM   30  C18 UNL     1      14.699  21.963  19.198  1.00  0.00     0.025 C 
ENDBRANCH  24  26
ENDBRANCH  20  22
ENDBRANCH  19  20
ENDBRANCH  11  14
ENDBRANCH   1  10
BRANCH   1  31
HETATM   31  C19 UNL     1      10.286  17.158  15.183  1.00  0.00     0.239 C 
HETATM   32  O4  UNL     1      10.528  16.816  13.974  1.00  0.00    -0.285 OA
BRANCH  31  33
HETATM   33  C20 UNL     1      11.375  17.946  15.829  1.00  0.00     0.293 C 
HETATM   34  O5  UNL     1      11.759  17.441  16.906  1.00  0.00    -0.264 OA
HETATM   35  N3  UNL     1      11.845  19.102  15.224  1.00  0.00    -0.332 N 
ATOM     36  H3  UNL     1      11.373  19.341  14.351  1.00  0.00     0.168 HD
BRANCH  35  37
HETATM   37  C21 UNL     1      12.841  19.989  15.597  1.00  0.00     0.096 C 
BRANCH  37  38
HETATM   38  C22 UNL     1      13.105  21.264  14.928  1.00  0.00     0.159 C 
HETATM   39  C23 UNL     1      13.885  21.229  13.665  1.00  0.00     0.039 C 
HETATM   40  C24 UNL     1      15.225  20.679  14.179  1.00  0.00     0.029 C 
HETATM   41  C25 UNL     1      15.260  21.315  15.563  1.00  0.00     0.168 C 
HETATM   42  O6  UNL     1      14.064  22.017  15.721  1.00  0.00    -0.381 OA
ENDBRANCH  37  38
ENDBRANCH  35  37
ENDBRANCH  31  33
ENDBRANCH   1  31
TORSDOF 12
ENDMDL
