MODEL 1
REMARK VINA RESULT: -8.699313899      0.000      0.000
REMARK  14 active torsions:
REMARK  status: ('A' for Active; 'I' for Inactive)
REMARK    1  A    between atoms: C2_2  and  C3_3 
REMARK    2  A    between atoms: C3_3  and  C4_4 
REMARK    3  A    between atoms: C4_4  and  C5_5 
REMARK    4  A    between atoms: C5_5  and  C18_28 
REMARK    5  A    between atoms: N1_6  and  C6_8 
REMARK    6  A    between atoms: C7_11  and  N3_12 
REMARK    7  A    between atoms: C13_21  and  C14_22 
REMARK    8  A    between atoms: C18_28  and  N5_30 
REMARK    9  A    between atoms: N5_30  and  C20_33 
REMARK   10  A    between atoms: C20_33  and  C21_34 
REMARK   11  A    between atoms: C20_33  and  C24_38 
REMARK   12  A    between atoms: C21_34  and  N6_35 
REMARK       I    between atoms: C24_38  and  N7_40 
REMARK   13  A    between atoms: N7_40  and  C25_42 
REMARK   14  A    between atoms: C25_42  and  C26_43 
ROOT
HETATM    1  C5  UNL     1      13.016  21.057  18.153  1.00  0.00     0.034 C 
HETATM    2  N1  UNL     1      14.201  21.578  18.570  1.00  0.00    -0.197 N 
ATOM      3  H1  UNL     1      14.535  20.884  19.239  1.00  0.00     0.183 HD
ENDROOT
BRANCH   1   4
HETATM    4  C4  UNL     1      12.274  21.574  16.980  1.00  0.00     0.055 C 
BRANCH   4   5
HETATM    5  C3  UNL     1      12.301  20.670  15.767  1.00  0.00     0.005 C 
BRANCH   5   6
HETATM    6  C2  UNL     1      13.406  21.070  14.830  1.00  0.00    -0.004 C 
HETATM    7  C1  UNL     1      14.633  20.236  15.068  1.00  0.00     0.005 C 
ENDBRANCH   5   6
ENDBRANCH   4   5
ENDBRANCH   1   4
BRANCH   1   8
HETATM    8  C18 UNL     1      12.091  20.668  19.336  1.00  0.00     0.228 C 
HETATM    9  C19 UNL     1      10.749  21.382  19.124  1.00  0.00     0.046 C 
BRANCH   8  10
HETATM   10  N5  UNL     1      11.928  19.273  19.514  1.00  0.00    -0.052 N 
ATOM     11  H52 UNL     1      12.671  18.744  19.056  1.00  0.00     0.279 HD
ATOM     12  H51 UNL     1      12.111  18.991  20.477  1.00  0.00     0.279 HD
BRANCH  10  13
HETATM   13  C20 UNL     1      10.596  18.841  19.064  1.00  0.00     0.305 C 
BRANCH  13  14
HETATM   14  C21 UNL     1       9.808  18.147  20.122  1.00  0.00     0.314 C 
BRANCH  14  15
HETATM   15  N6  UNL     1       8.598  18.803  20.535  1.00  0.00     0.082 N 
HETATM   16  C22 UNL     1       7.850  17.811  21.341  1.00  0.00     0.309 C 
HETATM   17  C23 UNL     1       7.710  19.045  19.394  1.00  0.00     0.309 C 
ENDBRANCH  14  15
ENDBRANCH  13  14
BRANCH  13  18
HETATM   18  C24 UNL     1      10.741  17.832  17.947  1.00  0.00     0.250 C 
HETATM   19  O4  UNL     1      11.874  17.678  17.491  1.00  0.00    -0.271 OA
HETATM   20  N7  UNL     1       9.624  17.135  17.487  1.00  0.00    -0.359 N 
ATOM     21  H7  UNL     1       8.754  17.383  17.957  1.00  0.00     0.162 HD
BRANCH  20  22
HETATM   22  C25 UNL     1       9.482  16.148  16.487  1.00  0.00     0.131 C 
BRANCH  22  23
HETATM   23  C26 UNL     1       9.200  16.550  15.087  1.00  0.00    -0.035 C 
HETATM   24  C27 UNL     1       8.524  15.310  14.429  1.00  0.00     0.016 C 
HETATM   25  C28 UNL     1       8.271  17.681  14.840  1.00  0.00     0.016 C 
HETATM   26  C29 UNL     1      10.477  16.831  14.309  1.00  0.00     0.016 C 
ENDBRANCH  22  23
ENDBRANCH  20  22
ENDBRANCH  13  18
ENDBRANCH  10  13
ENDBRANCH   8  10
ENDBRANCH   1   8
BRANCH   2  27
HETATM   27  C6  UNL     1      15.079  22.415  18.583  1.00  0.00     0.684 A 
HETATM   28  N2  UNL     1      15.871  22.512  17.501  1.00  0.00    -0.175 N 
HETATM   29  C7  UNL     1      16.898  23.406  17.385  1.00  0.00     0.136 A 
ATOM     30  H2  UNL     1      15.695  21.880  16.720  1.00  0.00     0.186 HD
HETATM   31  C13 UNL     1      17.139  24.259  18.435  1.00  0.00     0.009 A 
HETATM   32  C16 UNL     1      16.317  24.153  19.546  1.00  0.00     0.032 A 
HETATM   33  C17 UNL     1      16.507  25.081  20.733  1.00  0.00     0.069 C 
HETATM   34  N4  UNL     1      15.324  23.248  19.599  1.00  0.00    -0.195 N 
ATOM     35  H4  UNL     1      14.743  23.197  20.435  1.00  0.00     0.184 HD
BRANCH  29  36
HETATM   36  N3  UNL     1      17.687  23.428  16.227  1.00  0.00    -0.273 N 
HETATM   37  C8  UNL     1      17.511  24.215  15.039  1.00  0.00     0.176 C 
HETATM   38  C9  UNL     1      17.566  23.417  13.762  1.00  0.00     0.106 C 
HETATM   39  C10 UNL     1      16.195  23.089  13.205  1.00  0.00     0.050 C 
HETATM   40  C11 UNL     1      18.263  24.284  12.716  1.00  0.00     0.050 C 
HETATM   41  O1  UNL     1      18.334  22.262  13.844  1.00  0.00    -0.219 OA
HETATM   42  O2  UNL     1      19.244  22.324  14.823  1.00  0.00    -0.137 OA
HETATM   43  C12 UNL     1      18.819  22.526  16.159  1.00  0.00     0.396 C 
HETATM   44  O3  UNL     1      19.359  21.992  17.119  1.00  0.00    -0.235 OA
ENDBRANCH  29  36
BRANCH  31  45
HETATM   45  C14 UNL     1      18.237  25.248  18.388  1.00  0.00     0.040 C 
HETATM   46  C15 UNL     1      17.657  26.557  17.830  1.00  0.00     0.010 C 
ENDBRANCH  31  45
ENDBRANCH   2  27
TORSDOF 14
ENDMDL
MODEL 2
REMARK VINA RESULT: -8.495173218      2.968     10.644
REMARK  14 active torsions:
REMARK  status: ('A' for Active; 'I' for Inactive)
REMARK    1  A    between atoms: C2_2  and  C3_3 
REMARK    2  A    between atoms: C3_3  and  C4_4 
REMARK    3  A    between atoms: C4_4  and  C5_5 
REMARK    4  A    between atoms: C5_5  and  C18_28 
REMARK    5  A    between atoms: N1_6  and  C6_8 
REMARK    6  A    between atoms: C7_11  and  N3_12 
REMARK    7  A    between atoms: C13_21  and  C14_22 
REMARK    8  A    between atoms: C18_28  and  N5_30 
REMARK    9  A    between atoms: N5_30  and  C20_33 
REMARK   10  A    between atoms: C20_33  and  C21_34 
REMARK   11  A    between atoms: C20_33  and  C24_38 
REMARK   12  A    between atoms: C21_34  and  N6_35 
REMARK       I    between atoms: C24_38  and  N7_40 
REMARK   13  A    between atoms: N7_40  and  C25_42 
REMARK   14  A    between atoms: C25_42  and  C26_43 
ROOT
HETATM    1  C5  UNL     1      10.690  18.607  15.785  1.00  0.00     0.034 C 
HETATM    2  N1  UNL     1       9.921  18.885  16.872  1.00  0.00    -0.197 N 
ATOM      3  H1  UNL     1       9.655  19.858  16.724  1.00  0.00     0.183 HD
ENDROOT
BRANCH   1   4
HETATM    4  C4  UNL     1      11.099  17.233  15.413  1.00  0.00     0.055 C 
BRANCH   4   5
HETATM    5  C3  UNL     1      10.226  16.577  14.365  1.00  0.00     0.005 C 
BRANCH   5   6
HETATM    6  C2  UNL     1       9.079  15.849  15.007  1.00  0.00    -0.004 C 
HETATM    7  C1  UNL     1       7.772  16.494  14.648  1.00  0.00     0.005 C 
ENDBRANCH   5   6
ENDBRANCH   4   5
ENDBRANCH   1   4
BRANCH   1   8
HETATM    8  C18 UNL     1      11.814  19.656  15.574  1.00  0.00     0.228 C 
HETATM    9  C19 UNL     1      11.290  21.002  16.090  1.00  0.00     0.046 C 
BRANCH   8  10
HETATM   10  N5  UNL     1      13.054  19.307  16.163  1.00  0.00    -0.052 N 
ATOM     11  H52 UNL     1      12.932  18.927  17.102  1.00  0.00     0.279 HD
ATOM     12  H51 UNL     1      13.467  18.488  15.718  1.00  0.00     0.279 HD
BRANCH  10  13
HETATM   13  C20 UNL     1      13.975  20.453  16.156  1.00  0.00     0.305 C 
BRANCH  13  14
HETATM   14  C21 UNL     1      15.256  20.182  15.441  1.00  0.00     0.314 C 
BRANCH  14  15
HETATM   15  N6  UNL     1      15.588  21.093  14.380  1.00  0.00     0.082 N 
HETATM   16  C22 UNL     1      16.652  21.972  14.916  1.00  0.00     0.309 C 
HETATM   17  C23 UNL     1      14.485  22.023  14.116  1.00  0.00     0.309 C 
ENDBRANCH  14  15
ENDBRANCH  13  14
BRANCH  13  18
HETATM   18  C24 UNL     1      14.375  20.792  17.575  1.00  0.00     0.250 C 
HETATM   19  O4  UNL     1      14.659  19.842  18.305  1.00  0.00    -0.271 OA
HETATM   20  N7  UNL     1      14.406  22.121  17.993  1.00  0.00    -0.359 N 
ATOM     21  H7  UNL     1      14.132  22.792  17.275  1.00  0.00     0.162 HD
BRANCH  20  22
HETATM   22  C25 UNL     1      14.748  22.707  19.232  1.00  0.00     0.131 C 
BRANCH  22  23
HETATM   23  C26 UNL     1      15.479  23.997  19.264  1.00  0.00    -0.035 C 
HETATM   24  C27 UNL     1      16.765  23.766  18.416  1.00  0.00     0.016 C 
HETATM   25  C28 UNL     1      14.834  25.199  18.678  1.00  0.00     0.016 C 
HETATM   26  C29 UNL     1      15.928  24.362  20.671  1.00  0.00     0.016 C 
ENDBRANCH  22  23
ENDBRANCH  20  22
ENDBRANCH  13  18
ENDBRANCH  10  13
ENDBRANCH   8  10
ENDBRANCH   1   8
BRANCH   2  27
HETATM   27  C6  UNL     1       9.377  18.609  17.922  1.00  0.00     0.684 A 
HETATM   28  N2  UNL     1       8.112  18.156  17.873  1.00  0.00    -0.175 N 
HETATM   29  C7  UNL     1       7.382  17.814  18.976  1.00  0.00     0.136 A 
ATOM     30  H2  UNL     1       7.671  18.062  16.959  1.00  0.00     0.186 HD
HETATM   31  C13 UNL     1       7.973  17.938  20.211  1.00  0.00     0.009 A 
HETATM   32  C16 UNL     1       9.278  18.405  20.251  1.00  0.00     0.032 A 
HETATM   33  C17 UNL     1      10.004  18.543  21.578  1.00  0.00     0.069 C 
HETATM   34  N4  UNL     1       9.940  18.728  19.127  1.00  0.00    -0.195 N 
ATOM     35  H4  UNL     1      10.898  19.072  19.197  1.00  0.00     0.184 HD
BRANCH  29  36
HETATM   36  N3  UNL     1       6.062  17.366  18.838  1.00  0.00    -0.273 N 
HETATM   37  C8  UNL     1       4.843  18.095  19.056  1.00  0.00     0.176 C 
HETATM   38  C9  UNL     1       3.854  17.381  19.940  1.00  0.00     0.106 C 
HETATM   39  C10 UNL     1       3.874  17.871  21.375  1.00  0.00     0.050 C 
HETATM   40  C11 UNL     1       2.459  17.686  19.397  1.00  0.00     0.050 C 
HETATM   41  O1  UNL     1       3.958  15.995  19.910  1.00  0.00    -0.219 OA
HETATM   42  O2  UNL     1       4.538  15.552  18.788  1.00  0.00    -0.137 OA
HETATM   43  C12 UNL     1       5.848  15.983  18.464  1.00  0.00     0.396 C 
HETATM   44  O3  UNL     1       6.677  15.256  17.934  1.00  0.00    -0.235 OA
ENDBRANCH  29  36
BRANCH  31  45
HETATM   45  C14 UNL     1       7.246  17.596  21.452  1.00  0.00     0.040 C 
HETATM   46  C15 UNL     1       7.475  16.101  21.725  1.00  0.00     0.010 C 
ENDBRANCH  31  45
ENDBRANCH   2  27
TORSDOF 14
ENDMDL
MODEL 3
REMARK VINA RESULT: -8.445647858      1.068      1.313
REMARK  14 active torsions:
REMARK  status: ('A' for Active; 'I' for Inactive)
REMARK    1  A    between atoms: C2_2  and  C3_3 
REMARK    2  A    between atoms: C3_3  and  C4_4 
REMARK    3  A    between atoms: C4_4  and  C5_5 
REMARK    4  A    between atoms: C5_5  and  C18_28 
REMARK    5  A    between atoms: N1_6  and  C6_8 
REMARK    6  A    between atoms: C7_11  and  N3_12 
REMARK    7  A    between atoms: C13_21  and  C14_22 
REMARK    8  A    between atoms: C18_28  and  N5_30 
REMARK    9  A    between atoms: N5_30  and  C20_33 
REMARK   10  A    between atoms: C20_33  and  C21_34 
REMARK   11  A    between atoms: C20_33  and  C24_38 
REMARK   12  A    between atoms: C21_34  and  N6_35 
REMARK       I    between atoms: C24_38  and  N7_40 
REMARK   13  A    between atoms: N7_40  and  C25_42 
REMARK   14  A    between atoms: C25_42  and  C26_43 
ROOT
HETATM    1  C5  UNL     1      13.811  20.486  18.275  1.00  0.00     0.034 C 
HETATM    2  N1  UNL     1      14.557  21.514  18.760  1.00  0.00    -0.197 N 
ATOM      3  H1  UNL     1      14.348  21.500  19.758  1.00  0.00     0.183 HD
ENDROOT
BRANCH   1   4
HETATM    4  C4  UNL     1      13.980  19.939  16.908  1.00  0.00     0.055 C 
BRANCH   4   5
HETATM    5  C3  UNL     1      13.685  20.920  15.796  1.00  0.00     0.005 C 
BRANCH   5   6
HETATM    6  C2  UNL     1      14.547  20.641  14.597  1.00  0.00    -0.004 C 
HETATM    7  C1  UNL     1      15.780  19.882  14.994  1.00  0.00     0.005 C 
ENDBRANCH   5   6
ENDBRANCH   4   5
ENDBRANCH   1   4
BRANCH   1   8
HETATM    8  C18 UNL     1      12.327  20.571  18.719  1.00  0.00     0.228 C 
HETATM    9  C19 UNL     1      11.773  21.911  18.217  1.00  0.00     0.046 C 
BRANCH   8  10
HETATM   10  N5  UNL     1      11.531  19.477  18.300  1.00  0.00    -0.052 N 
ATOM     11  H52 UNL     1      11.988  18.935  17.567  1.00  0.00     0.279 HD
ATOM     12  H51 UNL     1      11.478  18.753  19.016  1.00  0.00     0.279 HD
BRANCH  10  13
HETATM   13  C20 UNL     1      10.195  19.933  17.886  1.00  0.00     0.305 C 
BRANCH  13  14
HETATM   14  C21 UNL     1       9.108  19.507  18.814  1.00  0.00     0.314 C 
BRANCH  14  15
HETATM   15  N6  UNL     1       9.483  18.560  19.828  1.00  0.00     0.082 N 
HETATM   16  C22 UNL     1       8.379  17.575  19.895  1.00  0.00     0.309 C 
HETATM   17  C23 UNL     1       9.464  19.175  21.159  1.00  0.00     0.309 C 
ENDBRANCH  14  15
ENDBRANCH  13  14
BRANCH  13  18
HETATM   18  C24 UNL     1       9.842  19.320  16.549  1.00  0.00     0.250 C 
HETATM   19  O4  UNL     1      10.630  19.527  15.626  1.00  0.00    -0.271 OA
HETATM   20  N7  UNL     1       8.676  18.568  16.412  1.00  0.00    -0.359 N 
ATOM     21  H7  UNL     1       8.121  18.497  17.265  1.00  0.00     0.162 HD
BRANCH  20  22
HETATM   22  C25 UNL     1       8.124  17.887  15.304  1.00  0.00     0.131 C 
BRANCH  22  23
HETATM   23  C26 UNL     1       8.439  16.454  15.086  1.00  0.00    -0.035 C 
HETATM   24  C27 UNL     1       8.563  15.835  16.511  1.00  0.00     0.016 C 
HETATM   25  C28 UNL     1       7.451  15.604  14.375  1.00  0.00     0.016 C 
HETATM   26  C29 UNL     1       9.782  16.266  14.396  1.00  0.00     0.016 C 
ENDBRANCH  22  23
ENDBRANCH  20  22
ENDBRANCH  13  18
ENDBRANCH  10  13
ENDBRANCH   8  10
ENDBRANCH   1   8
BRANCH   2  27
HETATM   27  C6  UNL     1      15.335  22.441  18.657  1.00  0.00     0.684 A 
HETATM   28  N2  UNL     1      16.098  22.499  17.551  1.00  0.00    -0.175 N 
HETATM   29  C7  UNL     1      17.015  23.482  17.309  1.00  0.00     0.136 A 
ATOM     30  H2  UNL     1      15.985  21.766  16.851  1.00  0.00     0.186 HD
HETATM   31  C13 UNL     1      17.172  24.472  18.249  1.00  0.00     0.009 A 
HETATM   32  C16 UNL     1      16.380  24.404  19.386  1.00  0.00     0.032 A 
HETATM   33  C17 UNL     1      16.478  25.477  20.456  1.00  0.00     0.069 C 
HETATM   34  N4  UNL     1      15.497  23.407  19.565  1.00  0.00    -0.195 N 
ATOM     35  H4  UNL     1      14.935  23.388  20.416  1.00  0.00     0.184 HD
BRANCH  29  36
HETATM   36  N3  UNL     1      17.783  23.458  16.137  1.00  0.00    -0.273 N 
HETATM   37  C8  UNL     1      17.638  24.262  14.956  1.00  0.00     0.176 C 
HETATM   38  C9  UNL     1      17.617  23.469  13.675  1.00  0.00     0.106 C 
HETATM   39  C10 UNL     1      16.217  23.235  13.141  1.00  0.00     0.050 C 
HETATM   40  C11 UNL     1      18.351  24.294  12.619  1.00  0.00     0.050 C 
HETATM   41  O1  UNL     1      18.307  22.265  13.737  1.00  0.00    -0.219 OA
HETATM   42  O2  UNL     1      19.238  22.261  14.700  1.00  0.00    -0.137 OA
HETATM   43  C12 UNL     1      18.851  22.484  16.044  1.00  0.00     0.396 C 
HETATM   44  O3  UNL     1      19.372  21.910  16.992  1.00  0.00    -0.235 OA
ENDBRANCH  29  36
BRANCH  31  45
HETATM   45  C14 UNL     1      18.150  25.564  18.064  1.00  0.00     0.040 C 
HETATM   46  C15 UNL     1      17.403  26.753  17.440  1.00  0.00     0.010 C 
ENDBRANCH  31  45
ENDBRANCH   2  27
TORSDOF 14
ENDMDL
MODEL 4
REMARK VINA RESULT: -8.325865313      1.233      3.183
REMARK  14 active torsions:
REMARK  status: ('A' for Active; 'I' for Inactive)
REMARK    1  A    between atoms: C2_2  and  C3_3 
REMARK    2  A    between atoms: C3_3  and  C4_4 
REMARK    3  A    between atoms: C4_4  and  C5_5 
REMARK    4  A    between atoms: C5_5  and  C18_28 
REMARK    5  A    between atoms: N1_6  and  C6_8 
REMARK    6  A    between atoms: C7_11  and  N3_12 
REMARK    7  A    between atoms: C13_21  and  C14_22 
REMARK    8  A    between atoms: C18_28  and  N5_30 
REMARK    9  A    between atoms: N5_30  and  C20_33 
REMARK   10  A    between atoms: C20_33  and  C21_34 
REMARK   11  A    between atoms: C20_33  and  C24_38 
REMARK   12  A    between atoms: C21_34  and  N6_35 
REMARK       I    between atoms: C24_38  and  N7_40 
REMARK   13  A    between atoms: N7_40  and  C25_42 
REMARK   14  A    between atoms: C25_42  and  C26_43 
ROOT
HETATM    1  C5  UNL     1      13.026  20.729  17.454  1.00  0.00     0.034 C 
HETATM    2  N1  UNL     1      14.125  21.283  18.032  1.00  0.00    -0.197 N 
ATOM      3  H1  UNL     1      14.376  20.603  18.749  1.00  0.00     0.183 HD
ENDROOT
BRANCH   1   4
HETATM    4  C4  UNL     1      12.448  21.219  16.180  1.00  0.00     0.055 C 
BRANCH   4   5
HETATM    5  C3  UNL     1      12.826  20.405  14.962  1.00  0.00     0.005 C 
BRANCH   5   6
HETATM    6  C2  UNL     1      13.967  21.047  14.225  1.00  0.00    -0.004 C 
HETATM    7  C1  UNL     1      13.604  21.286  12.788  1.00  0.00     0.005 C 
ENDBRANCH   5   6
ENDBRANCH   4   5
ENDBRANCH   1   4
BRANCH   1   8
HETATM    8  C18 UNL     1      11.950  20.324  18.496  1.00  0.00     0.228 C 
HETATM    9  C19 UNL     1      11.738  21.526  19.427  1.00  0.00     0.046 C 
BRANCH   8  10
HETATM   10  N5  UNL     1      10.734  19.870  17.931  1.00  0.00    -0.052 N 
ATOM     11  H52 UNL     1       9.961  20.501  18.141  1.00  0.00     0.279 HD
ATOM     12  H51 UNL     1      10.733  19.960  16.915  1.00  0.00     0.279 HD
BRANCH  10  13
HETATM   13  C20 UNL     1      10.443  18.493  18.356  1.00  0.00     0.305 C 
BRANCH  13  14
HETATM   14  C21 UNL     1      10.059  17.592  17.231  1.00  0.00     0.314 C 
BRANCH  14  15
HETATM   15  N6  UNL     1      10.089  18.178  15.919  1.00  0.00     0.082 N 
HETATM   16  C22 UNL     1       8.681  18.239  15.466  1.00  0.00     0.309 C 
HETATM   17  C23 UNL     1      10.714  17.273  14.949  1.00  0.00     0.309 C 
ENDBRANCH  14  15
ENDBRANCH  13  14
BRANCH  13  18
HETATM   18  C24 UNL     1       9.256  18.491  19.293  1.00  0.00     0.250 C 
HETATM   19  O4  UNL     1       8.239  19.056  18.889  1.00  0.00    -0.271 OA
HETATM   20  N7  UNL     1       9.351  17.872  20.538  1.00  0.00    -0.359 N 
ATOM     21  H7  UNL     1      10.263  17.459  20.732  1.00  0.00     0.162 HD
BRANCH  20  22
HETATM   22  C25 UNL     1       8.410  17.715  21.581  1.00  0.00     0.131 C 
BRANCH  22  23
HETATM   23  C26 UNL     1       7.482  16.558  21.571  1.00  0.00    -0.035 C 
HETATM   24  C27 UNL     1       6.125  17.120  21.051  1.00  0.00     0.016 C 
HETATM   25  C28 UNL     1       7.790  15.401  20.694  1.00  0.00     0.016 C 
HETATM   26  C29 UNL     1       7.237  16.015  22.971  1.00  0.00     0.016 C 
ENDBRANCH  22  23
ENDBRANCH  20  22
ENDBRANCH  13  18
ENDBRANCH  10  13
ENDBRANCH   8  10
ENDBRANCH   1   8
BRANCH   2  27
HETATM   27  C6  UNL     1      14.972  22.143  18.162  1.00  0.00     0.684 A 
HETATM   28  N2  UNL     1      15.810  22.361  17.134  1.00  0.00    -0.175 N 
HETATM   29  C7  UNL     1      16.808  23.293  17.148  1.00  0.00     0.136 A 
ATOM     30  H2  UNL     1      15.693  21.797  16.292  1.00  0.00     0.186 HD
HETATM   31  C13 UNL     1      16.969  24.057  18.279  1.00  0.00     0.009 A 
HETATM   32  C16 UNL     1      16.101  23.826  19.335  1.00  0.00     0.032 A 
HETATM   33  C17 UNL     1      16.201  24.649  20.607  1.00  0.00     0.069 C 
HETATM   34  N4  UNL     1      15.139  22.889  19.258  1.00  0.00    -0.195 N 
ATOM     35  H4  UNL     1      14.521  22.745  20.057  1.00  0.00     0.184 HD
BRANCH  29  36
HETATM   36  N3  UNL     1      17.649  23.444  16.037  1.00  0.00    -0.273 N 
HETATM   37  C8  UNL     1      17.553  24.394  14.964  1.00  0.00     0.176 C 
HETATM   38  C9  UNL     1      17.640  23.777  13.592  1.00  0.00     0.106 C 
HETATM   39  C10 UNL     1      16.286  23.583  12.939  1.00  0.00     0.050 C 
HETATM   40  C11 UNL     1      18.413  24.752  12.705  1.00  0.00     0.050 C 
HETATM   41  O1  UNL     1      18.365  22.593  13.543  1.00  0.00    -0.219 OA
HETATM   42  O2  UNL     1      19.232  22.484  14.558  1.00  0.00    -0.137 OA
HETATM   43  C12 UNL     1      18.753  22.517  15.890  1.00  0.00     0.396 C 
HETATM   44  O3  UNL     1      19.231  21.835  16.788  1.00  0.00    -0.235 OA
ENDBRANCH  29  36
BRANCH  31  45
HETATM   45  C14 UNL     1      18.032  25.080  18.375  1.00  0.00     0.040 C 
HETATM   46  C15 UNL     1      17.420  26.423  17.949  1.00  0.00     0.010 C 
ENDBRANCH  31  45
ENDBRANCH   2  27
TORSDOF 14
ENDMDL
MODEL 5
REMARK VINA RESULT: -8.322139808      2.789     10.989
REMARK  14 active torsions:
REMARK  status: ('A' for Active; 'I' for Inactive)
REMARK    1  A    between atoms: C2_2  and  C3_3 
REMARK    2  A    between atoms: C3_3  and  C4_4 
REMARK    3  A    between atoms: C4_4  and  C5_5 
REMARK    4  A    between atoms: C5_5  and  C18_28 
REMARK    5  A    between atoms: N1_6  and  C6_8 
REMARK    6  A    between atoms: C7_11  and  N3_12 
REMARK    7  A    between atoms: C13_21  and  C14_22 
REMARK    8  A    between atoms: C18_28  and  N5_30 
REMARK    9  A    between atoms: N5_30  and  C20_33 
REMARK   10  A    between atoms: C20_33  and  C21_34 
REMARK   11  A    between atoms: C20_33  and  C24_38 
REMARK   12  A    between atoms: C21_34  and  N6_35 
REMARK       I    between atoms: C24_38  and  N7_40 
REMARK   13  A    between atoms: N7_40  and  C25_42 
REMARK   14  A    between atoms: C25_42  and  C26_43 
ROOT
HETATM    1  C5  UNL     1      11.378  18.243  17.370  1.00  0.00     0.034 C 
HETATM    2  N1  UNL     1      10.639  17.179  16.956  1.00  0.00    -0.197 N 
ATOM      3  H1  UNL     1      11.340  16.550  16.564  1.00  0.00     0.183 HD
ENDROOT
BRANCH   1   4
HETATM    4  C4  UNL     1      10.840  19.310  18.245  1.00  0.00     0.055 C 
BRANCH   4   5
HETATM    5  C3  UNL     1      11.309  19.243  19.682  1.00  0.00     0.005 C 
BRANCH   5   6
HETATM    6  C2  UNL     1      11.299  20.608  20.310  1.00  0.00    -0.004 C 
HETATM    7  C1  UNL     1      10.962  21.660  19.292  1.00  0.00     0.005 C 
ENDBRANCH   5   6
ENDBRANCH   4   5
ENDBRANCH   1   4
BRANCH   1   8
HETATM    8  C18 UNL     1      12.313  18.782  16.255  1.00  0.00     0.228 C 
HETATM    9  C19 UNL     1      11.621  19.997  15.623  1.00  0.00     0.046 C 
BRANCH   8  10
HETATM   10  N5  UNL     1      13.625  19.087  16.692  1.00  0.00    -0.052 N 
ATOM     11  H52 UNL     1      13.789  18.768  17.647  1.00  0.00     0.279 HD
ATOM     12  H51 UNL     1      14.324  18.515  16.218  1.00  0.00     0.279 HD
BRANCH  10  13
HETATM   13  C20 UNL     1      13.904  20.523  16.544  1.00  0.00     0.305 C 
BRANCH  13  14
HETATM   14  C21 UNL     1      15.026  20.817  15.606  1.00  0.00     0.314 C 
BRANCH  14  15
HETATM   15  N6  UNL     1      14.898  22.020  14.832  1.00  0.00     0.082 N 
HETATM   16  C22 UNL     1      14.230  21.625  13.571  1.00  0.00     0.309 C 
HETATM   17  C23 UNL     1      16.208  22.502  14.380  1.00  0.00     0.309 C 
ENDBRANCH  14  15
ENDBRANCH  13  14
BRANCH  13  18
HETATM   18  C24 UNL     1      14.336  21.097  17.875  1.00  0.00     0.250 C 
HETATM   19  O4  UNL     1      14.713  20.287  18.724  1.00  0.00    -0.271 OA
HETATM   20  N7  UNL     1      14.294  22.473  18.089  1.00  0.00    -0.359 N 
ATOM     21  H7  UNL     1      13.947  23.010  17.294  1.00  0.00     0.162 HD
BRANCH  20  22
HETATM   22  C25 UNL     1      14.645  23.259  19.209  1.00  0.00     0.131 C 
BRANCH  22  23
HETATM   23  C26 UNL     1      15.230  24.608  19.012  1.00  0.00    -0.035 C 
HETATM   24  C27 UNL     1      16.410  24.405  18.015  1.00  0.00     0.016 C 
HETATM   25  C28 UNL     1      14.388  25.673  18.413  1.00  0.00     0.016 C 
HETATM   26  C29 UNL     1      15.821  25.164  20.300  1.00  0.00     0.016 C 
ENDBRANCH  22  23
ENDBRANCH  20  22
ENDBRANCH  13  18
ENDBRANCH  10  13
ENDBRANCH   8  10
ENDBRANCH   1   8
BRANCH   2  27
HETATM   27  C6  UNL     1       9.603  16.567  16.798  1.00  0.00     0.684 A 
HETATM   28  N2  UNL     1       8.716  16.562  17.808  1.00  0.00    -0.175 N 
HETATM   29  C7  UNL     1       7.515  15.912  17.766  1.00  0.00     0.136 A 
ATOM     30  H2  UNL     1       8.953  17.074  18.658  1.00  0.00     0.186 HD
HETATM   31  C13 UNL     1       7.190  15.220  16.623  1.00  0.00     0.009 A 
HETATM   32  C16 UNL     1       8.110  15.231  15.586  1.00  0.00     0.032 A 
HETATM   33  C17 UNL     1       7.808  14.512  14.284  1.00  0.00     0.069 C 
HETATM   34  N4  UNL     1       9.278  15.890  15.693  1.00  0.00    -0.195 N 
ATOM     35  H4  UNL     1       9.932  15.872  14.910  1.00  0.00     0.184 HD
BRANCH  29  36
HETATM   36  N3  UNL     1       6.656  15.943  18.872  1.00  0.00    -0.273 N 
HETATM   37  C8  UNL     1       5.272  16.325  18.920  1.00  0.00     0.176 C 
HETATM   38  C9  UNL     1       4.950  17.324  20.001  1.00  0.00     0.106 C 
HETATM   39  C10 UNL     1       4.859  18.748  19.489  1.00  0.00     0.050 C 
HETATM   40  C11 UNL     1       3.568  16.970  20.547  1.00  0.00     0.050 C 
HETATM   41  O1  UNL     1       5.798  17.268  21.100  1.00  0.00    -0.219 OA
HETATM   42  O2  UNL     1       6.394  16.076  21.223  1.00  0.00    -0.137 OA
HETATM   43  C12 UNL     1       7.201  15.588  20.167  1.00  0.00     0.396 C 
HETATM   44  O3  UNL     1       8.227  14.947  20.352  1.00  0.00    -0.235 OA
ENDBRANCH  29  36
BRANCH  31  45
HETATM   45  C14 UNL     1       5.914  14.484  16.504  1.00  0.00     0.040 C 
HETATM   46  C15 UNL     1       4.951  15.358  15.685  1.00  0.00     0.010 C 
ENDBRANCH  31  45
ENDBRANCH   2  27
TORSDOF 14
ENDMDL
