MODEL 1
REMARK VINA RESULT: -10.116963168      0.000      0.000
REMARK  14 active torsions:
REMARK  status: ('A' for Active; 'I' for Inactive)
REMARK    1  A    between atoms: N1_1  and  C1_4 
REMARK    2  A    between atoms: C2_5  and  C3_6 
REMARK    3  A    between atoms: C6_9  and  O1_10 
REMARK    4  A    between atoms: N2_15  and  C10_16 
REMARK    5  A    between atoms: C16_24  and  C17_25 
REMARK       I    between atoms: C17_25  and  N4_27 
REMARK    6  A    between atoms: N4_27  and  C18_29 
REMARK    7  A    between atoms: C19_31  and  O4_32 
REMARK    8  A    between atoms: C19_31  and  C20_34 
REMARK    9  A    between atoms: C20_34  and  O5_35 
REMARK   10  A    between atoms: C21_38  and  C22_39 
REMARK   11  A    between atoms: C22_39  and  O7_40 
REMARK   12  A    between atoms: C22_39  and  C23_42 
REMARK   13  A    between atoms: C23_42  and  C24_47 
REMARK   14  A    between atoms: N5_43  and  O8_45 
ROOT
HETATM    1  C17 UNL     1      -6.648  18.945 -31.890  1.00  0.00     0.274 C 
HETATM    2  O2  UNL     1      -5.805  19.836 -31.467  1.00  0.00    -0.266 OA
HETATM    3  N4  UNL     1      -7.613  18.582 -30.960  1.00  0.00    -0.327 N 
ATOM      4  H4  UNL     1      -8.315  17.886 -31.210  1.00  0.00     0.165 HD
ENDROOT
BRANCH   1   5
HETATM    5  C16 UNL     1      -6.485  18.450 -33.243  1.00  0.00     0.143 A 
HETATM    6  C1  UNL     1      -7.488  18.048 -34.103  1.00  0.00     0.072 A 
HETATM    7  C2  UNL     1      -7.224  17.576 -35.377  1.00  0.00     0.020 A 
HETATM    8  C9  UNL     1      -5.891  17.521 -35.779  1.00  0.00     0.131 A 
HETATM    9  N2  UNL     1      -4.941  17.916 -34.931  1.00  0.00    -0.266 N 
HETATM   10  N3  UNL     1      -5.198  18.355 -33.737  1.00  0.00    -0.287 N 
ATOM     11  H3  UNL     1      -4.421  18.640 -33.141  1.00  0.00     0.188 HD
BRANCH   6  12
HETATM   12  N1  UNL     1      -8.681  18.157 -33.722  1.00  0.00    -0.396 N 
ATOM     13  H12 UNL     1      -9.409  18.252 -34.430  1.00  0.00     0.156 HD
ATOM     14  H11 UNL     1      -8.894  18.114 -32.725  1.00  0.00     0.156 HD
ENDBRANCH   6  12
BRANCH   7  15
HETATM   15  C3  UNL     1      -8.243  17.103 -36.290  1.00  0.00    -0.022 A 
HETATM   16  C4  UNL     1      -8.605  15.778 -36.278  1.00  0.00     0.015 A 
HETATM   17  C5  UNL     1      -9.573  15.290 -37.132  1.00  0.00     0.037 A 
HETATM   18  C6  UNL     1     -10.208  16.121 -38.028  1.00  0.00     0.065 A 
HETATM   19  C7  UNL     1      -9.841  17.443 -38.033  1.00  0.00     0.037 A 
HETATM   20  C8  UNL     1      -8.878  17.958 -37.190  1.00  0.00     0.015 A 
BRANCH  18  21
HETATM   21  O1  UNL     1     -11.169  15.627 -38.872  1.00  0.00    -0.361 OA
ATOM     22  H1  UNL     1     -11.284  15.997 -39.740  1.00  0.00     0.217 HD
ENDBRANCH  18  21
ENDBRANCH   7  15
BRANCH   9  23
HETATM   23  C10 UNL     1      -3.582  17.848 -35.374  1.00  0.00     0.056 A 
HETATM   24  C11 UNL     1      -2.996  18.843 -36.108  1.00  0.00     0.031 A 
HETATM   25  C12 UNL     1      -1.686  18.705 -36.497  1.00  0.00     0.002 A 
HETATM   26  C13 UNL     1      -0.953  17.601 -36.171  1.00  0.00     0.000 A 
HETATM   27  C14 UNL     1      -1.561  16.608 -35.429  1.00  0.00     0.002 A 
HETATM   28  C15 UNL     1      -2.869  16.727 -35.031  1.00  0.00     0.031 A 
ENDBRANCH   9  23
ENDBRANCH   1   5
BRANCH   3  29
HETATM   29  C18 UNL     1      -7.637  19.188 -29.617  1.00  0.00     0.262 C 
HETATM   30  O3  UNL     1      -8.863  19.834 -29.412  1.00  0.00    -0.303 OA
HETATM   31  C19 UNL     1      -9.430  19.297 -28.284  1.00  0.00     0.305 C 
HETATM   32  O6  UNL     1      -8.419  18.639 -27.586  1.00  0.00    -0.318 OA
HETATM   33  C21 UNL     1      -7.704  18.055 -28.628  1.00  0.00     0.211 C 
BRANCH  31  34
HETATM   34  O4  UNL     1     -10.404  18.338 -28.575  1.00  0.00    -0.342 OA
ATOM     35  H4  UNL     1     -11.019  18.213 -27.862  1.00  0.00     0.215 HD
ENDBRANCH  31  34
BRANCH  31  36
HETATM   36  C20 UNL     1     -10.091  20.359 -27.427  1.00  0.00     0.266 C 
BRANCH  36  37
HETATM   37  O5  UNL     1      -9.276  21.486 -27.344  1.00  0.00    -0.393 OA
ATOM     38  H5  UNL     1      -9.405  21.923 -26.511  1.00  0.00     0.209 HD
ENDBRANCH  36  37
ENDBRANCH  31  36
BRANCH  33  39
HETATM   39  C22 UNL     1      -6.387  17.480 -28.241  1.00  0.00     0.210 C 
BRANCH  39  40
HETATM   40  O7  UNL     1      -5.585  17.473 -29.389  1.00  0.00    -0.386 OA
ATOM     41  H7  UNL     1      -5.068  18.269 -29.375  1.00  0.00     0.210 HD
ENDBRANCH  39  40
BRANCH  39  42
HETATM   42  C23 UNL     1      -6.401  16.222 -27.507  1.00  0.00     0.139 C 
HETATM   43  N5  UNL     1      -6.823  15.150 -28.142  1.00  0.00    -0.264 N 
ATOM     44  H5  UNL     1      -6.846  14.253 -27.659  1.00  0.00     0.194 HD
BRANCH  43  45
HETATM   45  O8  UNL     1      -7.232  15.227 -29.448  1.00  0.00    -0.289 OA
ATOM     46  H8  UNL     1      -6.598  15.260 -30.154  1.00  0.00     0.244 HD
ENDBRANCH  43  45
BRANCH  42  47
HETATM   47  C24 UNL     1      -6.000  16.007 -26.134  1.00  0.00     0.227 C 
HETATM   48  O9  UNL     1      -6.798  15.965 -25.171  1.00  0.00    -0.643 OA
HETATM   49  O10 UNL     1      -4.662  15.833 -25.827  1.00  0.00    -0.643 OA
ENDBRANCH  42  47
ENDBRANCH  39  42
ENDBRANCH  33  39
ENDBRANCH   3  29
TORSDOF 14
ENDMDL
MODEL 2
REMARK VINA RESULT: -10.116149399      2.084      4.761
REMARK  14 active torsions:
REMARK  status: ('A' for Active; 'I' for Inactive)
REMARK    1  A    between atoms: N1_1  and  C1_4 
REMARK    2  A    between atoms: C2_5  and  C3_6 
REMARK    3  A    between atoms: C6_9  and  O1_10 
REMARK    4  A    between atoms: N2_15  and  C10_16 
REMARK    5  A    between atoms: C16_24  and  C17_25 
REMARK       I    between atoms: C17_25  and  N4_27 
REMARK    6  A    between atoms: N4_27  and  C18_29 
REMARK    7  A    between atoms: C19_31  and  O4_32 
REMARK    8  A    between atoms: C19_31  and  C20_34 
REMARK    9  A    between atoms: C20_34  and  O5_35 
REMARK   10  A    between atoms: C21_38  and  C22_39 
REMARK   11  A    between atoms: C22_39  and  O7_40 
REMARK   12  A    between atoms: C22_39  and  C23_42 
REMARK   13  A    between atoms: C23_42  and  C24_47 
REMARK   14  A    between atoms: N5_43  and  O8_45 
ROOT
HETATM    1  C17 UNL     1      -6.525  18.513 -30.951  1.00  0.00     0.274 C 
HETATM    2  O2  UNL     1      -5.698  19.256 -30.281  1.00  0.00    -0.266 OA
HETATM    3  N4  UNL     1      -7.637  18.099 -30.230  1.00  0.00    -0.327 N 
ATOM      4  H4  UNL     1      -8.338  17.510 -30.681  1.00  0.00     0.165 HD
ENDROOT
BRANCH   1   5
HETATM    5  C16 UNL     1      -6.197  18.213 -32.331  1.00  0.00     0.143 A 
HETATM    6  C1  UNL     1      -4.975  17.792 -32.818  1.00  0.00     0.072 A 
HETATM    7  C2  UNL     1      -4.761  17.544 -34.163  1.00  0.00     0.020 A 
HETATM    8  C9  UNL     1      -5.835  17.729 -35.030  1.00  0.00     0.131 A 
HETATM    9  N2  UNL     1      -7.005  18.134 -34.536  1.00  0.00    -0.266 N 
HETATM   10  N3  UNL     1      -7.196  18.367 -33.273  1.00  0.00    -0.287 N 
ATOM     11  H3  UNL     1      -8.118  18.676 -32.965  1.00  0.00     0.188 HD
BRANCH   6  12
HETATM   12  N1  UNL     1      -4.043  17.590 -31.999  1.00  0.00    -0.396 N 
ATOM     13  H12 UNL     1      -3.106  17.913 -32.241  1.00  0.00     0.156 HD
ATOM     14  H11 UNL     1      -4.251  17.143 -31.105  1.00  0.00     0.156 HD
ENDBRANCH   6  12
BRANCH   7  15
HETATM   15  C3  UNL     1      -3.484  17.147 -34.716  1.00  0.00    -0.022 A 
HETATM   16  C4  UNL     1      -2.831  16.050 -34.207  1.00  0.00     0.015 A 
HETATM   17  C5  UNL     1      -1.613  15.642 -34.709  1.00  0.00     0.037 A 
HETATM   18  C6  UNL     1      -1.010  16.324 -35.742  1.00  0.00     0.065 A 
HETATM   19  C7  UNL     1      -1.668  17.418 -36.246  1.00  0.00     0.037 A 
HETATM   20  C8  UNL     1      -2.886  17.849 -35.764  1.00  0.00     0.015 A 
BRANCH  18  21
HETATM   21  O1  UNL     1       0.201  15.910 -36.235  1.00  0.00    -0.361 OA
ATOM     22  H1  UNL     1       0.622  16.387 -36.941  1.00  0.00     0.217 HD
ENDBRANCH  18  21
ENDBRANCH   7  15
BRANCH   9  23
HETATM   23  C10 UNL     1      -8.089  18.315 -35.453  1.00  0.00     0.056 A 
HETATM   24  C11 UNL     1      -7.992  17.995 -36.780  1.00  0.00     0.031 A 
HETATM   25  C12 UNL     1      -9.076  18.197 -37.598  1.00  0.00     0.002 A 
HETATM   26  C13 UNL     1     -10.248  18.710 -37.123  1.00  0.00     0.000 A 
HETATM   27  C14 UNL     1     -10.327  19.026 -35.782  1.00  0.00     0.002 A 
HETATM   28  C15 UNL     1      -9.256  18.831 -34.947  1.00  0.00     0.031 A 
ENDBRANCH   9  23
ENDBRANCH   1   5
BRANCH   3  29
HETATM   29  C18 UNL     1      -7.819  18.497 -28.823  1.00  0.00     0.262 C 
HETATM   30  O3  UNL     1      -8.336  19.798 -28.764  1.00  0.00    -0.303 OA
HETATM   31  C19 UNL     1      -9.504  19.747 -28.045  1.00  0.00     0.305 C 
HETATM   32  O6  UNL     1      -9.501  18.545 -27.339  1.00  0.00    -0.318 OA
HETATM   33  C21 UNL     1      -8.957  17.676 -28.280  1.00  0.00     0.211 C 
BRANCH  31  34
HETATM   34  O4  UNL     1     -10.638  19.729 -28.861  1.00  0.00    -0.342 OA
ATOM     35  H4  UNL     1     -11.020  20.590 -28.976  1.00  0.00     0.215 HD
ENDBRANCH  31  34
BRANCH  31  36
HETATM   36  C20 UNL     1      -9.643  20.935 -27.113  1.00  0.00     0.266 C 
BRANCH  36  37
HETATM   37  O5  UNL     1      -8.767  20.807 -26.038  1.00  0.00    -0.393 OA
ATOM     38  H5  UNL     1      -9.211  20.409 -25.299  1.00  0.00     0.209 HD
ENDBRANCH  36  37
ENDBRANCH  31  36
BRANCH  33  39
HETATM   39  C22 UNL     1      -8.572  16.339 -27.753  1.00  0.00     0.210 C 
BRANCH  39  40
HETATM   40  O7  UNL     1      -9.393  16.077 -26.650  1.00  0.00    -0.386 OA
ATOM     41  H7  UNL     1      -9.552  16.906 -26.214  1.00  0.00     0.210 HD
ENDBRANCH  39  40
BRANCH  39  42
HETATM   42  C23 UNL     1      -7.154  16.100 -27.521  1.00  0.00     0.139 C 
HETATM   43  N5  UNL     1      -6.480  15.475 -28.462  1.00  0.00    -0.264 N 
ATOM     44  H5  UNL     1      -5.485  15.291 -28.333  1.00  0.00     0.194 HD
BRANCH  43  45
HETATM   45  O8  UNL     1      -7.100  15.069 -29.614  1.00  0.00    -0.289 OA
ATOM     46  H8  UNL     1      -6.592  14.843 -30.384  1.00  0.00     0.244 HD
ENDBRANCH  43  45
BRANCH  42  47
HETATM   47  C24 UNL     1      -6.384  16.473 -26.354  1.00  0.00     0.227 C 
HETATM   48  O9  UNL     1      -6.783  17.277 -25.482  1.00  0.00    -0.643 OA
HETATM   49  O10 UNL     1      -5.129  15.927 -26.155  1.00  0.00    -0.643 OA
ENDBRANCH  42  47
ENDBRANCH  39  42
ENDBRANCH  33  39
ENDBRANCH   3  29
TORSDOF 14
ENDMDL
MODEL 3
REMARK VINA RESULT: -9.970639852      2.206      4.883
REMARK  14 active torsions:
REMARK  status: ('A' for Active; 'I' for Inactive)
REMARK    1  A    between atoms: N1_1  and  C1_4 
REMARK    2  A    between atoms: C2_5  and  C3_6 
REMARK    3  A    between atoms: C6_9  and  O1_10 
REMARK    4  A    between atoms: N2_15  and  C10_16 
REMARK    5  A    between atoms: C16_24  and  C17_25 
REMARK       I    between atoms: C17_25  and  N4_27 
REMARK    6  A    between atoms: N4_27  and  C18_29 
REMARK    7  A    between atoms: C19_31  and  O4_32 
REMARK    8  A    between atoms: C19_31  and  C20_34 
REMARK    9  A    between atoms: C20_34  and  O5_35 
REMARK   10  A    between atoms: C21_38  and  C22_39 
REMARK   11  A    between atoms: C22_39  and  O7_40 
REMARK   12  A    between atoms: C22_39  and  C23_42 
REMARK   13  A    between atoms: C23_42  and  C24_47 
REMARK   14  A    between atoms: N5_43  and  O8_45 
ROOT
HETATM    1  C17 UNL     1      -6.393  18.752 -30.963  1.00  0.00     0.274 C 
HETATM    2  O2  UNL     1      -5.831  19.841 -30.534  1.00  0.00    -0.266 OA
HETATM    3  N4  UNL     1      -7.215  18.127 -30.035  1.00  0.00    -0.327 N 
ATOM      4  H4  UNL     1      -7.695  17.264 -30.291  1.00  0.00     0.165 HD
ENDROOT
BRANCH   1   5
HETATM    5  C16 UNL     1      -6.101  18.332 -32.320  1.00  0.00     0.143 A 
HETATM    6  C1  UNL     1      -4.882  17.907 -32.809  1.00  0.00     0.072 A 
HETATM    7  C2  UNL     1      -4.706  17.537 -34.132  1.00  0.00     0.020 A 
HETATM    8  C9  UNL     1      -5.815  17.604 -34.972  1.00  0.00     0.131 A 
HETATM    9  N2  UNL     1      -6.981  18.016 -34.475  1.00  0.00    -0.266 N 
HETATM   10  N3  UNL     1      -7.137  18.363 -33.234  1.00  0.00    -0.287 N 
ATOM     11  H3  UNL     1      -8.058  18.670 -32.922  1.00  0.00     0.188 HD
BRANCH   6  12
HETATM   12  N1  UNL     1      -3.916  17.814 -32.011  1.00  0.00    -0.396 N 
ATOM     13  H12 UNL     1      -3.212  18.552 -32.013  1.00  0.00     0.156 HD
ATOM     14  H11 UNL     1      -3.878  17.028 -31.362  1.00  0.00     0.156 HD
ENDBRANCH   6  12
BRANCH   7  15
HETATM   15  C3  UNL     1      -3.435  17.131 -34.693  1.00  0.00    -0.022 A 
HETATM   16  C4  UNL     1      -2.789  16.028 -34.190  1.00  0.00     0.015 A 
HETATM   17  C5  UNL     1      -1.577  15.610 -34.699  1.00  0.00     0.037 A 
HETATM   18  C6  UNL     1      -0.973  16.290 -35.733  1.00  0.00     0.065 A 
HETATM   19  C7  UNL     1      -1.624  17.390 -36.231  1.00  0.00     0.037 A 
HETATM   20  C8  UNL     1      -2.836  17.830 -35.742  1.00  0.00     0.015 A 
BRANCH  18  21
HETATM   21  O1  UNL     1       0.231  15.867 -36.233  1.00  0.00    -0.361 OA
ATOM     22  H1  UNL     1       0.828  16.485 -36.640  1.00  0.00     0.217 HD
ENDBRANCH  18  21
ENDBRANCH   7  15
BRANCH   9  23
HETATM   23  C10 UNL     1      -8.101  18.073 -35.364  1.00  0.00     0.056 A 
HETATM   24  C11 UNL     1      -8.105  17.453 -36.584  1.00  0.00     0.031 A 
HETATM   25  C12 UNL     1      -9.219  17.553 -37.381  1.00  0.00     0.002 A 
HETATM   26  C13 UNL     1     -10.322  18.256 -36.990  1.00  0.00     0.000 A 
HETATM   27  C14 UNL     1     -10.299  18.874 -35.756  1.00  0.00     0.002 A 
HETATM   28  C15 UNL     1      -9.197  18.786 -34.944  1.00  0.00     0.031 A 
ENDBRANCH   9  23
ENDBRANCH   1   5
BRANCH   3  29
HETATM   29  C18 UNL     1      -7.403  18.692 -28.687  1.00  0.00     0.262 C 
HETATM   30  O3  UNL     1      -8.369  19.706 -28.732  1.00  0.00    -0.303 OA
HETATM   31  C19 UNL     1      -9.356  19.376 -27.838  1.00  0.00     0.305 C 
HETATM   32  O6  UNL     1      -8.831  18.413 -26.979  1.00  0.00    -0.318 OA
HETATM   33  C21 UNL     1      -8.087  17.636 -27.862  1.00  0.00     0.211 C 
BRANCH  31  34
HETATM   34  O4  UNL     1     -10.469  18.797 -28.454  1.00  0.00    -0.342 OA
ATOM     35  H4  UNL     1     -11.283  19.007 -28.013  1.00  0.00     0.215 HD
ENDBRANCH  31  34
BRANCH  31  36
HETATM   36  C20 UNL     1      -9.851  20.588 -27.072  1.00  0.00     0.266 C 
BRANCH  36  37
HETATM   37  O5  UNL     1      -8.949  20.920 -26.064  1.00  0.00    -0.393 OA
ATOM     38  H5  UNL     1      -8.723  20.147 -25.560  1.00  0.00     0.209 HD
ENDBRANCH  36  37
ENDBRANCH  31  36
BRANCH  33  39
HETATM   39  C22 UNL     1      -7.173  16.653 -27.219  1.00  0.00     0.210 C 
BRANCH  39  40
HETATM   40  O7  UNL     1      -7.651  15.375 -27.535  1.00  0.00    -0.386 OA
ATOM     41  H7  UNL     1      -6.900  14.796 -27.573  1.00  0.00     0.210 HD
ENDBRANCH  39  40
BRANCH  39  42
HETATM   42  C23 UNL     1      -6.869  16.852 -25.808  1.00  0.00     0.139 C 
HETATM   43  N5  UNL     1      -5.727  16.381 -25.359  1.00  0.00    -0.264 N 
ATOM     44  H5  UNL     1      -5.482  16.502 -24.377  1.00  0.00     0.194 HD
BRANCH  43  45
HETATM   45  O8  UNL     1      -4.862  15.727 -26.197  1.00  0.00    -0.289 OA
ATOM     46  H8  UNL     1      -3.925  15.749 -26.041  1.00  0.00     0.244 HD
ENDBRANCH  43  45
BRANCH  42  47
HETATM   47  C24 UNL     1      -7.693  17.518 -24.823  1.00  0.00     0.227 C 
HETATM   48  O9  UNL     1      -8.667  16.982 -24.248  1.00  0.00    -0.643 OA
HETATM   49  O10 UNL     1      -7.417  18.826 -24.467  1.00  0.00    -0.643 OA
ENDBRANCH  42  47
ENDBRANCH  39  42
ENDBRANCH  33  39
ENDBRANCH   3  29
TORSDOF 14
ENDMDL
MODEL 4
REMARK VINA RESULT: -9.594294877      0.805      1.270
REMARK  14 active torsions:
REMARK  status: ('A' for Active; 'I' for Inactive)
REMARK    1  A    between atoms: N1_1  and  C1_4 
REMARK    2  A    between atoms: C2_5  and  C3_6 
REMARK    3  A    between atoms: C6_9  and  O1_10 
REMARK    4  A    between atoms: N2_15  and  C10_16 
REMARK    5  A    between atoms: C16_24  and  C17_25 
REMARK       I    between atoms: C17_25  and  N4_27 
REMARK    6  A    between atoms: N4_27  and  C18_29 
REMARK    7  A    between atoms: C19_31  and  O4_32 
REMARK    8  A    between atoms: C19_31  and  C20_34 
REMARK    9  A    between atoms: C20_34  and  O5_35 
REMARK   10  A    between atoms: C21_38  and  C22_39 
REMARK   11  A    between atoms: C22_39  and  O7_40 
REMARK   12  A    between atoms: C22_39  and  C23_42 
REMARK   13  A    between atoms: C23_42  and  C24_47 
REMARK   14  A    between atoms: N5_43  and  O8_45 
ROOT
HETATM    1  C17 UNL     1      -6.551  18.737 -31.884  1.00  0.00     0.274 C 
HETATM    2  O2  UNL     1      -5.727  19.616 -31.401  1.00  0.00    -0.266 OA
HETATM    3  N4  UNL     1      -7.512  18.297 -30.985  1.00  0.00    -0.327 N 
ATOM      4  H4  UNL     1      -8.199  17.604 -31.283  1.00  0.00     0.165 HD
ENDROOT
BRANCH   1   5
HETATM    5  C16 UNL     1      -6.371  18.331 -33.265  1.00  0.00     0.143 A 
HETATM    6  C1  UNL     1      -7.366  18.081 -34.189  1.00  0.00     0.072 A 
HETATM    7  C2  UNL     1      -7.086  17.684 -35.486  1.00  0.00     0.020 A 
HETATM    8  C9  UNL     1      -5.747  17.546 -35.842  1.00  0.00     0.131 A 
HETATM    9  N2  UNL     1      -4.805  17.794 -34.932  1.00  0.00    -0.266 N 
HETATM   10  N3  UNL     1      -5.076  18.164 -33.717  1.00  0.00    -0.287 N 
ATOM     11  H3  UNL     1      -4.305  18.336 -33.073  1.00  0.00     0.188 HD
BRANCH   6  12
HETATM   12  N1  UNL     1      -8.561  18.263 -33.846  1.00  0.00    -0.396 N 
ATOM     13  H12 UNL     1      -8.897  17.806 -32.998  1.00  0.00     0.156 HD
ATOM     14  H11 UNL     1      -9.151  18.885 -34.399  1.00  0.00     0.156 HD
ENDBRANCH   6  12
BRANCH   7  15
HETATM   15  C3  UNL     1      -8.101  17.368 -36.469  1.00  0.00    -0.022 A 
HETATM   16  C4  UNL     1      -8.569  16.081 -36.576  1.00  0.00     0.015 A 
HETATM   17  C5  UNL     1      -9.535  15.742 -37.500  1.00  0.00     0.037 A 
HETATM   18  C6  UNL     1     -10.064  16.689 -38.349  1.00  0.00     0.065 A 
HETATM   19  C7  UNL     1      -9.592  17.973 -38.235  1.00  0.00     0.037 A 
HETATM   20  C8  UNL     1      -8.627  18.340 -37.321  1.00  0.00     0.015 A 
BRANCH  18  21
HETATM   21  O1  UNL     1     -11.025  16.343 -39.263  1.00  0.00    -0.361 OA
ATOM     22  H1  UNL     1     -10.812  16.289 -40.188  1.00  0.00     0.217 HD
ENDBRANCH  18  21
ENDBRANCH   7  15
BRANCH   9  23
HETATM   23  C10 UNL     1      -3.438  17.643 -35.329  1.00  0.00     0.056 A 
HETATM   24  C11 UNL     1      -2.726  16.497 -35.095  1.00  0.00     0.031 A 
HETATM   25  C12 UNL     1      -1.418  16.427 -35.506  1.00  0.00     0.002 A 
HETATM   26  C13 UNL     1      -0.808  17.470 -36.141  1.00  0.00     0.000 A 
HETATM   27  C14 UNL     1      -1.542  18.616 -36.368  1.00  0.00     0.002 A 
HETATM   28  C15 UNL     1      -2.851  18.707 -35.966  1.00  0.00     0.031 A 
ENDBRANCH   9  23
ENDBRANCH   1   5
BRANCH   3  29
HETATM   29  C18 UNL     1      -7.554  18.816 -29.607  1.00  0.00     0.262 C 
HETATM   30  O3  UNL     1      -8.533  19.814 -29.508  1.00  0.00    -0.303 OA
HETATM   31  C19 UNL     1      -9.408  19.438 -28.520  1.00  0.00     0.305 C 
HETATM   32  O6  UNL     1      -8.775  18.458 -27.758  1.00  0.00    -0.318 OA
HETATM   33  C21 UNL     1      -8.125  17.722 -28.745  1.00  0.00     0.211 C 
BRANCH  31  34
HETATM   34  O4  UNL     1     -10.575  18.858 -29.026  1.00  0.00    -0.342 OA
ATOM     35  H4  UNL     1     -10.767  18.017 -28.631  1.00  0.00     0.215 HD
ENDBRANCH  31  34
BRANCH  31  36
HETATM   36  C20 UNL     1      -9.830  20.616 -27.664  1.00  0.00     0.266 C 
BRANCH  36  37
HETATM   37  O5  UNL     1      -8.918  20.808 -26.629  1.00  0.00    -0.393 OA
ATOM     38  H5  UNL     1      -9.281  21.397 -25.978  1.00  0.00     0.209 HD
ENDBRANCH  36  37
ENDBRANCH  31  36
BRANCH  33  39
HETATM   39  C22 UNL     1      -7.131  16.736 -28.242  1.00  0.00     0.210 C 
BRANCH  39  40
HETATM   40  O7  UNL     1      -7.149  15.645 -29.119  1.00  0.00    -0.386 OA
ATOM     41  H7  UNL     1      -6.257  15.508 -29.415  1.00  0.00     0.210 HD
ENDBRANCH  39  40
BRANCH  39  42
HETATM   42  C23 UNL     1      -7.205  16.378 -26.832  1.00  0.00     0.139 C 
HETATM   43  N5  UNL     1      -8.372  15.993 -26.361  1.00  0.00    -0.264 N 
ATOM     44  H5  UNL     1      -8.460  15.735 -25.379  1.00  0.00     0.194 HD
BRANCH  43  45
HETATM   45  O8  UNL     1      -9.470  15.936 -27.178  1.00  0.00    -0.289 OA
ATOM     46  H8  UNL     1     -10.123  16.627 -27.162  1.00  0.00     0.244 HD
ENDBRANCH  43  45
BRANCH  42  47
HETATM   47  C24 UNL     1      -6.127  16.397 -25.867  1.00  0.00     0.227 C 
HETATM   48  O9  UNL     1      -5.008  15.871 -26.059  1.00  0.00    -0.643 OA
HETATM   49  O10 UNL     1      -6.306  17.027 -24.649  1.00  0.00    -0.643 OA
ENDBRANCH  42  47
ENDBRANCH  39  42
ENDBRANCH  33  39
ENDBRANCH   3  29
TORSDOF 14
ENDMDL
MODEL 5
REMARK VINA RESULT: -9.521853195      0.916      1.357
REMARK  14 active torsions:
REMARK  status: ('A' for Active; 'I' for Inactive)
REMARK    1  A    between atoms: N1_1  and  C1_4 
REMARK    2  A    between atoms: C2_5  and  C3_6 
REMARK    3  A    between atoms: C6_9  and  O1_10 
REMARK    4  A    between atoms: N2_15  and  C10_16 
REMARK    5  A    between atoms: C16_24  and  C17_25 
REMARK       I    between atoms: C17_25  and  N4_27 
REMARK    6  A    between atoms: N4_27  and  C18_29 
REMARK    7  A    between atoms: C19_31  and  O4_32 
REMARK    8  A    between atoms: C19_31  and  C20_34 
REMARK    9  A    between atoms: C20_34  and  O5_35 
REMARK   10  A    between atoms: C21_38  and  C22_39 
REMARK   11  A    between atoms: C22_39  and  O7_40 
REMARK   12  A    between atoms: C22_39  and  C23_42 
REMARK   13  A    between atoms: C23_42  and  C24_47 
REMARK   14  A    between atoms: N5_43  and  O8_45 
ROOT
HETATM    1  C17 UNL     1      -6.839  18.446 -31.395  1.00  0.00     0.274 C 
HETATM    2  O2  UNL     1      -5.930  19.170 -30.818  1.00  0.00    -0.266 OA
HETATM    3  N4  UNL     1      -7.877  18.058 -30.559  1.00  0.00    -0.327 N 
ATOM      4  H4  UNL     1      -8.635  17.485 -30.932  1.00  0.00     0.165 HD
ENDROOT
BRANCH   1   5
HETATM    5  C16 UNL     1      -6.666  18.138 -32.801  1.00  0.00     0.143 A 
HETATM    6  C1  UNL     1      -7.664  17.897 -33.724  1.00  0.00     0.072 A 
HETATM    7  C2  UNL     1      -7.390  17.597 -35.048  1.00  0.00     0.020 A 
HETATM    8  C9  UNL     1      -6.052  17.549 -35.433  1.00  0.00     0.131 A 
HETATM    9  N2  UNL     1      -5.107  17.787 -34.523  1.00  0.00    -0.266 N 
HETATM   10  N3  UNL     1      -5.373  18.064 -33.283  1.00  0.00    -0.287 N 
ATOM     11  H3  UNL     1      -4.599  18.234 -32.642  1.00  0.00     0.188 HD
BRANCH   6  12
HETATM   12  N1  UNL     1      -8.860  17.997 -33.351  1.00  0.00    -0.396 N 
ATOM     13  H12 UNL     1      -9.498  17.227 -33.555  1.00  0.00     0.156 HD
ATOM     14  H11 UNL     1      -9.153  18.822 -32.828  1.00  0.00     0.156 HD
ENDBRANCH   6  12
BRANCH   7  15
HETATM   15  C3  UNL     1      -8.406  17.293 -36.033  1.00  0.00    -0.022 A 
HETATM   16  C4  UNL     1      -8.778  15.988 -36.248  1.00  0.00     0.015 A 
HETATM   17  C5  UNL     1      -9.742  15.660 -37.178  1.00  0.00     0.037 A 
HETATM   18  C6  UNL     1     -10.366  16.636 -37.924  1.00  0.00     0.065 A 
HETATM   19  C7  UNL     1      -9.990  17.937 -37.702  1.00  0.00     0.037 A 
HETATM   20  C8  UNL     1      -9.029  18.294 -36.779  1.00  0.00     0.015 A 
BRANCH  18  21
HETATM   21  O1  UNL     1     -11.324  16.301 -38.845  1.00  0.00    -0.361 OA
ATOM     22  H1  UNL     1     -12.208  16.643 -38.768  1.00  0.00     0.217 HD
ENDBRANCH  18  21
ENDBRANCH   7  15
BRANCH   9  23
HETATM   23  C10 UNL     1      -3.742  17.729 -34.950  1.00  0.00     0.056 A 
HETATM   24  C11 UNL     1      -2.909  16.696 -34.615  1.00  0.00     0.031 A 
HETATM   25  C12 UNL     1      -1.610  16.712 -35.063  1.00  0.00     0.002 A 
HETATM   26  C13 UNL     1      -1.129  17.730 -35.833  1.00  0.00     0.000 A 
HETATM   27  C14 UNL     1      -1.985  18.763 -36.161  1.00  0.00     0.002 A 
HETATM   28  C15 UNL     1      -3.285  18.766 -35.724  1.00  0.00     0.031 A 
ENDBRANCH   9  23
ENDBRANCH   1   5
BRANCH   3  29
HETATM   29  C18 UNL     1      -7.901  18.461 -29.142  1.00  0.00     0.262 C 
HETATM   30  O3  UNL     1      -8.390  19.769 -29.032  1.00  0.00    -0.303 OA
HETATM   31  C19 UNL     1      -9.473  19.736 -28.191  1.00  0.00     0.305 C 
HETATM   32  O6  UNL     1      -9.412  18.536 -27.485  1.00  0.00    -0.318 OA
HETATM   33  C21 UNL     1      -8.985  17.657 -28.477  1.00  0.00     0.211 C 
BRANCH  31  34
HETATM   34  O4  UNL     1     -10.690  19.733 -28.879  1.00  0.00    -0.342 OA
ATOM     35  H4  UNL     1     -11.082  18.869 -28.924  1.00  0.00     0.215 HD
ENDBRANCH  31  34
BRANCH  31  36
HETATM   36  C20 UNL     1      -9.494  20.927 -27.253  1.00  0.00     0.266 C 
BRANCH  36  37
HETATM   37  O5  UNL     1      -8.720  20.665 -26.125  1.00  0.00    -0.393 OA
ATOM     38  H5  UNL     1      -8.926  19.804 -25.780  1.00  0.00     0.209 HD
ENDBRANCH  36  37
ENDBRANCH  31  36
BRANCH  33  39
HETATM   39  C22 UNL     1      -8.564  16.316 -27.990  1.00  0.00     0.210 C 
BRANCH  39  40
HETATM   40  O7  UNL     1      -9.411  15.976 -26.928  1.00  0.00    -0.386 OA
ATOM     41  H7  UNL     1     -10.018  15.321 -27.252  1.00  0.00     0.210 HD
ENDBRANCH  39  40
BRANCH  39  42
HETATM   42  C23 UNL     1      -7.146  16.123 -27.716  1.00  0.00     0.139 C 
HETATM   43  N5  UNL     1      -6.416  15.559 -28.654  1.00  0.00    -0.264 N 
ATOM     44  H5  UNL     1      -5.420  15.409 -28.496  1.00  0.00     0.194 HD
BRANCH  43  45
HETATM   45  O8  UNL     1      -6.980  15.171 -29.840  1.00  0.00    -0.289 OA
ATOM     46  H8  UNL     1      -7.326  15.816 -30.446  1.00  0.00     0.244 HD
ENDBRANCH  43  45
BRANCH  42  47
HETATM   47  C24 UNL     1      -6.432  16.483 -26.511  1.00  0.00     0.227 C 
HETATM   48  O9  UNL     1      -6.861  17.294 -25.660  1.00  0.00    -0.643 OA
HETATM   49  O10 UNL     1      -5.197  15.917 -26.247  1.00  0.00    -0.643 OA
ENDBRANCH  42  47
ENDBRANCH  39  42
ENDBRANCH  33  39
ENDBRANCH   3  29
TORSDOF 14
ENDMDL
