MODEL 1
REMARK VINA RESULT: -11.203890041      0.000      0.000
REMARK  12 active torsions:
REMARK  status: ('A' for Active; 'I' for Inactive)
REMARK    1  A    between atoms: N1_1  and  C1_4 
REMARK    2  A    between atoms: C2_7  and  N3_8 
REMARK    3  A    between atoms: C8_16  and  N5_17 
REMARK    4  A    between atoms: N5_17  and  C9_19 
REMARK    5  A    between atoms: C9_19  and  C10_20 
REMARK    6  A    between atoms: N8_25  and  C11_26 
REMARK    7  A    between atoms: C11_26  and  C12_27 
REMARK    8  A    between atoms: C12_27  and  O1_28 
REMARK    9  A    between atoms: O1_28  and  N9_29 
REMARK   10  A    between atoms: C13_31  and  C14_32 
REMARK       I    between atoms: N11_36  and  C16_38 
REMARK   11  A    between atoms: C17_43  and  O4_44 
REMARK   12  A    between atoms: C18_46  and  O5_47 
ROOT
HETATM    1  C10 UNL     1      -9.511  19.696 -32.179  1.00  0.00     0.117 A 
HETATM    2  N6  UNL     1     -10.403  20.686 -32.064  1.00  0.00    -0.281 N 
ATOM      3  H6  UNL     1     -10.675  21.329 -32.808  1.00  0.00     0.188 HD
HETATM    4  N7  UNL     1     -10.873  20.694 -30.834  1.00  0.00    -0.238 N 
ATOM      5  H7  UNL     1     -11.568  21.345 -30.468  1.00  0.00     0.208 HD
HETATM    6  N8  UNL     1     -10.300  19.727 -30.155  1.00  0.00    -0.253 N 
HETATM    7  C18 UNL     1      -9.443  19.077 -30.952  1.00  0.00     0.188 A 
ENDROOT
BRANCH   1   8
HETATM    8  C9  UNL     1      -8.709  19.298 -33.409  1.00  0.00     0.125 C 
BRANCH   8   9
HETATM    9  N5  UNL     1      -7.375  19.739 -33.303  1.00  0.00    -0.348 N 
ATOM     10  H5  UNL     1      -7.187  20.666 -33.687  1.00  0.00     0.167 HD
BRANCH   9  11
HETATM   11  C8  UNL     1      -6.392  19.153 -32.807  1.00  0.00     0.136 A 
HETATM   12  C7  UNL     1      -5.483  18.441 -33.533  1.00  0.00     0.123 A 
HETATM   13  N4  UNL     1      -5.575  18.312 -34.866  1.00  0.00    -0.185 N 
HETATM   14  C20 UNL     1      -4.395  17.804 -32.904  1.00  0.00     0.109 A 
HETATM   15  C2  UNL     1      -4.702  17.622 -35.612  1.00  0.00     0.682 A 
ATOM     16  H4  UNL     1      -6.355  18.767 -35.339  1.00  0.00     0.184 HD
HETATM   17  N2  UNL     1      -3.667  17.022 -34.982  1.00  0.00    -0.175 N 
HETATM   18  C1  UNL     1      -3.488  17.091 -33.655  1.00  0.00     0.144 A 
ATOM     19  H2  UNL     1      -2.995  16.494 -35.540  1.00  0.00     0.186 HD
HETATM   20  N14 UNL     1      -4.223  17.880 -31.573  1.00  0.00    -0.347 N 
HETATM   21  C19 UNL     1      -5.124  18.584 -30.863  1.00  0.00     0.182 A 
ATOM     22  H14 UNL     1      -3.435  17.419 -31.116  1.00  0.00     0.167 HD
HETATM   23  N13 UNL     1      -6.157  19.191 -31.451  1.00  0.00    -0.337 N 
ATOM     24  H13 UNL     1      -6.808  19.711 -30.863  1.00  0.00     0.168 HD
BRANCH  15  25
HETATM   25  N3  UNL     1      -4.844  17.514 -37.036  1.00  0.00    -0.218 N 
HETATM   26  C3  UNL     1      -5.044  18.620 -37.936  1.00  0.00     0.141 C 
HETATM   27  C4  UNL     1      -5.576  18.032 -39.225  1.00  0.00     0.022 C 
HETATM   28  C5  UNL     1      -5.468  16.528 -39.093  1.00  0.00     0.022 C 
HETATM   29  C6  UNL     1      -4.803  16.264 -37.759  1.00  0.00     0.141 C 
ENDBRANCH  15  25
BRANCH  18  30
HETATM   30  N1  UNL     1      -2.507  16.523 -33.039  1.00  0.00    -0.383 N 
ATOM     31  H12 UNL     1      -1.563  16.704 -33.378  1.00  0.00     0.157 HD
ATOM     32  H11 UNL     1      -2.629  15.907 -32.236  1.00  0.00     0.157 HD
ENDBRANCH  18  30
ENDBRANCH   9  11
ENDBRANCH   8   9
ENDBRANCH   1   8
BRANCH   7  33
HETATM   33  O5  UNL     1      -8.617  17.993 -30.679  1.00  0.00    -0.343 OA
ATOM     34  H5  UNL     1      -8.750  17.400 -29.950  1.00  0.00     0.219 HD
ENDBRANCH   7  33
BRANCH   6  35
HETATM   35  C11 UNL     1     -10.548  19.401 -28.760  1.00  0.00     0.181 C 
BRANCH  35  36
HETATM   36  C12 UNL     1      -9.816  20.427 -27.916  1.00  0.00     0.223 C 
BRANCH  36  37
HETATM   37  O1  UNL     1      -9.261  19.877 -26.748  1.00  0.00    -0.279 OA
BRANCH  37  38
HETATM   38  N9  UNL     1      -8.745  20.674 -25.801  1.00  0.00    -0.276 N 
HETATM   39  C13 UNL     1      -8.159  20.289 -24.761  1.00  0.00     0.148 C 
ATOM     40  H9  UNL     1      -8.837  21.680 -25.939  1.00  0.00     0.193 HD
BRANCH  39  41
HETATM   41  C14 UNL     1      -7.945  18.897 -24.412  1.00  0.00     0.117 A 
HETATM   42  N10 UNL     1      -7.290  17.992 -25.137  1.00  0.00    -0.186 N 
HETATM   43  C15 UNL     1      -7.315  16.805 -24.452  1.00  0.00     0.690 A 
ATOM     44  H10 UNL     1      -6.848  18.154 -26.041  1.00  0.00     0.184 HD
HETATM   45  N11 UNL     1      -6.795  15.678 -24.807  1.00  0.00    -0.133 N 
HETATM   46  N12 UNL     1      -7.988  16.989 -23.303  1.00  0.00    -0.168 N 
HETATM   47  C16 UNL     1      -6.110  15.617 -26.043  1.00  0.00     0.302 C 
ATOM     48  H11 UNL     1      -6.876  14.853 -24.212  1.00  0.00     0.190 HD
HETATM   49  O2  UNL     1      -6.740  15.466 -27.116  1.00  0.00    -0.629 OA
HETATM   50  O3  UNL     1      -4.735  15.727 -26.066  1.00  0.00    -0.629 OA
HETATM   51  C17 UNL     1      -8.387  18.265 -23.251  1.00  0.00     0.184 A 
ATOM     52  H12 UNL     1      -8.165  16.278 -22.593  1.00  0.00     0.186 HD
BRANCH  51  53
HETATM   53  O4  UNL     1      -9.112  18.918 -22.260  1.00  0.00    -0.344 OA
ATOM     54  H4  UNL     1      -9.035  18.706 -21.338  1.00  0.00     0.219 HD
ENDBRANCH  51  53
ENDBRANCH  39  41
ENDBRANCH  37  38
ENDBRANCH  36  37
ENDBRANCH  35  36
ENDBRANCH   6  35
TORSDOF 12
ENDMDL
MODEL 2
REMARK VINA RESULT: -10.941621533      2.072      4.030
REMARK  12 active torsions:
REMARK  status: ('A' for Active; 'I' for Inactive)
REMARK    1  A    between atoms: N1_1  and  C1_4 
REMARK    2  A    between atoms: C2_7  and  N3_8 
REMARK    3  A    between atoms: C8_16  and  N5_17 
REMARK    4  A    between atoms: N5_17  and  C9_19 
REMARK    5  A    between atoms: C9_19  and  C10_20 
REMARK    6  A    between atoms: N8_25  and  C11_26 
REMARK    7  A    between atoms: C11_26  and  C12_27 
REMARK    8  A    between atoms: C12_27  and  O1_28 
REMARK    9  A    between atoms: O1_28  and  N9_29 
REMARK   10  A    between atoms: C13_31  and  C14_32 
REMARK       I    between atoms: N11_36  and  C16_38 
REMARK   11  A    between atoms: C17_43  and  O4_44 
REMARK   12  A    between atoms: C18_46  and  O5_47 
ROOT
HETATM    1  C10 UNL     1      -6.404  18.233 -30.047  1.00  0.00     0.117 A 
HETATM    2  N6  UNL     1      -6.492  17.785 -28.790  1.00  0.00    -0.281 N 
ATOM      3  H6  UNL     1      -5.760  17.287 -28.285  1.00  0.00     0.188 HD
HETATM    4  N7  UNL     1      -7.680  18.094 -28.311  1.00  0.00    -0.238 N 
ATOM      5  H7  UNL     1      -8.019  17.873 -27.374  1.00  0.00     0.208 HD
HETATM    6  N8  UNL     1      -8.357  18.733 -29.237  1.00  0.00    -0.253 N 
HETATM    7  C18 UNL     1      -7.603  18.843 -30.338  1.00  0.00     0.188 A 
ENDROOT
BRANCH   1   8
HETATM    8  C9  UNL     1      -5.226  18.113 -31.002  1.00  0.00     0.125 C 
BRANCH   8   9
HETATM    9  N5  UNL     1      -5.567  17.335 -32.126  1.00  0.00    -0.348 N 
ATOM     10  H5  UNL     1      -5.897  16.391 -31.924  1.00  0.00     0.167 HD
BRANCH   9  11
HETATM   11  C8  UNL     1      -5.520  17.640 -33.335  1.00  0.00     0.136 A 
HETATM   12  C7  UNL     1      -6.609  17.665 -34.157  1.00  0.00     0.123 A 
HETATM   13  N4  UNL     1      -7.841  17.357 -33.722  1.00  0.00    -0.185 N 
HETATM   14  C20 UNL     1      -6.481  18.020 -35.514  1.00  0.00     0.109 A 
HETATM   15  C2  UNL     1      -8.932  17.370 -34.499  1.00  0.00     0.682 A 
ATOM     16  H4  UNL     1      -7.952  17.097 -32.742  1.00  0.00     0.184 HD
HETATM   17  N2  UNL     1      -8.781  17.715 -35.796  1.00  0.00    -0.175 N 
HETATM   18  C1  UNL     1      -7.593  18.039 -36.326  1.00  0.00     0.144 A 
ATOM     19  H2  UNL     1      -9.605  17.730 -36.398  1.00  0.00     0.186 HD
HETATM   20  N14 UNL     1      -5.286  18.345 -36.036  1.00  0.00    -0.347 N 
HETATM   21  C19 UNL     1      -4.217  18.318 -35.219  1.00  0.00     0.182 A 
ATOM     22  H14 UNL     1      -5.193  18.602 -37.019  1.00  0.00     0.167 HD
HETATM   23  N13 UNL     1      -4.328  17.983 -33.932  1.00  0.00    -0.337 N 
ATOM     24  H13 UNL     1      -3.484  17.981 -33.360  1.00  0.00     0.168 HD
BRANCH  15  25
HETATM   25  N3  UNL     1     -10.230  17.032 -33.986  1.00  0.00    -0.218 N 
HETATM   26  C3  UNL     1     -11.003  15.883 -34.379  1.00  0.00     0.141 C 
HETATM   27  C4  UNL     1     -12.428  16.160 -33.950  1.00  0.00     0.022 C 
HETATM   28  C5  UNL     1     -12.392  17.419 -33.109  1.00  0.00     0.022 C 
HETATM   29  C6  UNL     1     -10.935  17.813 -32.996  1.00  0.00     0.141 C 
ENDBRANCH  15  25
BRANCH  18  30
HETATM   30  N1  UNL     1      -7.432  18.370 -37.563  1.00  0.00    -0.383 N 
ATOM     31  H12 UNL     1      -6.588  18.050 -38.037  1.00  0.00     0.157 HD
ATOM     32  H11 UNL     1      -8.103  18.933 -38.086  1.00  0.00     0.157 HD
ENDBRANCH  18  30
ENDBRANCH   9  11
ENDBRANCH   8   9
ENDBRANCH   1   8
BRANCH   7  33
HETATM   33  O5  UNL     1      -7.891  19.435 -31.561  1.00  0.00    -0.343 OA
ATOM     34  H5  UNL     1      -7.547  19.126 -32.391  1.00  0.00     0.219 HD
ENDBRANCH   7  33
BRANCH   6  35
HETATM   35  C11 UNL     1      -9.711  19.245 -29.103  1.00  0.00     0.181 C 
BRANCH  35  36
HETATM   36  C12 UNL     1      -9.682  20.337 -28.050  1.00  0.00     0.223 C 
BRANCH  36  37
HETATM   37  O1  UNL     1      -9.279  19.867 -26.788  1.00  0.00    -0.279 OA
BRANCH  37  38
HETATM   38  N9  UNL     1      -8.843  20.722 -25.853  1.00  0.00    -0.276 N 
HETATM   39  C13 UNL     1      -8.290  20.406 -24.773  1.00  0.00     0.148 C 
ATOM     40  H9  UNL     1      -8.972  21.718 -26.036  1.00  0.00     0.193 HD
BRANCH  39  41
HETATM   41  C14 UNL     1      -8.031  19.040 -24.357  1.00  0.00     0.117 A 
HETATM   42  N10 UNL     1      -7.397  18.105 -25.063  1.00  0.00    -0.186 N 
HETATM   43  C15 UNL     1      -7.364  16.959 -24.312  1.00  0.00     0.690 A 
ATOM     44  H10 UNL     1      -7.005  18.222 -25.997  1.00  0.00     0.184 HD
HETATM   45  N11 UNL     1      -6.842  15.822 -24.630  1.00  0.00    -0.133 N 
HETATM   46  N12 UNL     1      -7.982  17.197 -23.142  1.00  0.00    -0.168 N 
HETATM   47  C16 UNL     1      -6.219  15.702 -25.894  1.00  0.00     0.302 C 
ATOM     48  H11 UNL     1      -6.877  15.031 -23.986  1.00  0.00     0.190 HD
HETATM   49  O2  UNL     1      -6.900  15.479 -26.924  1.00  0.00    -0.629 OA
HETATM   50  O3  UNL     1      -4.850  15.832 -25.995  1.00  0.00    -0.629 OA
HETATM   51  C17 UNL     1      -8.402  18.467 -23.141  1.00  0.00     0.184 A 
ATOM     52  H12 UNL     1      -8.109  16.525 -22.385  1.00  0.00     0.186 HD
BRANCH  51  53
HETATM   53  O4  UNL     1      -9.088  19.164 -22.152  1.00  0.00    -0.344 OA
ATOM     54  H4  UNL     1      -8.832  20.029 -21.855  1.00  0.00     0.219 HD
ENDBRANCH  51  53
ENDBRANCH  39  41
ENDBRANCH  37  38
ENDBRANCH  36  37
ENDBRANCH  35  36
ENDBRANCH   6  35
TORSDOF 12
ENDMDL
MODEL 3
REMARK VINA RESULT: -10.935085333      1.684      3.369
REMARK  12 active torsions:
REMARK  status: ('A' for Active; 'I' for Inactive)
REMARK    1  A    between atoms: N1_1  and  C1_4 
REMARK    2  A    between atoms: C2_7  and  N3_8 
REMARK    3  A    between atoms: C8_16  and  N5_17 
REMARK    4  A    between atoms: N5_17  and  C9_19 
REMARK    5  A    between atoms: C9_19  and  C10_20 
REMARK    6  A    between atoms: N8_25  and  C11_26 
REMARK    7  A    between atoms: C11_26  and  C12_27 
REMARK    8  A    between atoms: C12_27  and  O1_28 
REMARK    9  A    between atoms: O1_28  and  N9_29 
REMARK   10  A    between atoms: C13_31  and  C14_32 
REMARK       I    between atoms: N11_36  and  C16_38 
REMARK   11  A    between atoms: C17_43  and  O4_44 
REMARK   12  A    between atoms: C18_46  and  O5_47 
ROOT
HETATM    1  C10 UNL     1      -6.339  17.976 -30.150  1.00  0.00     0.117 A 
HETATM    2  N6  UNL     1      -6.230  18.007 -28.818  1.00  0.00    -0.281 N 
ATOM      3  H6  UNL     1      -5.401  17.749 -28.283  1.00  0.00     0.188 HD
HETATM    4  N7  UNL     1      -7.371  18.426 -28.308  1.00  0.00    -0.238 N 
ATOM      5  H7  UNL     1      -7.570  18.544 -27.314  1.00  0.00     0.208 HD
HETATM    6  N8  UNL     1      -8.210  18.665 -29.289  1.00  0.00    -0.253 N 
HETATM    7  C18 UNL     1      -7.612  18.399 -30.456  1.00  0.00     0.188 A 
ENDROOT
BRANCH   1   8
HETATM    8  C9  UNL     1      -5.283  17.563 -31.164  1.00  0.00     0.125 C 
BRANCH   8   9
HETATM    9  N5  UNL     1      -5.044  18.596 -32.092  1.00  0.00    -0.348 N 
ATOM     10  H5  UNL     1      -5.261  19.538 -31.766  1.00  0.00     0.167 HD
BRANCH   9  11
HETATM   11  C8  UNL     1      -4.604  18.518 -33.257  1.00  0.00     0.136 A 
HETATM   12  C7  UNL     1      -5.389  18.323 -34.356  1.00  0.00     0.123 A 
HETATM   13  N4  UNL     1      -6.722  18.198 -34.270  1.00  0.00    -0.185 N 
HETATM   14  C20 UNL     1      -4.821  18.246 -35.643  1.00  0.00     0.109 A 
HETATM   15  C2  UNL     1      -7.524  18.006 -35.326  1.00  0.00     0.682 A 
ATOM     16  H4  UNL     1      -7.150  18.252 -33.346  1.00  0.00     0.184 HD
HETATM   17  N2  UNL     1      -6.953  17.936 -36.549  1.00  0.00    -0.175 N 
HETATM   18  C1  UNL     1      -5.631  18.049 -36.739  1.00  0.00     0.144 A 
ATOM     19  H2  UNL     1      -7.554  17.792 -37.362  1.00  0.00     0.186 HD
HETATM   20  N14 UNL     1      -3.494  18.362 -35.824  1.00  0.00    -0.347 N 
HETATM   21  C19 UNL     1      -2.728  18.553 -34.735  1.00  0.00     0.182 A 
ATOM     22  H14 UNL     1      -3.083  18.305 -36.756  1.00  0.00     0.167 HD
HETATM   23  N13 UNL     1      -3.256  18.628 -33.511  1.00  0.00    -0.337 N 
ATOM     24  H13 UNL     1      -2.626  18.775 -32.723  1.00  0.00     0.168 HD
BRANCH  15  25
HETATM   25  N3  UNL     1      -8.946  17.878 -35.182  1.00  0.00    -0.218 N 
HETATM   26  C3  UNL     1      -9.916  18.830 -35.658  1.00  0.00     0.141 C 
HETATM   27  C4  UNL     1     -11.203  18.534 -34.919  1.00  0.00     0.022 C 
HETATM   28  C5  UNL     1     -10.982  17.241 -34.162  1.00  0.00     0.022 C 
HETATM   29  C6  UNL     1      -9.595  16.762 -34.532  1.00  0.00     0.141 C 
ENDBRANCH  15  25
BRANCH  18  30
HETATM   30  N1  UNL     1      -5.071  17.984 -37.900  1.00  0.00    -0.383 N 
ATOM     31  H12 UNL     1      -5.180  17.123 -38.435  1.00  0.00     0.157 HD
ATOM     32  H11 UNL     1      -4.528  18.747 -38.305  1.00  0.00     0.157 HD
ENDBRANCH  18  30
ENDBRANCH   9  11
ENDBRANCH   8   9
ENDBRANCH   1   8
BRANCH   7  33
HETATM   33  O5  UNL     1      -8.099  18.502 -31.753  1.00  0.00    -0.343 OA
ATOM     34  H5  UNL     1      -8.983  18.777 -31.964  1.00  0.00     0.219 HD
ENDBRANCH   7  33
BRANCH   6  35
HETATM   35  C11 UNL     1      -9.575  19.144 -29.145  1.00  0.00     0.181 C 
BRANCH  35  36
HETATM   36  C12 UNL     1      -9.553  20.294 -28.157  1.00  0.00     0.223 C 
BRANCH  36  37
HETATM   37  O1  UNL     1      -9.336  19.873 -26.834  1.00  0.00    -0.279 OA
BRANCH  37  38
HETATM   38  N9  UNL     1      -8.869  20.731 -25.916  1.00  0.00    -0.276 N 
HETATM   39  C13 UNL     1      -8.287  20.417 -24.851  1.00  0.00     0.148 C 
ATOM     40  H9  UNL     1      -8.998  21.726 -26.100  1.00  0.00     0.193 HD
BRANCH  39  41
HETATM   41  C14 UNL     1      -8.024  19.052 -24.435  1.00  0.00     0.117 A 
HETATM   42  N10 UNL     1      -7.392  18.117 -25.144  1.00  0.00    -0.186 N 
HETATM   43  C15 UNL     1      -7.353  16.972 -24.392  1.00  0.00     0.690 A 
ATOM     44  H10 UNL     1      -7.007  18.234 -26.081  1.00  0.00     0.184 HD
HETATM   45  N11 UNL     1      -6.831  15.836 -24.712  1.00  0.00    -0.133 N 
HETATM   46  N12 UNL     1      -7.964  17.210 -23.218  1.00  0.00    -0.168 N 
HETATM   47  C16 UNL     1      -6.216  15.715 -25.980  1.00  0.00     0.302 C 
ATOM     48  H11 UNL     1      -6.861  15.045 -24.068  1.00  0.00     0.190 HD
HETATM   49  O2  UNL     1      -6.903  15.490 -27.005  1.00  0.00    -0.629 OA
HETATM   50  O3  UNL     1      -4.848  15.847 -26.090  1.00  0.00    -0.629 OA
HETATM   51  C17 UNL     1      -8.385  18.480 -23.217  1.00  0.00     0.184 A 
ATOM     52  H12 UNL     1      -8.085  16.539 -22.460  1.00  0.00     0.186 HD
BRANCH  51  53
HETATM   53  O4  UNL     1      -9.066  19.177 -22.224  1.00  0.00    -0.344 OA
ATOM     54  H4  UNL     1     -10.013  19.184 -22.153  1.00  0.00     0.219 HD
ENDBRANCH  51  53
ENDBRANCH  39  41
ENDBRANCH  37  38
ENDBRANCH  36  37
ENDBRANCH  35  36
ENDBRANCH   6  35
TORSDOF 12
ENDMDL
MODEL 4
REMARK VINA RESULT: -10.919273460      1.825      3.160
REMARK  12 active torsions:
REMARK  status: ('A' for Active; 'I' for Inactive)
REMARK    1  A    between atoms: N1_1  and  C1_4 
REMARK    2  A    between atoms: C2_7  and  N3_8 
REMARK    3  A    between atoms: C8_16  and  N5_17 
REMARK    4  A    between atoms: N5_17  and  C9_19 
REMARK    5  A    between atoms: C9_19  and  C10_20 
REMARK    6  A    between atoms: N8_25  and  C11_26 
REMARK    7  A    between atoms: C11_26  and  C12_27 
REMARK    8  A    between atoms: C12_27  and  O1_28 
REMARK    9  A    between atoms: O1_28  and  N9_29 
REMARK   10  A    between atoms: C13_31  and  C14_32 
REMARK       I    between atoms: N11_36  and  C16_38 
REMARK   11  A    between atoms: C17_43  and  O4_44 
REMARK   12  A    between atoms: C18_46  and  O5_47 
ROOT
HETATM    1  C10 UNL     1      -7.357  17.976 -30.382  1.00  0.00     0.117 A 
HETATM    2  N6  UNL     1      -6.749  18.224 -29.218  1.00  0.00    -0.281 N 
ATOM      3  H6  UNL     1      -5.781  17.994 -28.993  1.00  0.00     0.188 HD
HETATM    4  N7  UNL     1      -7.604  18.815 -28.408  1.00  0.00    -0.238 N 
ATOM      5  H7  UNL     1      -7.407  19.117 -27.454  1.00  0.00     0.208 HD
HETATM    6  N8  UNL     1      -8.751  18.952 -29.032  1.00  0.00    -0.253 N 
HETATM    7  C18 UNL     1      -8.646  18.443 -30.266  1.00  0.00     0.188 A 
ENDROOT
BRANCH   1   8
HETATM    8  C9  UNL     1      -6.773  17.310 -31.619  1.00  0.00     0.125 C 
BRANCH   8   9
HETATM    9  N5  UNL     1      -6.791  18.189 -32.719  1.00  0.00    -0.348 N 
ATOM     10  H5  UNL     1      -6.269  19.057 -32.597  1.00  0.00     0.167 HD
BRANCH   9  11
HETATM   11  C8  UNL     1      -7.357  18.054 -33.823  1.00  0.00     0.136 A 
HETATM   12  C7  UNL     1      -6.695  17.833 -34.996  1.00  0.00     0.123 A 
HETATM   13  N4  UNL     1      -5.358  17.742 -35.057  1.00  0.00    -0.185 N 
HETATM   14  C20 UNL     1      -7.401  17.689 -36.207  1.00  0.00     0.109 A 
HETATM   15  C2  UNL     1      -4.674  17.526 -36.188  1.00  0.00     0.682 A 
ATOM     16  H4  UNL     1      -4.830  17.843 -34.190  1.00  0.00     0.184 HD
HETATM   17  N2  UNL     1      -5.376  17.391 -37.335  1.00  0.00    -0.175 N 
HETATM   18  C1  UNL     1      -6.714  17.466 -37.379  1.00  0.00     0.144 A 
ATOM     19  H2  UNL     1      -4.867  17.224 -38.204  1.00  0.00     0.186 HD
HETATM   20  N14 UNL     1      -8.742  17.765 -36.240  1.00  0.00    -0.347 N 
HETATM   21  C19 UNL     1      -9.387  17.983 -35.080  1.00  0.00     0.182 A 
ATOM     22  H14 UNL     1      -9.254  17.661 -37.117  1.00  0.00     0.167 HD
HETATM   23  N13 UNL     1      -8.728  18.120 -33.927  1.00  0.00    -0.337 N 
ATOM     24  H13 UNL     1      -9.269  18.284 -33.079  1.00  0.00     0.168 HD
BRANCH  15  25
HETATM   25  N3  UNL     1      -3.241  17.436 -36.202  1.00  0.00    -0.218 N 
HETATM   26  C3  UNL     1      -2.482  16.251 -35.896  1.00  0.00     0.141 C 
HETATM   27  C4  UNL     1      -1.072  16.712 -35.598  1.00  0.00     0.022 C 
HETATM   28  C5  UNL     1      -1.011  18.182 -35.954  1.00  0.00     0.022 C 
HETATM   29  C6  UNL     1      -2.366  18.538 -36.527  1.00  0.00     0.141 C 
ENDBRANCH  15  25
BRANCH  18  30
HETATM   30  N1  UNL     1      -7.399  17.340 -38.465  1.00  0.00    -0.383 N 
ATOM     31  H12 UNL     1      -7.867  16.450 -38.634  1.00  0.00     0.157 HD
ATOM     32  H11 UNL     1      -7.493  18.082 -39.159  1.00  0.00     0.157 HD
ENDBRANCH  18  30
ENDBRANCH   9  11
ENDBRANCH   8   9
ENDBRANCH   1   8
BRANCH   7  33
HETATM   33  O5  UNL     1      -9.590  18.364 -31.282  1.00  0.00    -0.343 OA
ATOM     34  H5  UNL     1     -10.497  18.629 -31.182  1.00  0.00     0.219 HD
ENDBRANCH   7  33
BRANCH   6  35
HETATM   35  C11 UNL     1      -9.953  19.559 -28.484  1.00  0.00     0.181 C 
BRANCH  35  36
HETATM   36  C12 UNL     1      -9.516  20.685 -27.566  1.00  0.00     0.223 C 
BRANCH  36  37
HETATM   37  O1  UNL     1      -9.497  20.309 -26.212  1.00  0.00    -0.279 OA
BRANCH  37  38
HETATM   38  N9  UNL     1      -8.779  21.010 -25.323  1.00  0.00    -0.276 N 
HETATM   39  C13 UNL     1      -8.073  20.524 -24.408  1.00  0.00     0.148 C 
ATOM     40  H9  UNL     1      -8.808  22.027 -25.398  1.00  0.00     0.193 HD
BRANCH  39  41
HETATM   41  C14 UNL     1      -7.921  19.102 -24.161  1.00  0.00     0.117 A 
HETATM   42  N10 UNL     1      -7.335  18.218 -24.966  1.00  0.00    -0.186 N 
HETATM   43  C15 UNL     1      -7.402  16.988 -24.363  1.00  0.00     0.690 A 
ATOM     44  H10 UNL     1      -6.911  18.420 -25.871  1.00  0.00     0.184 HD
HETATM   45  N11 UNL     1      -6.952  15.865 -24.810  1.00  0.00    -0.133 N 
HETATM   46  N12 UNL     1      -8.033  17.125 -23.183  1.00  0.00    -0.168 N 
HETATM   47  C16 UNL     1      -6.306  15.856 -26.068  1.00  0.00     0.302 C 
ATOM     48  H11 UNL     1      -7.059  15.005 -24.270  1.00  0.00     0.190 HD
HETATM   49  O2  UNL     1      -6.973  15.811 -27.129  1.00  0.00    -0.629 OA
HETATM   50  O3  UNL     1      -4.929  15.898 -26.127  1.00  0.00    -0.629 OA
HETATM   51  C17 UNL     1      -8.362  18.413 -23.032  1.00  0.00     0.184 A 
ATOM     52  H12 UNL     1      -8.226  16.377 -22.518  1.00  0.00     0.186 HD
BRANCH  51  53
HETATM   53  O4  UNL     1      -9.024  19.031 -21.976  1.00  0.00    -0.344 OA
ATOM     54  H4  UNL     1      -8.572  19.412 -21.233  1.00  0.00     0.219 HD
ENDBRANCH  51  53
ENDBRANCH  39  41
ENDBRANCH  37  38
ENDBRANCH  36  37
ENDBRANCH  35  36
ENDBRANCH   6  35
TORSDOF 12
ENDMDL
MODEL 5
REMARK VINA RESULT: -10.730598329      1.317      1.822
REMARK  12 active torsions:
REMARK  status: ('A' for Active; 'I' for Inactive)
REMARK    1  A    between atoms: N1_1  and  C1_4 
REMARK    2  A    between atoms: C2_7  and  N3_8 
REMARK    3  A    between atoms: C8_16  and  N5_17 
REMARK    4  A    between atoms: N5_17  and  C9_19 
REMARK    5  A    between atoms: C9_19  and  C10_20 
REMARK    6  A    between atoms: N8_25  and  C11_26 
REMARK    7  A    between atoms: C11_26  and  C12_27 
REMARK    8  A    between atoms: C12_27  and  O1_28 
REMARK    9  A    between atoms: O1_28  and  N9_29 
REMARK   10  A    between atoms: C13_31  and  C14_32 
REMARK       I    between atoms: N11_36  and  C16_38 
REMARK   11  A    between atoms: C17_43  and  O4_44 
REMARK   12  A    between atoms: C18_46  and  O5_47 
ROOT
HETATM    1  C10 UNL     1      -7.878  18.442 -30.994  1.00  0.00     0.117 A 
HETATM    2  N6  UNL     1      -7.123  18.740 -29.932  1.00  0.00    -0.281 N 
ATOM      3  H6  UNL     1      -6.110  18.633 -29.875  1.00  0.00     0.188 HD
HETATM    4  N7  UNL     1      -7.902  19.193 -28.971  1.00  0.00    -0.238 N 
ATOM      5  H7  UNL     1      -7.591  19.495 -28.047  1.00  0.00     0.208 HD
HETATM    6  N8  UNL     1      -9.144  19.194 -29.397  1.00  0.00    -0.253 N 
HETATM    7  C18 UNL     1      -9.179  18.733 -30.653  1.00  0.00     0.188 A 
ENDROOT
BRANCH   1   8
HETATM    8  C9  UNL     1      -7.426  17.889 -32.337  1.00  0.00     0.125 C 
BRANCH   8   9
HETATM    9  N5  UNL     1      -6.195  18.455 -32.726  1.00  0.00    -0.348 N 
ATOM     10  H5  UNL     1      -6.190  19.471 -32.824  1.00  0.00     0.167 HD
BRANCH   9  11
HETATM   11  C8  UNL     1      -5.111  17.887 -32.967  1.00  0.00     0.136 A 
HETATM   12  C7  UNL     1      -4.624  17.677 -34.224  1.00  0.00     0.123 A 
HETATM   13  N4  UNL     1      -5.284  18.075 -35.322  1.00  0.00    -0.185 N 
HETATM   14  C20 UNL     1      -3.390  17.027 -34.420  1.00  0.00     0.109 A 
HETATM   15  C2  UNL     1      -4.837  17.887 -36.571  1.00  0.00     0.682 A 
ATOM     16  H4  UNL     1      -6.179  18.547 -35.199  1.00  0.00     0.184 HD
HETATM   17  N2  UNL     1      -3.650  17.261 -36.731  1.00  0.00    -0.175 N 
HETATM   18  C1  UNL     1      -2.915  16.826 -35.697  1.00  0.00     0.144 A 
ATOM     19  H2  UNL     1      -3.298  17.113 -37.678  1.00  0.00     0.186 HD
HETATM   20  N14 UNL     1      -2.660  16.596 -33.378  1.00  0.00    -0.347 N 
HETATM   21  C19 UNL     1      -3.147  16.806 -32.141  1.00  0.00     0.182 A 
ATOM     22  H14 UNL     1      -1.766  16.125 -33.519  1.00  0.00     0.167 HD
HETATM   23  N13 UNL     1      -4.315  17.421 -31.945  1.00  0.00    -0.337 N 
ATOM     24  H13 UNL     1      -4.635  17.553 -30.985  1.00  0.00     0.168 HD
BRANCH  15  25
HETATM   25  N3  UNL     1      -5.581  18.331 -37.716  1.00  0.00    -0.218 N 
HETATM   26  C3  UNL     1      -5.011  18.938 -38.890  1.00  0.00     0.141 C 
HETATM   27  C4  UNL     1      -6.149  19.634 -39.607  1.00  0.00     0.022 C 
HETATM   28  C5  UNL     1      -7.424  19.218 -38.904  1.00  0.00     0.022 C 
HETATM   29  C6  UNL     1      -7.017  18.225 -37.836  1.00  0.00     0.141 C 
ENDBRANCH  15  25
BRANCH  18  30
HETATM   30  N1  UNL     1      -1.781  16.227 -35.833  1.00  0.00    -0.383 N 
ATOM     31  H12 UNL     1      -1.121  16.602 -36.513  1.00  0.00     0.157 HD
ATOM     32  H11 UNL     1      -1.514  15.401 -35.297  1.00  0.00     0.157 HD
ENDBRANCH  18  30
ENDBRANCH   9  11
ENDBRANCH   8   9
ENDBRANCH   1   8
BRANCH   7  33
HETATM   33  O5  UNL     1     -10.260  18.555 -31.509  1.00  0.00    -0.343 OA
ATOM     34  H5  UNL     1     -10.779  19.269 -31.858  1.00  0.00     0.219 HD
ENDBRANCH   7  33
BRANCH   6  35
HETATM   35  C11 UNL     1     -10.306  19.624 -28.637  1.00  0.00     0.181 C 
BRANCH  35  36
HETATM   36  C12 UNL     1      -9.832  20.643 -27.618  1.00  0.00     0.223 C 
BRANCH  36  37
HETATM   37  O1  UNL     1      -9.126  20.061 -26.552  1.00  0.00    -0.279 OA
BRANCH  37  38
HETATM   38  N9  UNL     1      -8.660  20.822 -25.551  1.00  0.00    -0.276 N 
HETATM   39  C13 UNL     1      -8.133  20.398 -24.495  1.00  0.00     0.148 C 
ATOM     40  H9  UNL     1      -8.740  21.833 -25.659  1.00  0.00     0.193 HD
BRANCH  39  41
HETATM   41  C14 UNL     1      -7.943  18.994 -24.183  1.00  0.00     0.117 A 
HETATM   42  N10 UNL     1      -7.329  18.091 -24.945  1.00  0.00    -0.186 N 
HETATM   43  C15 UNL     1      -7.365  16.889 -24.287  1.00  0.00     0.690 A 
ATOM     44  H10 UNL     1      -6.908  18.263 -25.858  1.00  0.00     0.184 HD
HETATM   45  N11 UNL     1      -6.882  15.759 -24.681  1.00  0.00    -0.133 N 
HETATM   46  N12 UNL     1      -8.003  17.061 -23.117  1.00  0.00    -0.168 N 
HETATM   47  C16 UNL     1      -6.231  15.711 -25.936  1.00  0.00     0.302 C 
ATOM     48  H11 UNL     1      -6.968  14.922 -24.104  1.00  0.00     0.190 HD
HETATM   49  O2  UNL     1      -6.892  15.599 -26.996  1.00  0.00    -0.629 OA
HETATM   50  O3  UNL     1      -4.855  15.788 -25.994  1.00  0.00    -0.629 OA
HETATM   51  C17 UNL     1      -8.369  18.345 -23.025  1.00  0.00     0.184 A 
ATOM     52  H12 UNL     1      -8.179  16.338 -22.419  1.00  0.00     0.186 HD
BRANCH  51  53
HETATM   53  O4  UNL     1      -9.052  18.992 -22.001  1.00  0.00    -0.344 OA
ATOM     54  H4  UNL     1      -9.264  18.574 -21.175  1.00  0.00     0.219 HD
ENDBRANCH  51  53
ENDBRANCH  39  41
ENDBRANCH  37  38
ENDBRANCH  36  37
ENDBRANCH  35  36
ENDBRANCH   6  35
TORSDOF 12
ENDMDL
