MODEL 1
REMARK VINA RESULT: -8.209386761      0.000      0.000
REMARK  11 active torsions:
REMARK  status: ('A' for Active; 'I' for Inactive)
REMARK    1  A    between atoms: C2_2  and  C4_4 
REMARK    2  A    between atoms: C4_4  and  N1_5 
REMARK    3  A    between atoms: C4_4  and  C24_39 
REMARK       I    between atoms: N1_5  and  C5_7 
REMARK    4  A    between atoms: C5_7  and  C6_9 
REMARK    5  A    between atoms: C6_9  and  C7_10 
REMARK    6  A    between atoms: C7_10  and  N2_11 
REMARK    7  A    between atoms: C8_12  and  C9_13 
REMARK    8  A    between atoms: C9_13  and  C10_14 
REMARK    9  A    between atoms: C10_14  and  C11_15 
REMARK   10  A    between atoms: C15_23  and  C16_24 
REMARK   11  A    between atoms: C16_24  and  C17_25 
ROOT
HETATM    1  N2  UNL     1      31.520  28.468  18.346  1.00  0.00    -0.332 N 
HETATM    2  C8  UNL     1      30.554  29.404  18.061  1.00  0.00     0.015 A 
HETATM    3  C12 UNL     1      31.044  30.315  17.164  1.00  0.00     0.046 A 
HETATM    4  C13 UNL     1      32.326  29.968  16.867  1.00  0.00     0.078 A 
HETATM    5  C14 UNL     1      33.112  30.680  15.989  1.00  0.00     0.259 C 
HETATM    6  O2  UNL     1      32.712  31.778  15.539  1.00  0.00    -0.267 OA
HETATM    7  N3  UNL     1      34.346  30.324  15.515  1.00  0.00    -0.321 N 
ATOM      8  H3  UNL     1      34.850  31.031  14.978  1.00  0.00     0.169 HD
HETATM    9  C15 UNL     1      34.981  29.111  15.687  1.00  0.00     0.085 C 
HETATM   10  C22 UNL     1      34.853  28.413  16.864  1.00  0.00     0.270 C 
HETATM   11  O3  UNL     1      35.955  28.012  17.336  1.00  0.00    -0.266 OA
HETATM   12  N5  UNL     1      33.756  28.102  17.577  1.00  0.00    -0.307 N 
ATOM     13  H5  UNL     1      33.798  27.254  18.142  1.00  0.00     0.170 HD
HETATM   14  C23 UNL     1      32.592  28.814  17.617  1.00  0.00     0.126 A 
ENDROOT
BRANCH   1  15
HETATM   15  C7  UNL     1      31.287  27.358  19.186  1.00  0.00     0.163 C 
BRANCH  15  16
HETATM   16  C6  UNL     1      31.049  26.021  18.628  1.00  0.00     0.067 C 
BRANCH  16  17
HETATM   17  C5  UNL     1      29.741  25.411  18.616  1.00  0.00     0.239 C 
HETATM   18  N1  UNL     1      28.560  26.216  18.360  1.00  0.00    -0.343 N 
ATOM     19  H1  UNL     1      28.686  27.214  18.192  1.00  0.00     0.163 HD
HETATM   20  O1  UNL     1      29.491  24.204  18.809  1.00  0.00    -0.269 OA
BRANCH  18  21
HETATM   21  C4  UNL     1      27.234  25.694  18.330  1.00  0.00     0.189 C 
BRANCH  21  22
HETATM   22  C2  UNL     1      26.277  26.470  19.209  1.00  0.00     0.011 C 
HETATM   23  C1  UNL     1      26.512  26.129  20.688  1.00  0.00     0.012 C 
HETATM   24  C3  UNL     1      24.845  26.077  18.913  1.00  0.00     0.012 C 
ENDBRANCH  21  22
BRANCH  21  25
HETATM   25  C24 UNL     1      26.711  25.785  16.945  1.00  0.00     0.197 C 
HETATM   26  O4  UNL     1      26.477  26.917  16.466  1.00  0.00    -0.646 OA
HETATM   27  O5  UNL     1      26.504  24.616  16.240  1.00  0.00    -0.646 OA
ENDBRANCH  21  25
ENDBRANCH  18  21
ENDBRANCH  16  17
ENDBRANCH  15  16
ENDBRANCH   1  15
BRANCH   2  28
HETATM   28  C9  UNL     1      29.212  29.433  18.680  1.00  0.00     0.058 C 
BRANCH  28  29
HETATM   29  C10 UNL     1      28.352  30.556  18.256  1.00  0.00     0.021 C 
BRANCH  29  30
HETATM   30  C11 UNL     1      27.334  30.191  17.225  1.00  0.00     0.115 C 
HETATM   31 CL1  UNL     1      25.806  29.861  18.103  1.00  0.00    -0.130 Cl
ENDBRANCH  29  30
ENDBRANCH  28  29
ENDBRANCH   2  28
BRANCH   9  32
HETATM   32  C16 UNL     1      35.730  28.632  14.537  1.00  0.00     0.105 C 
BRANCH  32  33
HETATM   33  C17 UNL     1      35.549  29.387  13.279  1.00  0.00    -0.006 A 
HETATM   34  C18 UNL     1      34.433  29.350  12.508  1.00  0.00     0.057 A 
HETATM   35 CL2  UNL     1      33.056  28.291  12.857  1.00  0.00    -0.082 Cl
HETATM   36  C19 UNL     1      34.298  30.125  11.339  1.00  0.00     0.112 A 
HETATM   37  N4  UNL     1      35.331  30.908  11.017  1.00  0.00    -0.372 N 
HETATM   38  C20 UNL     1      36.455  30.976  11.749  1.00  0.00     0.112 A 
ATOM     39  H4  UNL     1      35.262  31.482  10.176  1.00  0.00     0.164 HD
HETATM   40  C21 UNL     1      36.611  30.235  12.887  1.00  0.00     0.057 A 
HETATM   41 CL3  UNL     1      38.078  30.326  13.837  1.00  0.00    -0.082 Cl
ENDBRANCH  32  33
ENDBRANCH   9  32
TORSDOF 11
ENDMDL
MODEL 2
REMARK VINA RESULT: -7.835346842      2.201      2.976
REMARK  11 active torsions:
REMARK  status: ('A' for Active; 'I' for Inactive)
REMARK    1  A    between atoms: C2_2  and  C4_4 
REMARK    2  A    between atoms: C4_4  and  N1_5 
REMARK    3  A    between atoms: C4_4  and  C24_39 
REMARK       I    between atoms: N1_5  and  C5_7 
REMARK    4  A    between atoms: C5_7  and  C6_9 
REMARK    5  A    between atoms: C6_9  and  C7_10 
REMARK    6  A    between atoms: C7_10  and  N2_11 
REMARK    7  A    between atoms: C8_12  and  C9_13 
REMARK    8  A    between atoms: C9_13  and  C10_14 
REMARK    9  A    between atoms: C10_14  and  C11_15 
REMARK   10  A    between atoms: C15_23  and  C16_24 
REMARK   11  A    between atoms: C16_24  and  C17_25 
ROOT
HETATM    1  N2  UNL     1      32.472  29.377  16.771  1.00  0.00    -0.332 N 
HETATM    2  C8  UNL     1      31.485  30.329  16.862  1.00  0.00     0.015 A 
HETATM    3  C12 UNL     1      31.781  31.381  16.037  1.00  0.00     0.046 A 
HETATM    4  C13 UNL     1      32.959  31.109  15.412  1.00  0.00     0.078 A 
HETATM    5  C14 UNL     1      33.544  31.966  14.508  1.00  0.00     0.259 C 
HETATM    6  O2  UNL     1      33.075  33.116  14.339  1.00  0.00    -0.267 OA
HETATM    7  N3  UNL     1      34.636  31.713  13.721  1.00  0.00    -0.321 N 
ATOM      8  H3  UNL     1      35.021  32.506  13.206  1.00  0.00     0.169 HD
HETATM    9  C15 UNL     1      35.271  30.499  13.551  1.00  0.00     0.085 C 
HETATM   10  C22 UNL     1      35.393  29.620  14.599  1.00  0.00     0.270 C 
HETATM   11  O3  UNL     1      36.565  29.167  14.745  1.00  0.00    -0.266 OA
HETATM   12  N5  UNL     1      34.476  29.179  15.479  1.00  0.00    -0.307 N 
ATOM     13  H5  UNL     1      34.626  28.252  15.877  1.00  0.00     0.170 HD
HETATM   14  C23 UNL     1      33.363  29.855  15.889  1.00  0.00     0.126 A 
ENDROOT
BRANCH   1  15
HETATM   15  C7  UNL     1      32.411  28.143  17.454  1.00  0.00     0.163 C 
BRANCH  15  16
HETATM   16  C6  UNL     1      32.615  28.069  18.906  1.00  0.00     0.067 C 
BRANCH  16  17
HETATM   17  C5  UNL     1      31.641  27.481  19.793  1.00  0.00     0.239 C 
HETATM   18  N1  UNL     1      30.598  26.618  19.268  1.00  0.00    -0.343 N 
ATOM     19  H1  UNL     1      30.579  26.445  18.263  1.00  0.00     0.163 HD
HETATM   20  O1  UNL     1      31.587  27.632  21.031  1.00  0.00    -0.269 OA
BRANCH  18  21
HETATM   21  C4  UNL     1      29.600  25.997  20.074  1.00  0.00     0.189 C 
BRANCH  21  22
HETATM   22  C2  UNL     1      28.205  26.157  19.508  1.00  0.00     0.011 C 
HETATM   23  C1  UNL     1      27.947  27.623  19.127  1.00  0.00     0.012 C 
HETATM   24  C3  UNL     1      27.164  25.808  20.551  1.00  0.00     0.012 C 
ENDBRANCH  21  22
BRANCH  21  25
HETATM   25  C24 UNL     1      29.869  24.539  20.138  1.00  0.00     0.197 C 
HETATM   26  O4  UNL     1      29.869  23.882  19.074  1.00  0.00    -0.646 OA
HETATM   27  O5  UNL     1      30.109  23.967  21.372  1.00  0.00    -0.646 OA
ENDBRANCH  21  25
ENDBRANCH  18  21
ENDBRANCH  16  17
ENDBRANCH  15  16
ENDBRANCH   1  15
BRANCH   2  28
HETATM   28  C9  UNL     1      30.314  30.235  17.759  1.00  0.00     0.058 C 
BRANCH  28  29
HETATM   29  C10 UNL     1      29.022  30.588  17.139  1.00  0.00     0.021 C 
BRANCH  29  30
HETATM   30  C11 UNL     1      28.228  31.593  17.908  1.00  0.00     0.115 C 
HETATM   31 CL1  UNL     1      29.382  32.852  18.456  1.00  0.00    -0.130 Cl
ENDBRANCH  29  30
ENDBRANCH  28  29
ENDBRANCH   2  28
BRANCH   9  32
HETATM   32  C16 UNL     1      35.737  30.225  12.202  1.00  0.00     0.105 C 
BRANCH  32  33
HETATM   33  C17 UNL     1      34.745  30.397  11.119  1.00  0.00    -0.006 A 
HETATM   34  C18 UNL     1      33.587  29.697  11.014  1.00  0.00     0.057 A 
HETATM   35 CL2  UNL     1      33.149  28.385  12.121  1.00  0.00    -0.082 Cl
HETATM   36  C19 UNL     1      32.656  29.933   9.982  1.00  0.00     0.112 A 
HETATM   37  N4  UNL     1      32.967  30.887   9.101  1.00  0.00    -0.372 N 
HETATM   38  C20 UNL     1      34.102  31.604   9.167  1.00  0.00     0.112 A 
ATOM     39  H4  UNL     1      32.312  31.081   8.343  1.00  0.00     0.164 HD
HETATM   40  C21 UNL     1      35.020  31.395  10.156  1.00  0.00     0.057 A 
HETATM   41 CL3  UNL     1      36.498  32.330  10.237  1.00  0.00    -0.082 Cl
ENDBRANCH  32  33
ENDBRANCH   9  32
TORSDOF 11
ENDMDL
MODEL 3
REMARK VINA RESULT: -7.809936234      4.938     11.059
REMARK  11 active torsions:
REMARK  status: ('A' for Active; 'I' for Inactive)
REMARK    1  A    between atoms: C2_2  and  C4_4 
REMARK    2  A    between atoms: C4_4  and  N1_5 
REMARK    3  A    between atoms: C4_4  and  C24_39 
REMARK       I    between atoms: N1_5  and  C5_7 
REMARK    4  A    between atoms: C5_7  and  C6_9 
REMARK    5  A    between atoms: C6_9  and  C7_10 
REMARK    6  A    between atoms: C7_10  and  N2_11 
REMARK    7  A    between atoms: C8_12  and  C9_13 
REMARK    8  A    between atoms: C9_13  and  C10_14 
REMARK    9  A    between atoms: C10_14  and  C11_15 
REMARK   10  A    between atoms: C15_23  and  C16_24 
REMARK   11  A    between atoms: C16_24  and  C17_25 
ROOT
HETATM    1  N2  UNL     1      38.232  31.750  12.668  1.00  0.00    -0.332 N 
HETATM    2  C8  UNL     1      38.410  32.932  13.347  1.00  0.00     0.015 A 
HETATM    3  C12 UNL     1      37.238  33.297  13.953  1.00  0.00     0.046 A 
HETATM    4  C13 UNL     1      36.302  32.351  13.668  1.00  0.00     0.078 A 
HETATM    5  C14 UNL     1      35.006  32.414  14.128  1.00  0.00     0.259 C 
HETATM    6  O2  UNL     1      34.599  33.443  14.715  1.00  0.00    -0.267 OA
HETATM    7  N3  UNL     1      34.047  31.442  14.023  1.00  0.00    -0.321 N 
ATOM      8  H3  UNL     1      33.100  31.705  14.298  1.00  0.00     0.169 HD
HETATM    9  C15 UNL     1      34.226  30.146  13.586  1.00  0.00     0.085 C 
HETATM   10  C22 UNL     1      35.110  29.864  12.573  1.00  0.00     0.270 C 
HETATM   11  O3  UNL     1      34.626  29.123  11.670  1.00  0.00    -0.266 OA
HETATM   12  N5  UNL     1      36.387  30.251  12.398  1.00  0.00    -0.307 N 
ATOM     13  H5  UNL     1      36.990  29.626  11.863  1.00  0.00     0.170 HD
HETATM   14  C23 UNL     1      36.952  31.401  12.867  1.00  0.00     0.126 A 
ENDROOT
BRANCH   1  15
HETATM   15  C7  UNL     1      39.282  31.084  12.000  1.00  0.00     0.163 C 
BRANCH  15  16
HETATM   16  C6  UNL     1      40.110  30.088  12.692  1.00  0.00     0.067 C 
BRANCH  16  17
HETATM   17  C5  UNL     1      41.305  30.446  13.416  1.00  0.00     0.239 C 
HETATM   18  N1  UNL     1      41.257  30.651  14.853  1.00  0.00    -0.343 N 
ATOM     19  H1  UNL     1      40.361  30.535  15.325  1.00  0.00     0.163 HD
HETATM   20  O1  UNL     1      42.442  30.608  12.926  1.00  0.00    -0.269 OA
BRANCH  18  21
HETATM   21  C4  UNL     1      42.390  31.005  15.643  1.00  0.00     0.189 C 
BRANCH  21  22
HETATM   22  C2  UNL     1      42.013  31.726  16.920  1.00  0.00     0.011 C 
HETATM   23  C1  UNL     1      40.607  32.331  16.798  1.00  0.00     0.012 C 
HETATM   24  C3  UNL     1      42.948  32.890  17.169  1.00  0.00     0.012 C 
ENDBRANCH  21  22
BRANCH  21  25
HETATM   25  C24 UNL     1      43.103  29.768  16.045  1.00  0.00     0.197 C 
HETATM   26  O4  UNL     1      42.428  28.761  16.356  1.00  0.00    -0.646 OA
HETATM   27  O5  UNL     1      44.483  29.778  16.060  1.00  0.00    -0.646 OA
ENDBRANCH  21  25
ENDBRANCH  18  21
ENDBRANCH  16  17
ENDBRANCH  15  16
ENDBRANCH   1  15
BRANCH   2  28
HETATM   28  C9  UNL     1      39.671  33.703  13.365  1.00  0.00     0.058 C 
BRANCH  28  29
HETATM   29  C10 UNL     1      39.672  34.879  14.257  1.00  0.00     0.021 C 
BRANCH  29  30
HETATM   30  C11 UNL     1      41.035  35.378  14.609  1.00  0.00     0.115 C 
HETATM   31 CL1  UNL     1      42.208  34.235  13.881  1.00  0.00    -0.130 Cl
ENDBRANCH  29  30
ENDBRANCH  28  29
ENDBRANCH   2  28
BRANCH   9  32
HETATM   32  C16 UNL     1      33.460  29.137  14.299  1.00  0.00     0.105 C 
BRANCH  32  33
HETATM   33  C17 UNL     1      33.775  28.969  15.734  1.00  0.00    -0.006 A 
HETATM   34  C18 UNL     1      34.932  28.448  16.215  1.00  0.00     0.057 A 
HETATM   35 CL2  UNL     1      36.201  27.789  15.169  1.00  0.00    -0.082 Cl
HETATM   36  C19 UNL     1      35.197  28.351  17.595  1.00  0.00     0.112 A 
HETATM   37  N4  UNL     1      34.249  28.800  18.421  1.00  0.00    -0.372 N 
HETATM   38  C20 UNL     1      33.089  29.322  17.989  1.00  0.00     0.112 A 
ATOM     39  H4  UNL     1      34.413  28.744  19.427  1.00  0.00     0.164 HD
HETATM   40  C21 UNL     1      32.807  29.428  16.656  1.00  0.00     0.057 A 
HETATM   41 CL3  UNL     1      31.294  30.108  16.098  1.00  0.00    -0.082 Cl
ENDBRANCH  32  33
ENDBRANCH   9  32
TORSDOF 11
ENDMDL
MODEL 4
REMARK VINA RESULT: -7.755554879     10.467     15.066
REMARK  11 active torsions:
REMARK  status: ('A' for Active; 'I' for Inactive)
REMARK    1  A    between atoms: C2_2  and  C4_4 
REMARK    2  A    between atoms: C4_4  and  N1_5 
REMARK    3  A    between atoms: C4_4  and  C24_39 
REMARK       I    between atoms: N1_5  and  C5_7 
REMARK    4  A    between atoms: C5_7  and  C6_9 
REMARK    5  A    between atoms: C6_9  and  C7_10 
REMARK    6  A    between atoms: C7_10  and  N2_11 
REMARK    7  A    between atoms: C8_12  and  C9_13 
REMARK    8  A    between atoms: C9_13  and  C10_14 
REMARK    9  A    between atoms: C10_14  and  C11_15 
REMARK   10  A    between atoms: C15_23  and  C16_24 
REMARK   11  A    between atoms: C16_24  and  C17_25 
ROOT
HETATM    1  N2  UNL     1      43.766  30.034  12.559  1.00  0.00    -0.332 N 
HETATM    2  C8  UNL     1      43.080  29.796  11.392  1.00  0.00     0.015 A 
HETATM    3  C12 UNL     1      41.733  29.893  11.619  1.00  0.00     0.046 A 
HETATM    4  C13 UNL     1      41.547  30.195  12.933  1.00  0.00     0.078 A 
HETATM    5  C14 UNL     1      40.302  30.365  13.495  1.00  0.00     0.259 C 
HETATM    6  O2  UNL     1      39.274  30.096  12.833  1.00  0.00    -0.267 OA
HETATM    7  N3  UNL     1      40.024  30.817  14.758  1.00  0.00    -0.321 N 
ATOM      8  H3  UNL     1      39.051  30.754  15.060  1.00  0.00     0.169 HD
HETATM    9  C15 UNL     1      40.919  31.349  15.663  1.00  0.00     0.085 C 
HETATM   10  C22 UNL     1      42.201  30.862  15.750  1.00  0.00     0.270 C 
HETATM   11  O3  UNL     1      42.568  30.612  16.934  1.00  0.00    -0.266 OA
HETATM   12  N5  UNL     1      43.105  30.612  14.785  1.00  0.00    -0.307 N 
ATOM     13  H5  UNL     1      44.089  30.678  15.046  1.00  0.00     0.170 HD
HETATM   14  C23 UNL     1      42.831  30.277  13.490  1.00  0.00     0.126 A 
ENDROOT
BRANCH   1  15
HETATM   15  C7  UNL     1      45.175  30.073  12.626  1.00  0.00     0.163 C 
BRANCH  15  16
HETATM   16  C6  UNL     1      45.931  29.012  13.304  1.00  0.00     0.067 C 
BRANCH  16  17
HETATM   17  C5  UNL     1      46.349  29.120  14.680  1.00  0.00     0.239 C 
HETATM   18  N1  UNL     1      47.761  29.120  15.019  1.00  0.00    -0.343 N 
ATOM     19  H1  UNL     1      48.437  29.042  14.260  1.00  0.00     0.163 HD
HETATM   20  O1  UNL     1      45.597  29.221  15.671  1.00  0.00    -0.269 OA
BRANCH  18  21
HETATM   21  C4  UNL     1      48.257  29.224  16.352  1.00  0.00     0.189 C 
BRANCH  21  22
HETATM   22  C2  UNL     1      49.507  28.400  16.578  1.00  0.00     0.011 C 
HETATM   23  C1  UNL     1      50.395  28.420  15.325  1.00  0.00     0.012 C 
HETATM   24  C3  UNL     1      49.152  26.948  16.815  1.00  0.00     0.012 C 
ENDBRANCH  21  22
BRANCH  21  25
HETATM   25  C24 UNL     1      48.622  30.636  16.622  1.00  0.00     0.197 C 
HETATM   26  O4  UNL     1      48.565  31.460  15.683  1.00  0.00    -0.646 OA
HETATM   27  O5  UNL     1      49.009  30.983  17.901  1.00  0.00    -0.646 OA
ENDBRANCH  21  25
ENDBRANCH  18  21
ENDBRANCH  16  17
ENDBRANCH  15  16
ENDBRANCH   1  15
BRANCH   2  28
HETATM   28  C9  UNL     1      43.718  29.441  10.106  1.00  0.00     0.058 C 
BRANCH  28  29
HETATM   29  C10 UNL     1      43.545  30.433   9.028  1.00  0.00     0.021 C 
BRANCH  29  30
HETATM   30  C11 UNL     1      44.063  31.794   9.360  1.00  0.00     0.115 C 
HETATM   31 CL1  UNL     1      42.635  32.867   9.514  1.00  0.00    -0.130 Cl
ENDBRANCH  29  30
ENDBRANCH  28  29
ENDBRANCH   2  28
BRANCH   9  32
HETATM   32  C16 UNL     1      40.418  32.461  16.453  1.00  0.00     0.105 C 
BRANCH  32  33
HETATM   33  C17 UNL     1      40.999  33.788  16.157  1.00  0.00    -0.006 A 
HETATM   34  C18 UNL     1      42.065  34.327  16.801  1.00  0.00     0.057 A 
HETATM   35 CL2  UNL     1      42.855  33.543  18.180  1.00  0.00    -0.082 Cl
HETATM   36  C19 UNL     1      42.604  35.580  16.447  1.00  0.00     0.112 A 
HETATM   37  N4  UNL     1      42.012  36.224  15.438  1.00  0.00    -0.372 N 
HETATM   38  C20 UNL     1      40.954  35.729  14.774  1.00  0.00     0.112 A 
ATOM     39  H4  UNL     1      42.381  37.133  15.159  1.00  0.00     0.164 HD
HETATM   40  C21 UNL     1      40.413  34.517  15.097  1.00  0.00     0.057 A 
HETATM   41 CL3  UNL     1      39.034  33.877  14.228  1.00  0.00    -0.082 Cl
ENDBRANCH  32  33
ENDBRANCH   9  32
TORSDOF 11
ENDMDL
MODEL 5
REMARK VINA RESULT: -7.701239520      5.019     11.022
REMARK  11 active torsions:
REMARK  status: ('A' for Active; 'I' for Inactive)
REMARK    1  A    between atoms: C2_2  and  C4_4 
REMARK    2  A    between atoms: C4_4  and  N1_5 
REMARK    3  A    between atoms: C4_4  and  C24_39 
REMARK       I    between atoms: N1_5  and  C5_7 
REMARK    4  A    between atoms: C5_7  and  C6_9 
REMARK    5  A    between atoms: C6_9  and  C7_10 
REMARK    6  A    between atoms: C7_10  and  N2_11 
REMARK    7  A    between atoms: C8_12  and  C9_13 
REMARK    8  A    between atoms: C9_13  and  C10_14 
REMARK    9  A    between atoms: C10_14  and  C11_15 
REMARK   10  A    between atoms: C15_23  and  C16_24 
REMARK   11  A    between atoms: C16_24  and  C17_25 
ROOT
HETATM    1  N2  UNL     1      38.254  31.868  12.622  1.00  0.00    -0.332 N 
HETATM    2  C8  UNL     1      38.413  33.050  13.305  1.00  0.00     0.015 A 
HETATM    3  C12 UNL     1      37.247  33.375  13.944  1.00  0.00     0.046 A 
HETATM    4  C13 UNL     1      36.333  32.404  13.676  1.00  0.00     0.078 A 
HETATM    5  C14 UNL     1      35.049  32.424  14.171  1.00  0.00     0.259 C 
HETATM    6  O2  UNL     1      34.626  33.436  14.776  1.00  0.00    -0.267 OA
HETATM    7  N3  UNL     1      34.116  31.424  14.084  1.00  0.00    -0.321 N 
ATOM      8  H3  UNL     1      33.169  31.656  14.384  1.00  0.00     0.169 HD
HETATM    9  C15 UNL     1      34.323  30.137  13.632  1.00  0.00     0.085 C 
HETATM   10  C22 UNL     1      35.189  29.888  12.595  1.00  0.00     0.270 C 
HETATM   11  O3  UNL     1      34.703  29.139  11.699  1.00  0.00    -0.266 OA
HETATM   12  N5  UNL     1      36.448  30.315  12.389  1.00  0.00    -0.307 N 
ATOM     13  H5  UNL     1      37.055  29.712  11.835  1.00  0.00     0.170 HD
HETATM   14  C23 UNL     1      36.990  31.479  12.853  1.00  0.00     0.126 A 
ENDROOT
BRANCH   1  15
HETATM   15  C7  UNL     1      39.305  31.239  11.922  1.00  0.00     0.163 C 
BRANCH  15  16
HETATM   16  C6  UNL     1      40.158  30.237  12.576  1.00  0.00     0.067 C 
BRANCH  16  17
HETATM   17  C5  UNL     1      41.330  30.598  13.335  1.00  0.00     0.239 C 
HETATM   18  N1  UNL     1      41.272  30.662  14.785  1.00  0.00    -0.343 N 
ATOM     19  H1  UNL     1      40.385  30.447  15.240  1.00  0.00     0.163 HD
HETATM   20  O1  UNL     1      42.454  30.875  12.868  1.00  0.00    -0.269 OA
BRANCH  18  21
HETATM   21  C4  UNL     1      42.382  31.009  15.609  1.00  0.00     0.189 C 
BRANCH  21  22
HETATM   22  C2  UNL     1      41.970  31.728  16.876  1.00  0.00     0.011 C 
HETATM   23  C1  UNL     1      40.590  32.379  16.698  1.00  0.00     0.012 C 
HETATM   24  C3  UNL     1      42.929  32.859  17.181  1.00  0.00     0.012 C 
ENDBRANCH  21  22
BRANCH  21  25
HETATM   25  C24 UNL     1      43.077  29.767  16.030  1.00  0.00     0.197 C 
HETATM   26  O4  UNL     1      42.387  28.769  16.335  1.00  0.00    -0.646 OA
HETATM   27  O5  UNL     1      44.457  29.764  16.068  1.00  0.00    -0.646 OA
ENDBRANCH  21  25
ENDBRANCH  18  21
ENDBRANCH  16  17
ENDBRANCH  15  16
ENDBRANCH   1  15
BRANCH   2  28
HETATM   28  C9  UNL     1      39.651  33.859  13.296  1.00  0.00     0.058 C 
BRANCH  28  29
HETATM   29  C10 UNL     1      39.668  34.985  14.250  1.00  0.00     0.021 C 
BRANCH  29  30
HETATM   30  C11 UNL     1      41.037  35.463  14.607  1.00  0.00     0.115 C 
HETATM   31 CL1  UNL     1      42.194  34.286  13.906  1.00  0.00    -0.130 Cl
ENDBRANCH  29  30
ENDBRANCH  28  29
ENDBRANCH   2  28
BRANCH   9  32
HETATM   32  C16 UNL     1      33.607  29.101  14.357  1.00  0.00     0.105 C 
BRANCH  32  33
HETATM   33  C17 UNL     1      33.855  29.031  15.814  1.00  0.00    -0.006 A 
HETATM   34  C18 UNL     1      33.012  29.507  16.764  1.00  0.00     0.057 A 
HETATM   35 CL2  UNL     1      31.522  30.386  16.380  1.00  0.00    -0.082 Cl
HETATM   36  C19 UNL     1      33.279  29.375  18.142  1.00  0.00     0.112 A 
HETATM   37  N4  UNL     1      34.413  28.753  18.476  1.00  0.00    -0.372 N 
HETATM   38  C20 UNL     1      35.277  28.268  17.568  1.00  0.00     0.112 A 
ATOM     39  H4  UNL     1      34.633  28.641  19.466  1.00  0.00     0.164 HD
HETATM   40  C21 UNL     1      35.041  28.383  16.227  1.00  0.00     0.057 A 
HETATM   41 CL3  UNL     1      36.170  27.750  15.049  1.00  0.00    -0.082 Cl
ENDBRANCH  32  33
ENDBRANCH   9  32
TORSDOF 11
ENDMDL
