MODEL 1
REMARK VINA RESULT: -7.921103694      0.000      0.000
REMARK  13 active torsions:
REMARK  status: ('A' for Active; 'I' for Inactive)
REMARK    1  A    between atoms: O1_2  and  C2_3 
REMARK    2  A    between atoms: C2_3  and  C3_4 
REMARK    3  A    between atoms: C3_4  and  N1_5 
REMARK    4  A    between atoms: N2_8  and  S1_9 
REMARK    5  A    between atoms: S1_9  and  C6_12 
REMARK    6  A    between atoms: C8_16  and  N4_17 
REMARK    7  A    between atoms: N4_17  and  C9_19 
REMARK    8  A    between atoms: C9_19  and  C10_20 
REMARK    9  A    between atoms: C10_20  and  C11_21 
REMARK   10  A    between atoms: C11_21  and  C12_22 
REMARK   11  A    between atoms: C12_22  and  C13_23 
REMARK   12  A    between atoms: C13_23  and  C14_24 
REMARK   13  A    between atoms: C16_31  and  N7_32 
ROOT
HETATM    1  C6  UNL     1      37.950  29.710  13.312  1.00  0.00     0.091 A 
HETATM    2  C7  UNL     1      38.075  28.732  14.271  1.00  0.00     0.114 A 
HETATM    3  N3  UNL     1      37.008  28.330  15.019  1.00  0.00    -0.350 N 
ATOM      4  H3  UNL     1      37.149  27.601  15.720  1.00  0.00     0.166 HD
HETATM    5  C8  UNL     1      35.780  28.854  14.871  1.00  0.00     0.123 A 
HETATM    6  C18 UNL     1      35.619  29.841  13.914  1.00  0.00     0.079 A 
HETATM    7 CL3  UNL     1      34.034  30.589  13.651  1.00  0.00    -0.080 Cl
HETATM    8  C19 UNL     1      36.690  30.247  13.161  1.00  0.00     0.054 A 
ENDROOT
BRANCH   5   9
HETATM    9  N4  UNL     1      34.751  28.529  15.533  1.00  0.00    -0.375 N 
ATOM     10  H4  UNL     1      34.125  27.856  15.091  1.00  0.00     0.161 HD
BRANCH   9  11
HETATM   11  C9  UNL     1      34.362  29.001  16.840  1.00  0.00     0.121 C 
BRANCH  11  12
HETATM   12  C10 UNL     1      34.816  28.112  17.946  1.00  0.00     0.020 C 
BRANCH  12  13
HETATM   13  C11 UNL     1      33.817  28.139  19.067  1.00  0.00     0.002 C 
BRANCH  13  14
HETATM   14  C12 UNL     1      32.430  27.839  18.613  1.00  0.00     0.006 C 
BRANCH  14  15
HETATM   15  C13 UNL     1      31.443  27.793  19.768  1.00  0.00     0.059 C 
BRANCH  15  16
HETATM   16  C14 UNL     1      30.039  27.710  19.266  1.00  0.00     0.037 A 
HETATM   17  N5  UNL     1      29.370  28.852  19.012  1.00  0.00    -0.334 N 
HETATM   18  C15 UNL     1      28.106  28.741  18.563  1.00  0.00     0.180 A 
ATOM     19  H5  UNL     1      29.805  29.763  19.153  1.00  0.00     0.168 HD
HETATM   20 CL1  UNL     1      27.239  30.244  18.233  1.00  0.00    -0.045 Cl
HETATM   21  N6  UNL     1      27.486  27.560  18.360  1.00  0.00    -0.318 N 
HETATM   22  C16 UNL     1      28.125  26.399  18.604  1.00  0.00     0.125 A 
ATOM     23  H6  UNL     1      26.526  27.545  18.018  1.00  0.00     0.170 HD
HETATM   24  C17 UNL     1      29.422  26.494  19.065  1.00  0.00     0.100 A 
HETATM   25 CL2  UNL     1      30.271  24.982  19.389  1.00  0.00    -0.078 Cl
BRANCH  22  26
HETATM   26  N7  UNL     1      27.545  25.263  18.415  1.00  0.00    -0.384 N 
ATOM     27  H72 UNL     1      26.830  24.904  19.049  1.00  0.00     0.157 HD
ATOM     28  H71 UNL     1      27.780  24.675  17.615  1.00  0.00     0.157 HD
ENDBRANCH  22  26
ENDBRANCH  15  16
ENDBRANCH  14  15
ENDBRANCH  13  14
ENDBRANCH  12  13
ENDBRANCH  11  12
ENDBRANCH   9  11
ENDBRANCH   5   9
BRANCH   1  29
HETATM   29  S1  UNL     1      39.284  30.235  12.362  1.00  0.00     0.245 S 
HETATM   30  O2  UNL     1      39.930  29.062  11.643  1.00  0.00    -0.206 OA
HETATM   31  O3  UNL     1      38.770  31.133  11.246  1.00  0.00    -0.206 OA
BRANCH  29  32
HETATM   32  N2  UNL     1      40.485  31.101  13.199  1.00  0.00    -0.203 NA
HETATM   33  C5  UNL     1      41.757  30.516  13.010  1.00  0.00     0.138 C 
HETATM   34  C4  UNL     1      42.375  29.805  14.154  1.00  0.00     0.288 C 
HETATM   35  N1  UNL     1      42.011  30.198  15.464  1.00  0.00     0.092 N 
HETATM   36  C21 UNL     1      41.358  31.477  15.446  1.00  0.00     0.288 C 
HETATM   37  C20 UNL     1      40.132  31.386  14.552  1.00  0.00     0.138 C 
BRANCH  35  38
HETATM   38  C3  UNL     1      43.231  30.382  16.268  1.00  0.00     0.298 C 
BRANCH  38  39
HETATM   39  C2  UNL     1      44.447  30.235  15.417  1.00  0.00     0.197 C 
BRANCH  39  40
HETATM   40  O1  UNL     1      45.379  29.395  15.958  1.00  0.00    -0.394 OA
HETATM   41  C1  UNL     1      46.610  29.402  15.339  1.00  0.00     0.201 C 
ENDBRANCH  39  40
ENDBRANCH  38  39
ENDBRANCH  35  38
ENDBRANCH  29  32
ENDBRANCH   1  29
TORSDOF 13
ENDMDL
MODEL 2
REMARK VINA RESULT: -7.852917515      1.322      1.596
REMARK  13 active torsions:
REMARK  status: ('A' for Active; 'I' for Inactive)
REMARK    1  A    between atoms: O1_2  and  C2_3 
REMARK    2  A    between atoms: C2_3  and  C3_4 
REMARK    3  A    between atoms: C3_4  and  N1_5 
REMARK    4  A    between atoms: N2_8  and  S1_9 
REMARK    5  A    between atoms: S1_9  and  C6_12 
REMARK    6  A    between atoms: C8_16  and  N4_17 
REMARK    7  A    between atoms: N4_17  and  C9_19 
REMARK    8  A    between atoms: C9_19  and  C10_20 
REMARK    9  A    between atoms: C10_20  and  C11_21 
REMARK   10  A    between atoms: C11_21  and  C12_22 
REMARK   11  A    between atoms: C12_22  and  C13_23 
REMARK   12  A    between atoms: C13_23  and  C14_24 
REMARK   13  A    between atoms: C16_31  and  N7_32 
ROOT
HETATM    1  C6  UNL     1      37.141  29.488  13.858  1.00  0.00     0.091 A 
HETATM    2  C7  UNL     1      35.945  29.993  13.403  1.00  0.00     0.114 A 
HETATM    3  N3  UNL     1      34.761  29.643  13.980  1.00  0.00    -0.350 N 
ATOM      4  H3  UNL     1      33.898  30.042  13.609  1.00  0.00     0.166 HD
HETATM    5  C8  UNL     1      34.684  28.795  15.019  1.00  0.00     0.123 A 
HETATM    6  C18 UNL     1      35.869  28.268  15.502  1.00  0.00     0.079 A 
HETATM    7 CL3  UNL     1      35.861  27.140  16.869  1.00  0.00    -0.080 Cl
HETATM    8  C19 UNL     1      37.061  28.617  14.923  1.00  0.00     0.054 A 
ENDROOT
BRANCH   5   9
HETATM    9  N4  UNL     1      33.620  28.427  15.598  1.00  0.00    -0.375 N 
ATOM     10  H4  UNL     1      33.346  27.454  15.463  1.00  0.00     0.161 HD
BRANCH   9  11
HETATM   11  C9  UNL     1      32.749  29.226  16.427  1.00  0.00     0.121 C 
BRANCH  11  12
HETATM   12  C10 UNL     1      33.453  29.873  17.568  1.00  0.00     0.020 C 
BRANCH  12  13
HETATM   13  C11 UNL     1      33.509  28.930  18.736  1.00  0.00     0.002 C 
BRANCH  13  14
HETATM   14  C12 UNL     1      32.563  27.786  18.601  1.00  0.00     0.006 C 
BRANCH  14  15
HETATM   15  C13 UNL     1      31.591  27.703  19.766  1.00  0.00     0.059 C 
BRANCH  15  16
HETATM   16  C14 UNL     1      30.178  27.702  19.282  1.00  0.00     0.037 A 
HETATM   17  N5  UNL     1      29.579  28.879  19.021  1.00  0.00    -0.334 N 
HETATM   18  C15 UNL     1      28.304  28.842  18.588  1.00  0.00     0.180 A 
ATOM     19  H5  UNL     1      30.071  29.764  19.145  1.00  0.00     0.168 HD
HETATM   20 CL1  UNL     1      27.528  30.392  18.248  1.00  0.00    -0.045 Cl
HETATM   21  N6  UNL     1      27.610  27.699  18.407  1.00  0.00    -0.318 N 
HETATM   22  C16 UNL     1      28.179  26.504  18.659  1.00  0.00     0.125 A 
ATOM     23  H6  UNL     1      26.646  27.740  18.076  1.00  0.00     0.170 HD
HETATM   24  C17 UNL     1      29.484  26.524  19.103  1.00  0.00     0.100 A 
HETATM   25 CL2  UNL     1      30.242  24.966  19.437  1.00  0.00    -0.078 Cl
BRANCH  22  26
HETATM   26  N7  UNL     1      27.527  25.403  18.491  1.00  0.00    -0.384 N 
ATOM     27  H72 UNL     1      26.781  25.313  17.800  1.00  0.00     0.157 HD
ATOM     28  H71 UNL     1      27.735  24.574  19.047  1.00  0.00     0.157 HD
ENDBRANCH  22  26
ENDBRANCH  15  16
ENDBRANCH  14  15
ENDBRANCH  13  14
ENDBRANCH  12  13
ENDBRANCH  11  12
ENDBRANCH   9  11
ENDBRANCH   5   9
BRANCH   1  29
HETATM   29  S1  UNL     1      38.646  29.912  13.139  1.00  0.00     0.245 S 
HETATM   30  O2  UNL     1      39.219  28.742  12.357  1.00  0.00    -0.206 OA
HETATM   31  O3  UNL     1      38.404  30.990  12.094  1.00  0.00    -0.206 OA
BRANCH  29  32
HETATM   32  N2  UNL     1      39.830  30.498  14.209  1.00  0.00    -0.203 NA
HETATM   33  C5  UNL     1      40.600  31.518  13.606  1.00  0.00     0.138 C 
HETATM   34  C4  UNL     1      42.001  31.208  13.237  1.00  0.00     0.288 C 
HETATM   35  N1  UNL     1      42.682  30.205  13.968  1.00  0.00     0.092 N 
HETATM   36  C21 UNL     1      41.985  29.907  15.189  1.00  0.00     0.288 C 
HETATM   37  C20 UNL     1      40.574  29.460  14.848  1.00  0.00     0.138 C 
BRANCH  35  38
HETATM   38  C3  UNL     1      44.002  30.715  14.373  1.00  0.00     0.298 C 
BRANCH  38  39
HETATM   39  C2  UNL     1      44.363  30.213  15.731  1.00  0.00     0.197 C 
BRANCH  39  40
HETATM   40  O1  UNL     1      45.468  29.409  15.727  1.00  0.00    -0.394 OA
HETATM   41  C1  UNL     1      46.677  30.068  15.711  1.00  0.00     0.201 C 
ENDBRANCH  39  40
ENDBRANCH  38  39
ENDBRANCH  35  38
ENDBRANCH  29  32
ENDBRANCH   1  29
TORSDOF 13
ENDMDL
MODEL 3
REMARK VINA RESULT: -7.833254514      1.563      2.436
REMARK  13 active torsions:
REMARK  status: ('A' for Active; 'I' for Inactive)
REMARK    1  A    between atoms: O1_2  and  C2_3 
REMARK    2  A    between atoms: C2_3  and  C3_4 
REMARK    3  A    between atoms: C3_4  and  N1_5 
REMARK    4  A    between atoms: N2_8  and  S1_9 
REMARK    5  A    between atoms: S1_9  and  C6_12 
REMARK    6  A    between atoms: C8_16  and  N4_17 
REMARK    7  A    between atoms: N4_17  and  C9_19 
REMARK    8  A    between atoms: C9_19  and  C10_20 
REMARK    9  A    between atoms: C10_20  and  C11_21 
REMARK   10  A    between atoms: C11_21  and  C12_22 
REMARK   11  A    between atoms: C12_22  and  C13_23 
REMARK   12  A    between atoms: C13_23  and  C14_24 
REMARK   13  A    between atoms: C16_31  and  N7_32 
ROOT
HETATM    1  C6  UNL     1      37.440  29.522  13.478  1.00  0.00     0.091 A 
HETATM    2  C7  UNL     1      36.294  29.945  12.845  1.00  0.00     0.114 A 
HETATM    3  N3  UNL     1      35.058  29.644  13.337  1.00  0.00    -0.350 N 
ATOM      4  H3  UNL     1      34.236  29.978  12.834  1.00  0.00     0.166 HD
HETATM    5  C8  UNL     1      34.880  28.925  14.458  1.00  0.00     0.123 A 
HETATM    6  C18 UNL     1      36.013  28.484  15.120  1.00  0.00     0.079 A 
HETATM    7 CL3  UNL     1      35.871  27.528  16.606  1.00  0.00    -0.080 Cl
HETATM    8  C19 UNL     1      37.256  28.785  14.627  1.00  0.00     0.054 A 
ENDROOT
BRANCH   5   9
HETATM    9  N4  UNL     1      33.765  28.608  14.966  1.00  0.00    -0.375 N 
ATOM     10  H4  UNL     1      33.531  27.615  14.958  1.00  0.00     0.161 HD
BRANCH   9  11
HETATM   11  C9  UNL     1      32.785  29.489  15.555  1.00  0.00     0.121 C 
BRANCH  11  12
HETATM   12  C10 UNL     1      33.170  29.978  16.907  1.00  0.00     0.020 C 
BRANCH  12  13
HETATM   13  C11 UNL     1      32.740  28.988  17.952  1.00  0.00     0.002 C 
BRANCH  13  14
HETATM   14  C12 UNL     1      31.364  28.463  17.718  1.00  0.00     0.006 C 
BRANCH  14  15
HETATM   15  C13 UNL     1      30.403  28.859  18.826  1.00  0.00     0.059 C 
BRANCH  15  16
HETATM   16  C14 UNL     1      29.526  27.711  19.206  1.00  0.00     0.037 A 
HETATM   17  N5  UNL     1      30.096  26.584  19.675  1.00  0.00    -0.334 N 
HETATM   18  C15 UNL     1      29.277  25.567  20.007  1.00  0.00     0.180 A 
ATOM     19  H5  UNL     1      31.108  26.504  19.776  1.00  0.00     0.168 HD
HETATM   20 CL1  UNL     1      30.036  24.095  20.620  1.00  0.00    -0.045 Cl
HETATM   21  N6  UNL     1      27.934  25.624  19.892  1.00  0.00    -0.318 N 
HETATM   22  C16 UNL     1      27.331  26.735  19.426  1.00  0.00     0.125 A 
ATOM     23  H6  UNL     1      27.370  24.818  20.161  1.00  0.00     0.170 HD
HETATM   24  C17 UNL     1      28.155  27.786  19.083  1.00  0.00     0.100 A 
HETATM   25 CL2  UNL     1      27.378  29.248  18.472  1.00  0.00    -0.078 Cl
BRANCH  22  26
HETATM   26  N7  UNL     1      26.047  26.801  19.312  1.00  0.00    -0.384 N 
ATOM     27  H72 UNL     1      25.418  26.312  19.949  1.00  0.00     0.157 HD
ATOM     28  H71 UNL     1      25.610  27.352  18.573  1.00  0.00     0.157 HD
ENDBRANCH  22  26
ENDBRANCH  15  16
ENDBRANCH  14  15
ENDBRANCH  13  14
ENDBRANCH  12  13
ENDBRANCH  11  12
ENDBRANCH   9  11
ENDBRANCH   5   9
BRANCH   1  29
HETATM   29  S1  UNL     1      39.007  29.887  12.870  1.00  0.00     0.245 S 
HETATM   30  O2  UNL     1      39.575  28.707  12.099  1.00  0.00    -0.206 OA
HETATM   31  O3  UNL     1      38.888  30.998  11.838  1.00  0.00    -0.206 OA
BRANCH  29  32
HETATM   32  N2  UNL     1      40.144  30.390  14.030  1.00  0.00    -0.203 NA
HETATM   33  C5  UNL     1      40.903  31.485  13.556  1.00  0.00     0.138 C 
HETATM   34  C4  UNL     1      42.322  31.247  13.201  1.00  0.00     0.288 C 
HETATM   35  N1  UNL     1      43.009  30.193  13.850  1.00  0.00     0.092 N 
HETATM   36  C21 UNL     1      42.286  29.757  15.012  1.00  0.00     0.288 C 
HETATM   37  C20 UNL     1      40.897  29.313  14.585  1.00  0.00     0.138 C 
BRANCH  35  38
HETATM   38  C3  UNL     1      44.302  30.692  14.345  1.00  0.00     0.298 C 
BRANCH  38  39
HETATM   39  C2  UNL     1      44.552  30.210  15.735  1.00  0.00     0.197 C 
BRANCH  39  40
HETATM   40  O1  UNL     1      45.546  29.276  15.805  1.00  0.00    -0.394 OA
HETATM   41  C1  UNL     1      46.796  29.713  15.424  1.00  0.00     0.201 C 
ENDBRANCH  39  40
ENDBRANCH  38  39
ENDBRANCH  35  38
ENDBRANCH  29  32
ENDBRANCH   1  29
TORSDOF 13
ENDMDL
MODEL 4
REMARK VINA RESULT: -7.744514008      1.824      2.228
REMARK  13 active torsions:
REMARK  status: ('A' for Active; 'I' for Inactive)
REMARK    1  A    between atoms: O1_2  and  C2_3 
REMARK    2  A    between atoms: C2_3  and  C3_4 
REMARK    3  A    between atoms: C3_4  and  N1_5 
REMARK    4  A    between atoms: N2_8  and  S1_9 
REMARK    5  A    between atoms: S1_9  and  C6_12 
REMARK    6  A    between atoms: C8_16  and  N4_17 
REMARK    7  A    between atoms: N4_17  and  C9_19 
REMARK    8  A    between atoms: C9_19  and  C10_20 
REMARK    9  A    between atoms: C10_20  and  C11_21 
REMARK   10  A    between atoms: C11_21  and  C12_22 
REMARK   11  A    between atoms: C12_22  and  C13_23 
REMARK   12  A    between atoms: C13_23  and  C14_24 
REMARK   13  A    between atoms: C16_31  and  N7_32 
ROOT
HETATM    1  C6  UNL     1      37.444  29.540  13.540  1.00  0.00     0.091 A 
HETATM    2  C7  UNL     1      36.319  29.967  12.874  1.00  0.00     0.114 A 
HETATM    3  N3  UNL     1      35.068  29.667  13.325  1.00  0.00    -0.350 N 
ATOM      4  H3  UNL     1      34.263  30.005  12.797  1.00  0.00     0.166 HD
HETATM    5  C8  UNL     1      34.853  28.943  14.436  1.00  0.00     0.123 A 
HETATM    6  C18 UNL     1      35.964  28.497  15.131  1.00  0.00     0.079 A 
HETATM    7 CL3  UNL     1      35.773  27.534  16.608  1.00  0.00    -0.080 Cl
HETATM    8  C19 UNL     1      37.223  28.797  14.680  1.00  0.00     0.054 A 
ENDROOT
BRANCH   5   9
HETATM    9  N4  UNL     1      33.722  28.626  14.906  1.00  0.00    -0.375 N 
ATOM     10  H4  UNL     1      33.517  27.628  14.955  1.00  0.00     0.161 HD
BRANCH   9  11
HETATM   11  C9  UNL     1      32.687  29.513  15.382  1.00  0.00     0.121 C 
BRANCH  11  12
HETATM   12  C10 UNL     1      32.949  30.042  16.749  1.00  0.00     0.020 C 
BRANCH  12  13
HETATM   13  C11 UNL     1      32.168  29.254  17.762  1.00  0.00     0.002 C 
BRANCH  13  14
HETATM   14  C12 UNL     1      30.715  29.177  17.437  1.00  0.00     0.006 C 
BRANCH  14  15
HETATM   15  C13 UNL     1      29.848  29.150  18.685  1.00  0.00     0.059 C 
BRANCH  15  16
HETATM   16  C14 UNL     1      29.294  27.783  18.919  1.00  0.00     0.037 A 
HETATM   17  N5  UNL     1      28.213  27.389  18.218  1.00  0.00    -0.334 N 
HETATM   18  C15 UNL     1      27.737  26.152  18.454  1.00  0.00     0.180 A 
ATOM     19  H5  UNL     1      27.771  28.005  17.535  1.00  0.00     0.168 HD
HETATM   20 CL1  UNL     1      26.320  25.647  17.530  1.00  0.00    -0.045 Cl
HETATM   21  N6  UNL     1      28.285  25.301  19.347  1.00  0.00    -0.318 N 
HETATM   22  C16 UNL     1      29.366  25.661  20.066  1.00  0.00     0.125 A 
ATOM     23  H6  UNL     1      27.876  24.376  19.479  1.00  0.00     0.170 HD
HETATM   24  C17 UNL     1      29.866  26.926  19.835  1.00  0.00     0.100 A 
HETATM   25 CL2  UNL     1      31.282  27.411  20.769  1.00  0.00    -0.078 Cl
BRANCH  22  26
HETATM   26  N7  UNL     1      29.899  24.857  20.923  1.00  0.00    -0.384 N 
ATOM     27  H72 UNL     1      29.346  24.180  21.450  1.00  0.00     0.157 HD
ATOM     28  H71 UNL     1      30.902  24.868  21.106  1.00  0.00     0.157 HD
ENDBRANCH  22  26
ENDBRANCH  15  16
ENDBRANCH  14  15
ENDBRANCH  13  14
ENDBRANCH  12  13
ENDBRANCH  11  12
ENDBRANCH   9  11
ENDBRANCH   5   9
BRANCH   1  29
HETATM   29  S1  UNL     1      39.031  29.904  12.984  1.00  0.00     0.245 S 
HETATM   30  O2  UNL     1      39.593  28.754  12.166  1.00  0.00    -0.206 OA
HETATM   31  O3  UNL     1      38.954  31.068  12.008  1.00  0.00    -0.206 OA
BRANCH  29  32
HETATM   32  N2  UNL     1      40.151  30.326  14.191  1.00  0.00    -0.203 NA
HETATM   33  C5  UNL     1      40.865  31.493  13.836  1.00  0.00     0.138 C 
HETATM   34  C4  UNL     1      42.291  31.351  13.459  1.00  0.00     0.288 C 
HETATM   35  N1  UNL     1      43.021  30.262  13.992  1.00  0.00     0.092 N 
HETATM   36  C21 UNL     1      42.320  29.677  15.102  1.00  0.00     0.288 C 
HETATM   37  C20 UNL     1      40.948  29.226  14.629  1.00  0.00     0.138 C 
BRANCH  35  38
HETATM   38  C3  UNL     1      44.295  30.756  14.538  1.00  0.00     0.298 C 
BRANCH  38  39
HETATM   39  C2  UNL     1      45.347  29.701  14.449  1.00  0.00     0.197 C 
BRANCH  39  40
HETATM   40  O1  UNL     1      45.821  29.316  15.671  1.00  0.00    -0.394 OA
HETATM   41  C1  UNL     1      47.153  28.966  15.704  1.00  0.00     0.201 C 
ENDBRANCH  39  40
ENDBRANCH  38  39
ENDBRANCH  35  38
ENDBRANCH  29  32
ENDBRANCH   1  29
TORSDOF 13
ENDMDL
MODEL 5
REMARK VINA RESULT: -7.722087506      5.604     13.374
REMARK  13 active torsions:
REMARK  status: ('A' for Active; 'I' for Inactive)
REMARK    1  A    between atoms: O1_2  and  C2_3 
REMARK    2  A    between atoms: C2_3  and  C3_4 
REMARK    3  A    between atoms: C3_4  and  N1_5 
REMARK    4  A    between atoms: N2_8  and  S1_9 
REMARK    5  A    between atoms: S1_9  and  C6_12 
REMARK    6  A    between atoms: C8_16  and  N4_17 
REMARK    7  A    between atoms: N4_17  and  C9_19 
REMARK    8  A    between atoms: C9_19  and  C10_20 
REMARK    9  A    between atoms: C10_20  and  C11_21 
REMARK   10  A    between atoms: C11_21  and  C12_22 
REMARK   11  A    between atoms: C12_22  and  C13_23 
REMARK   12  A    between atoms: C13_23  and  C14_24 
REMARK   13  A    between atoms: C16_31  and  N7_32 
ROOT
HETATM    1  C6  UNL     1      39.783  30.546  14.013  1.00  0.00     0.091 A 
HETATM    2  C7  UNL     1      40.759  29.652  13.639  1.00  0.00     0.114 A 
HETATM    3  N3  UNL     1      41.910  29.514  14.356  1.00  0.00    -0.350 N 
ATOM      4  H3  UNL     1      42.606  28.838  14.040  1.00  0.00     0.166 HD
HETATM    5  C8  UNL     1      42.164  30.232  15.463  1.00  0.00     0.123 A 
HETATM    6  C18 UNL     1      41.202  31.141  15.869  1.00  0.00     0.079 A 
HETATM    7 CL3  UNL     1      41.455  32.131  17.317  1.00  0.00    -0.080 Cl
HETATM    8  C19 UNL     1      40.045  31.282  15.148  1.00  0.00     0.054 A 
ENDROOT
BRANCH   5   9
HETATM    9  N4  UNL     1      43.210  30.156  16.172  1.00  0.00    -0.375 N 
ATOM     10  H4  UNL     1      43.070  29.963  17.164  1.00  0.00     0.161 HD
BRANCH   9  11
HETATM   11  C9  UNL     1      44.579  30.309  15.738  1.00  0.00     0.121 C 
BRANCH  11  12
HETATM   12  C10 UNL     1      44.996  31.731  15.598  1.00  0.00     0.020 C 
BRANCH  12  13
HETATM   13  C11 UNL     1      46.486  31.814  15.428  1.00  0.00     0.002 C 
BRANCH  13  14
HETATM   14  C12 UNL     1      47.209  30.711  16.124  1.00  0.00     0.006 C 
BRANCH  14  15
HETATM   15  C13 UNL     1      48.403  31.217  16.915  1.00  0.00     0.059 C 
BRANCH  15  16
HETATM   16  C14 UNL     1      49.218  30.078  17.435  1.00  0.00     0.037 A 
HETATM   17  N5  UNL     1      48.983  28.839  16.960  1.00  0.00    -0.334 N 
HETATM   18  C15 UNL     1      49.734  27.835  17.451  1.00  0.00     0.180 A 
ATOM     19  H5  UNL     1      48.265  28.669  16.257  1.00  0.00     0.168 HD
HETATM   20 CL1  UNL     1      49.417  26.216  16.822  1.00  0.00    -0.045 Cl
HETATM   21  N6  UNL     1      50.696  28.009  18.382  1.00  0.00    -0.318 N 
HETATM   22  C16 UNL     1      50.957  29.234  18.879  1.00  0.00     0.125 A 
ATOM     23  H6  UNL     1      51.230  27.206  18.713  1.00  0.00     0.170 HD
HETATM   24  C17 UNL     1      50.197  30.274  18.386  1.00  0.00     0.100 A 
HETATM   25 CL2  UNL     1      50.528  31.884  19.027  1.00  0.00    -0.078 Cl
BRANCH  22  26
HETATM   26  N7  UNL     1      51.873  29.414  19.769  1.00  0.00    -0.384 N 
ATOM     27  H72 UNL     1      52.597  28.718  19.953  1.00  0.00     0.157 HD
ATOM     28  H71 UNL     1      51.908  30.266  20.328  1.00  0.00     0.157 HD
ENDBRANCH  22  26
ENDBRANCH  15  16
ENDBRANCH  14  15
ENDBRANCH  13  14
ENDBRANCH  12  13
ENDBRANCH  11  12
ENDBRANCH   9  11
ENDBRANCH   5   9
BRANCH   1  29
HETATM   29  S1  UNL     1      38.327  30.739  13.118  1.00  0.00     0.245 S 
HETATM   30  O2  UNL     1      37.709  32.103  13.378  1.00  0.00    -0.206 OA
HETATM   31  O3  UNL     1      38.660  30.745  11.634  1.00  0.00    -0.206 OA
BRANCH  29  32
HETATM   32  N2  UNL     1      37.148  29.540  13.369  1.00  0.00    -0.203 NA
HETATM   33  C5  UNL     1      35.851  30.101  13.402  1.00  0.00     0.138 C 
HETATM   34  C4  UNL     1      35.150  30.161  14.706  1.00  0.00     0.288 C 
HETATM   35  N1  UNL     1      35.485  29.203  15.693  1.00  0.00     0.092 N 
HETATM   36  C21 UNL     1      36.213  28.110  15.111  1.00  0.00     0.288 C 
HETATM   37  C20 UNL     1      37.464  28.656  14.445  1.00  0.00     0.138 C 
BRANCH  35  38
HETATM   38  C3  UNL     1      34.249  28.618  16.237  1.00  0.00     0.298 C 
BRANCH  38  39
HETATM   39  C2  UNL     1      34.552  27.754  17.415  1.00  0.00     0.197 C 
BRANCH  39  40
HETATM   40  O1  UNL     1      35.040  28.456  18.480  1.00  0.00    -0.394 OA
HETATM   41  C1  UNL     1      34.111  29.202  19.172  1.00  0.00     0.201 C 
ENDBRANCH  39  40
ENDBRANCH  38  39
ENDBRANCH  35  38
ENDBRANCH  29  32
ENDBRANCH   1  29
TORSDOF 13
ENDMDL
