MODEL 1
REMARK VINA RESULT: -8.849839774      0.000      0.000
REMARK  12 active torsions:
REMARK  status: ('A' for Active; 'I' for Inactive)
REMARK    1  A    between atoms: C4_7  and  C5_8 
REMARK       I    between atoms: C5_8  and  N3_10 
REMARK    2  A    between atoms: N3_10  and  C6_12 
REMARK    3  A    between atoms: C6_12  and  C7_13 
REMARK    4  A    between atoms: C7_13  and  N4_14 
REMARK    5  A    between atoms: N5_17  and  C10_18 
REMARK    6  A    between atoms: C10_18  and  C11_19 
REMARK    7  A    between atoms: C11_19  and  C12_20 
REMARK    8  A    between atoms: C12_20  and  C13_21 
REMARK    9  A    between atoms: C13_21  and  C14_22 
REMARK   10  A    between atoms: C14_22  and  N6_23 
REMARK   11  A    between atoms: C17_26  and  C18_28 
REMARK   12  A    between atoms: C28_42  and  N8_43 
ROOT
HETATM    1  N1  UNL     1      32.595  28.009  19.875  1.00  0.00    -0.190 NA
HETATM    2  C1  UNL     1      33.196  28.257  18.912  1.00  0.00     0.121 C 
HETATM    3  C2  UNL     1      33.941  28.545  17.726  1.00  0.00     0.157 A 
HETATM    4  N2  UNL     1      34.983  27.784  17.387  1.00  0.00    -0.352 N 
ATOM      5  H2  UNL     1      35.233  26.998  17.988  1.00  0.00     0.166 HD
HETATM    6  C3  UNL     1      35.730  28.019  16.263  1.00  0.00     0.124 A 
HETATM    7  C4  UNL     1      35.389  29.073  15.463  1.00  0.00     0.117 A 
HETATM    8  N7  UNL     1      34.330  29.834  15.820  1.00  0.00    -0.335 N 
ATOM      9  H7  UNL     1      34.077  30.620  15.221  1.00  0.00     0.168 HD
HETATM   10  C28 UNL     1      33.592  29.610  16.923  1.00  0.00     0.137 A 
ENDROOT
BRANCH  10  11
HETATM   11  N8  UNL     1      32.580  30.323  17.278  1.00  0.00    -0.383 N 
ATOM     12  H82 UNL     1      32.398  30.628  18.233  1.00  0.00     0.157 HD
ATOM     13  H81 UNL     1      31.918  30.600  16.553  1.00  0.00     0.157 HD
ENDBRANCH  10  11
BRANCH   7  14
HETATM   14  C5  UNL     1      36.134  29.371  14.261  1.00  0.00     0.269 C 
HETATM   15  O1  UNL     1      35.493  29.543  13.188  1.00  0.00    -0.266 OA
HETATM   16  N3  UNL     1      37.525  29.472  14.265  1.00  0.00    -0.354 N 
ATOM     17  H3  UNL     1      38.025  29.335  15.143  1.00  0.00     0.162 HD
BRANCH  16  18
HETATM   18  C6  UNL     1      38.279  29.760  13.073  1.00  0.00     0.153 C 
BRANCH  18  19
HETATM   19  C7  UNL     1      39.686  29.256  13.218  1.00  0.00     0.292 C 
BRANCH  19  20
HETATM   20  N4  UNL     1      40.610  30.344  13.011  1.00  0.00     0.093 N 
HETATM   21  C8  UNL     1      41.976  29.947  13.073  1.00  0.00     0.302 C 
HETATM   22  C9  UNL     1      42.380  29.606  14.497  1.00  0.00     0.302 C 
HETATM   23  N5  UNL     1      41.902  30.594  15.445  1.00  0.00     0.091 N 
HETATM   24  C26 UNL     1      41.472  31.811  14.777  1.00  0.00     0.302 C 
HETATM   25  C27 UNL     1      40.315  31.473  13.880  1.00  0.00     0.302 C 
BRANCH  23  26
HETATM   26  C10 UNL     1      42.922  30.886  16.446  1.00  0.00     0.272 C 
BRANCH  26  27
HETATM   27  C11 UNL     1      44.262  30.569  15.828  1.00  0.00     0.030 C 
BRANCH  27  28
HETATM   28  C12 UNL     1      45.107  31.790  15.794  1.00  0.00     0.003 C 
BRANCH  28  29
HETATM   29  C13 UNL     1      46.587  31.441  15.807  1.00  0.00     0.030 C 
BRANCH  29  30
HETATM   30  C14 UNL     1      46.993  30.845  14.504  1.00  0.00     0.272 C 
BRANCH  30  31
HETATM   31  N6  UNL     1      47.844  29.698  14.675  1.00  0.00     0.088 N 
HETATM   32  C15 UNL     1      49.200  29.928  14.310  1.00  0.00     0.274 C 
HETATM   33  C16 UNL     1      50.033  30.489  15.469  1.00  0.00     0.061 C 
HETATM   34  C17 UNL     1      50.186  29.375  16.483  1.00  0.00     0.070 C 
HETATM   35 CL1  UNL     1      51.655  28.445  16.074  1.00  0.00    -0.114 Cl
HETATM   36  C24 UNL     1      49.015  28.461  16.386  1.00  0.00     0.061 C 
HETATM   37  C25 UNL     1      47.736  29.215  16.052  1.00  0.00     0.274 C 
BRANCH  34  38
HETATM   38  C18 UNL     1      50.376  30.008  17.801  1.00  0.00     0.004 A 
HETATM   39  C19 UNL     1      50.148  31.345  17.973  1.00  0.00     0.015 A 
HETATM   40  C20 UNL     1      50.330  31.940  19.212  1.00  0.00     0.043 A 
HETATM   41  C21 UNL     1      50.741  31.197  20.281  1.00  0.00     0.119 A 
HETATM   42  F1  UNL     1      50.921  31.766  21.491  1.00  0.00    -0.206 F 
HETATM   43  C22 UNL     1      50.978  29.849  20.138  1.00  0.00     0.085 A 
HETATM   44  C23 UNL     1      50.789  29.268  18.884  1.00  0.00     0.127 A 
HETATM   45  F2  UNL     1      51.031  27.942  18.781  1.00  0.00    -0.205 F 
ENDBRANCH  34  38
ENDBRANCH  30  31
ENDBRANCH  29  30
ENDBRANCH  28  29
ENDBRANCH  27  28
ENDBRANCH  26  27
ENDBRANCH  23  26
ENDBRANCH  19  20
ENDBRANCH  18  19
ENDBRANCH  16  18
ENDBRANCH   7  14
TORSDOF 12
ENDMDL
MODEL 2
REMARK VINA RESULT: -8.106073897      2.402      3.947
REMARK  12 active torsions:
REMARK  status: ('A' for Active; 'I' for Inactive)
REMARK    1  A    between atoms: C4_7  and  C5_8 
REMARK       I    between atoms: C5_8  and  N3_10 
REMARK    2  A    between atoms: N3_10  and  C6_12 
REMARK    3  A    between atoms: C6_12  and  C7_13 
REMARK    4  A    between atoms: C7_13  and  N4_14 
REMARK    5  A    between atoms: N5_17  and  C10_18 
REMARK    6  A    between atoms: C10_18  and  C11_19 
REMARK    7  A    between atoms: C11_19  and  C12_20 
REMARK    8  A    between atoms: C12_20  and  C13_21 
REMARK    9  A    between atoms: C13_21  and  C14_22 
REMARK   10  A    between atoms: C14_22  and  N6_23 
REMARK   11  A    between atoms: C17_26  and  C18_28 
REMARK   12  A    between atoms: C28_42  and  N8_43 
ROOT
HETATM    1  N1  UNL     1      31.400  27.700  20.943  1.00  0.00    -0.190 NA
HETATM    2  C1  UNL     1      32.039  27.879  19.989  1.00  0.00     0.121 C 
HETATM    3  C2  UNL     1      32.837  28.087  18.822  1.00  0.00     0.157 A 
HETATM    4  N2  UNL     1      34.150  27.850  18.856  1.00  0.00    -0.352 N 
ATOM      5  H2  UNL     1      34.567  27.519  19.726  1.00  0.00     0.166 HD
HETATM    6  C3  UNL     1      34.959  28.035  17.766  1.00  0.00     0.124 A 
HETATM    7  C4  UNL     1      34.394  28.478  16.603  1.00  0.00     0.117 A 
HETATM    8  N7  UNL     1      33.062  28.714  16.585  1.00  0.00    -0.335 N 
ATOM      9  H7  UNL     1      32.643  29.045  15.716  1.00  0.00     0.168 HD
HETATM   10  C28 UNL     1      32.262  28.535  17.652  1.00  0.00     0.137 A 
ENDROOT
BRANCH  10  11
HETATM   11  N8  UNL     1      30.992  28.752  17.653  1.00  0.00    -0.383 N 
ATOM     12  H82 UNL     1      30.302  28.129  17.235  1.00  0.00     0.157 HD
ATOM     13  H81 UNL     1      30.657  29.602  18.105  1.00  0.00     0.157 HD
ENDBRANCH  10  11
BRANCH   7  14
HETATM   14  C5  UNL     1      35.192  28.690  15.417  1.00  0.00     0.269 C 
HETATM   15  O1  UNL     1      36.435  28.490  15.489  1.00  0.00    -0.266 OA
HETATM   16  N3  UNL     1      34.622  29.106  14.214  1.00  0.00    -0.354 N 
ATOM     17  H3  UNL     1      33.615  29.257  14.172  1.00  0.00     0.162 HD
BRANCH  16  18
HETATM   18  C6  UNL     1      35.407  29.328  13.028  1.00  0.00     0.153 C 
BRANCH  18  19
HETATM   19  C7  UNL     1      36.055  30.682  13.084  1.00  0.00     0.292 C 
BRANCH  19  20
HETATM   20  N4  UNL     1      37.296  30.653  12.349  1.00  0.00     0.093 N 
HETATM   21  C8  UNL     1      38.339  29.960  13.027  1.00  0.00     0.302 C 
HETATM   22  C9  UNL     1      38.831  30.754  14.224  1.00  0.00     0.302 C 
HETATM   23  N5  UNL     1      39.025  32.155  13.902  1.00  0.00     0.091 N 
HETATM   24  C26 UNL     1      39.038  32.374  12.465  1.00  0.00     0.302 C 
HETATM   25  C27 UNL     1      37.695  31.983  11.916  1.00  0.00     0.302 C 
BRANCH  23  26
HETATM   26  C10 UNL     1      40.248  32.661  14.514  1.00  0.00     0.272 C 
BRANCH  26  27
HETATM   27  C11 UNL     1      39.864  33.298  15.827  1.00  0.00     0.030 C 
BRANCH  27  28
HETATM   28  C12 UNL     1      40.981  34.137  16.331  1.00  0.00     0.003 C 
BRANCH  28  29
HETATM   29  C13 UNL     1      41.756  33.428  17.429  1.00  0.00     0.030 C 
BRANCH  29  30
HETATM   30  C14 UNL     1      43.175  33.227  17.020  1.00  0.00     0.272 C 
BRANCH  30  31
HETATM   31  N6  UNL     1      43.291  32.357  15.880  1.00  0.00     0.088 N 
HETATM   32  C15 UNL     1      44.155  32.853  14.863  1.00  0.00     0.274 C 
HETATM   33  C16 UNL     1      45.618  32.451  15.089  1.00  0.00     0.061 C 
HETATM   34  C17 UNL     1      45.708  30.959  14.849  1.00  0.00     0.070 C 
HETATM   35 CL1  UNL     1      46.056  30.692  13.117  1.00  0.00    -0.114 Cl
HETATM   36  C24 UNL     1      44.394  30.333  15.161  1.00  0.00     0.061 C 
HETATM   37  C25 UNL     1      43.701  31.025  16.326  1.00  0.00     0.274 C 
BRANCH  34  38
HETATM   38  C18 UNL     1      46.843  30.457  15.645  1.00  0.00     0.004 A 
HETATM   39  C19 UNL     1      47.556  31.299  16.453  1.00  0.00     0.015 A 
HETATM   40  C20 UNL     1      48.625  30.826  17.199  1.00  0.00     0.043 A 
HETATM   41  C21 UNL     1      48.982  29.511  17.137  1.00  0.00     0.119 A 
HETATM   42  F1  UNL     1      50.020  29.040  17.858  1.00  0.00    -0.206 F 
HETATM   43  C22 UNL     1      48.283  28.640  16.333  1.00  0.00     0.085 A 
HETATM   44  C23 UNL     1      47.211  29.133  15.590  1.00  0.00     0.127 A 
HETATM   45  F2  UNL     1      46.546  28.249  14.812  1.00  0.00    -0.205 F 
ENDBRANCH  34  38
ENDBRANCH  30  31
ENDBRANCH  29  30
ENDBRANCH  28  29
ENDBRANCH  27  28
ENDBRANCH  26  27
ENDBRANCH  23  26
ENDBRANCH  19  20
ENDBRANCH  18  19
ENDBRANCH  16  18
ENDBRANCH   7  14
TORSDOF 12
ENDMDL
MODEL 3
REMARK VINA RESULT: -8.063599202      7.877     11.547
REMARK  12 active torsions:
REMARK  status: ('A' for Active; 'I' for Inactive)
REMARK    1  A    between atoms: C4_7  and  C5_8 
REMARK       I    between atoms: C5_8  and  N3_10 
REMARK    2  A    between atoms: N3_10  and  C6_12 
REMARK    3  A    between atoms: C6_12  and  C7_13 
REMARK    4  A    between atoms: C7_13  and  N4_14 
REMARK    5  A    between atoms: N5_17  and  C10_18 
REMARK    6  A    between atoms: C10_18  and  C11_19 
REMARK    7  A    between atoms: C11_19  and  C12_20 
REMARK    8  A    between atoms: C12_20  and  C13_21 
REMARK    9  A    between atoms: C13_21  and  C14_22 
REMARK   10  A    between atoms: C14_22  and  N6_23 
REMARK   11  A    between atoms: C17_26  and  C18_28 
REMARK   12  A    between atoms: C28_42  and  N8_43 
ROOT
HETATM    1  N1  UNL     1      31.847  27.866  20.422  1.00  0.00    -0.190 NA
HETATM    2  C1  UNL     1      32.509  28.003  19.477  1.00  0.00     0.121 C 
HETATM    3  C2  UNL     1      33.336  28.159  18.321  1.00  0.00     0.157 A 
HETATM    4  N2  UNL     1      34.637  27.874  18.384  1.00  0.00    -0.352 N 
ATOM      5  H2  UNL     1      35.026  27.543  19.268  1.00  0.00     0.166 HD
HETATM    6  C3  UNL     1      35.472  28.008  17.306  1.00  0.00     0.124 A 
HETATM    7  C4  UNL     1      34.945  28.450  16.125  1.00  0.00     0.117 A 
HETATM    8  N7  UNL     1      33.624  28.735  16.078  1.00  0.00    -0.335 N 
ATOM      9  H7  UNL     1      33.233  29.065  15.195  1.00  0.00     0.168 HD
HETATM   10  C28 UNL     1      32.798  28.606  17.133  1.00  0.00     0.137 A 
ENDROOT
BRANCH  10  11
HETATM   11  N8  UNL     1      31.538  28.871  17.107  1.00  0.00    -0.383 N 
ATOM     12  H82 UNL     1      30.884  28.629  17.850  1.00  0.00     0.157 HD
ATOM     13  H81 UNL     1      31.173  29.356  16.288  1.00  0.00     0.157 HD
ENDBRANCH  10  11
BRANCH   7  14
HETATM   14  C5  UNL     1      35.772  28.609  14.950  1.00  0.00     0.269 C 
HETATM   15  O1  UNL     1      35.255  28.383  13.822  1.00  0.00    -0.266 OA
HETATM   16  N3  UNL     1      37.107  29.001  15.039  1.00  0.00    -0.354 N 
ATOM     17  H3  UNL     1      37.506  29.185  15.960  1.00  0.00     0.162 HD
BRANCH  16  18
HETATM   18  C6  UNL     1      37.942  29.155  13.877  1.00  0.00     0.153 C 
BRANCH  18  19
HETATM   19  C7  UNL     1      39.366  28.820  14.217  1.00  0.00     0.292 C 
BRANCH  19  20
HETATM   20  N4  UNL     1      40.235  29.292  13.167  1.00  0.00     0.093 N 
HETATM   21  C8  UNL     1      41.436  29.887  13.650  1.00  0.00     0.302 C 
HETATM   22  C9  UNL     1      41.156  31.229  14.301  1.00  0.00     0.302 C 
HETATM   23  N5  UNL     1      40.255  32.039  13.503  1.00  0.00     0.091 N 
HETATM   24  C26 UNL     1      40.128  31.522  12.151  1.00  0.00     0.302 C 
HETATM   25  C27 UNL     1      39.526  30.147  12.227  1.00  0.00     0.302 C 
BRANCH  23  26
HETATM   26  C10 UNL     1      40.689  33.431  13.487  1.00  0.00     0.272 C 
BRANCH  26  27
HETATM   27  C11 UNL     1      39.950  34.147  14.591  1.00  0.00     0.030 C 
BRANCH  27  28
HETATM   28  C12 UNL     1      38.534  33.700  14.627  1.00  0.00     0.003 C 
BRANCH  28  29
HETATM   29  C13 UNL     1      37.725  34.329  13.503  1.00  0.00     0.030 C 
BRANCH  29  30
HETATM   30  C14 UNL     1      36.813  33.322  12.892  1.00  0.00     0.272 C 
BRANCH  30  31
HETATM   31  N6  UNL     1      35.523  33.303  13.529  1.00  0.00     0.088 N 
HETATM   32  C15 UNL     1      34.475  33.827  12.721  1.00  0.00     0.274 C 
HETATM   33  C16 UNL     1      33.841  32.763  11.818  1.00  0.00     0.061 C 
HETATM   34  C17 UNL     1      33.073  31.819  12.719  1.00  0.00     0.070 C 
HETATM   35 CL1  UNL     1      31.410  32.445  12.898  1.00  0.00    -0.114 Cl
HETATM   36  C24 UNL     1      33.710  31.801  14.065  1.00  0.00     0.061 C 
HETATM   37  C25 UNL     1      35.223  31.942  13.975  1.00  0.00     0.274 C 
BRANCH  34  38
HETATM   38  C18 UNL     1      33.019  30.513  12.038  1.00  0.00     0.004 A 
HETATM   39  C19 UNL     1      33.668  30.317  10.851  1.00  0.00     0.015 A 
HETATM   40  C20 UNL     1      33.614  29.089  10.209  1.00  0.00     0.043 A 
HETATM   41  C21 UNL     1      32.908  28.056  10.755  1.00  0.00     0.119 A 
HETATM   42  F1  UNL     1      32.849  26.857  10.139  1.00  0.00    -0.206 F 
HETATM   43  C22 UNL     1      32.244  28.223  11.948  1.00  0.00     0.085 A 
HETATM   44  C23 UNL     1      32.311  29.465  12.579  1.00  0.00     0.127 A 
HETATM   45  F2  UNL     1      31.648  29.594  13.751  1.00  0.00    -0.205 F 
ENDBRANCH  34  38
ENDBRANCH  30  31
ENDBRANCH  29  30
ENDBRANCH  28  29
ENDBRANCH  27  28
ENDBRANCH  26  27
ENDBRANCH  23  26
ENDBRANCH  19  20
ENDBRANCH  18  19
ENDBRANCH  16  18
ENDBRANCH   7  14
TORSDOF 12
ENDMDL
MODEL 4
REMARK VINA RESULT: -8.062957750      1.759      2.453
REMARK  12 active torsions:
REMARK  status: ('A' for Active; 'I' for Inactive)
REMARK    1  A    between atoms: C4_7  and  C5_8 
REMARK       I    between atoms: C5_8  and  N3_10 
REMARK    2  A    between atoms: N3_10  and  C6_12 
REMARK    3  A    between atoms: C6_12  and  C7_13 
REMARK    4  A    between atoms: C7_13  and  N4_14 
REMARK    5  A    between atoms: N5_17  and  C10_18 
REMARK    6  A    between atoms: C10_18  and  C11_19 
REMARK    7  A    between atoms: C11_19  and  C12_20 
REMARK    8  A    between atoms: C12_20  and  C13_21 
REMARK    9  A    between atoms: C13_21  and  C14_22 
REMARK   10  A    between atoms: C14_22  and  N6_23 
REMARK   11  A    between atoms: C17_26  and  C18_28 
REMARK   12  A    between atoms: C28_42  and  N8_43 
ROOT
HETATM    1  N1  UNL     1      29.011  28.894  18.930  1.00  0.00    -0.190 NA
HETATM    2  C1  UNL     1      30.089  28.795  18.509  1.00  0.00     0.121 C 
HETATM    3  C2  UNL     1      31.417  28.656  17.998  1.00  0.00     0.157 A 
HETATM    4  N2  UNL     1      32.262  27.786  18.553  1.00  0.00    -0.352 N 
ATOM      5  H2  UNL     1      31.941  27.225  19.342  1.00  0.00     0.166 HD
HETATM    6  C3  UNL     1      33.544  27.616  18.101  1.00  0.00     0.124 A 
HETATM    7  C4  UNL     1      33.967  28.370  17.043  1.00  0.00     0.117 A 
HETATM    8  N7  UNL     1      33.099  29.248  16.491  1.00  0.00    -0.335 N 
ATOM      9  H7  UNL     1      33.417  29.809  15.701  1.00  0.00     0.168 HD
HETATM   10  C28 UNL     1      31.838  29.420  16.930  1.00  0.00     0.137 A 
ENDROOT
BRANCH  10  11
HETATM   11  N8  UNL     1      30.996  30.249  16.417  1.00  0.00    -0.383 N 
ATOM     12  H82 UNL     1      31.194  31.233  16.237  1.00  0.00     0.157 HD
ATOM     13  H81 UNL     1      30.071  29.895  16.174  1.00  0.00     0.157 HD
ENDBRANCH  10  11
BRANCH   7  14
HETATM   14  C5  UNL     1      35.307  28.236  16.517  1.00  0.00     0.269 C 
HETATM   15  O1  UNL     1      36.242  27.978  17.323  1.00  0.00    -0.266 OA
HETATM   16  N3  UNL     1      35.580  28.386  15.157  1.00  0.00    -0.354 N 
ATOM     17  H3  UNL     1      34.810  28.589  14.520  1.00  0.00     0.162 HD
BRANCH  16  18
HETATM   18  C6  UNL     1      36.911  28.263  14.623  1.00  0.00     0.153 C 
BRANCH  18  19
HETATM   19  C7  UNL     1      37.306  29.534  13.925  1.00  0.00     0.292 C 
BRANCH  19  20
HETATM   20  N4  UNL     1      38.508  29.309  13.161  1.00  0.00     0.093 N 
HETATM   21  C8  UNL     1      39.587  28.799  13.940  1.00  0.00     0.302 C 
HETATM   22  C9  UNL     1      40.135  29.863  14.874  1.00  0.00     0.302 C 
HETATM   23  N5  UNL     1      40.308  31.136  14.201  1.00  0.00     0.091 N 
HETATM   24  C26 UNL     1      40.249  30.989  12.756  1.00  0.00     0.302 C 
HETATM   25  C27 UNL     1      38.882  30.485  12.390  1.00  0.00     0.302 C 
BRANCH  23  26
HETATM   26  C10 UNL     1      41.558  31.769  14.606  1.00  0.00     0.272 C 
BRANCH  26  27
HETATM   27  C11 UNL     1      41.751  31.485  16.075  1.00  0.00     0.030 C 
BRANCH  27  28
HETATM   28  C12 UNL     1      43.056  32.028  16.531  1.00  0.00     0.003 C 
BRANCH  28  29
HETATM   29  C13 UNL     1      44.153  31.767  15.510  1.00  0.00     0.030 C 
BRANCH  29  30
HETATM   30  C14 UNL     1      44.878  30.507  15.836  1.00  0.00     0.272 C 
BRANCH  30  31
HETATM   31  N6  UNL     1      45.999  30.286  14.960  1.00  0.00     0.088 N 
HETATM   32  C15 UNL     1      46.806  31.441  14.758  1.00  0.00     0.274 C 
HETATM   33  C16 UNL     1      47.901  31.586  15.822  1.00  0.00     0.061 C 
HETATM   34  C17 UNL     1      48.904  30.479  15.578  1.00  0.00     0.070 C 
HETATM   35 CL1  UNL     1      50.139  31.085  14.438  1.00  0.00    -0.114 Cl
HETATM   36  C24 UNL     1      48.213  29.323  14.942  1.00  0.00     0.061 C 
HETATM   37  C25 UNL     1      46.791  29.162  15.460  1.00  0.00     0.274 C 
BRANCH  34  38
HETATM   38  C18 UNL     1      49.552  30.185  16.869  1.00  0.00     0.004 A 
HETATM   39  C19 UNL     1      49.530  31.099  17.885  1.00  0.00     0.015 A 
HETATM   40  C20 UNL     1      50.143  30.823  19.098  1.00  0.00     0.043 A 
HETATM   41  C21 UNL     1      50.779  29.632  19.294  1.00  0.00     0.119 A 
HETATM   42  F1  UNL     1      51.379  29.353  20.470  1.00  0.00    -0.206 F 
HETATM   43  C22 UNL     1      50.818  28.692  18.289  1.00  0.00     0.085 A 
HETATM   44  C23 UNL     1      50.196  28.987  17.077  1.00  0.00     0.127 A 
HETATM   45  F2  UNL     1      50.253  28.041  16.112  1.00  0.00    -0.205 F 
ENDBRANCH  34  38
ENDBRANCH  30  31
ENDBRANCH  29  30
ENDBRANCH  28  29
ENDBRANCH  27  28
ENDBRANCH  26  27
ENDBRANCH  23  26
ENDBRANCH  19  20
ENDBRANCH  18  19
ENDBRANCH  16  18
ENDBRANCH   7  14
TORSDOF 12
ENDMDL
MODEL 5
REMARK VINA RESULT: -8.029773792     10.623     14.841
REMARK  12 active torsions:
REMARK  status: ('A' for Active; 'I' for Inactive)
REMARK    1  A    between atoms: C4_7  and  C5_8 
REMARK       I    between atoms: C5_8  and  N3_10 
REMARK    2  A    between atoms: N3_10  and  C6_12 
REMARK    3  A    between atoms: C6_12  and  C7_13 
REMARK    4  A    between atoms: C7_13  and  N4_14 
REMARK    5  A    between atoms: N5_17  and  C10_18 
REMARK    6  A    between atoms: C10_18  and  C11_19 
REMARK    7  A    between atoms: C11_19  and  C12_20 
REMARK    8  A    between atoms: C12_20  and  C13_21 
REMARK    9  A    between atoms: C13_21  and  C14_22 
REMARK   10  A    between atoms: C14_22  and  N6_23 
REMARK   11  A    between atoms: C17_26  and  C18_28 
REMARK   12  A    between atoms: C28_42  and  N8_43 
ROOT
HETATM    1  N1  UNL     1      28.527  25.558  20.524  1.00  0.00    -0.190 NA
HETATM    2  C1  UNL     1      29.509  26.009  20.098  1.00  0.00     0.121 C 
HETATM    3  C2  UNL     1      30.711  26.561  19.556  1.00  0.00     0.157 A 
HETATM    4  N2  UNL     1      31.108  26.227  18.326  1.00  0.00    -0.352 N 
ATOM      5  H2  UNL     1      30.538  25.575  17.786  1.00  0.00     0.166 HD
HETATM    6  C3  UNL     1      32.252  26.727  17.762  1.00  0.00     0.124 A 
HETATM    7  C4  UNL     1      33.010  27.599  18.491  1.00  0.00     0.117 A 
HETATM    8  N7  UNL     1      32.595  27.927  19.736  1.00  0.00    -0.335 N 
ATOM      9  H7  UNL     1      33.162  28.579  20.278  1.00  0.00     0.168 HD
HETATM   10  C28 UNL     1      31.472  27.440  20.296  1.00  0.00     0.137 A 
ENDROOT
BRANCH  10  11
HETATM   11  N8  UNL     1      31.059  27.742  21.478  1.00  0.00    -0.383 N 
ATOM     12  H82 UNL     1      30.082  27.724  21.769  1.00  0.00     0.157 HD
ATOM     13  H81 UNL     1      31.758  28.016  22.169  1.00  0.00     0.157 HD
ENDBRANCH  10  11
BRANCH   7  14
HETATM   14  C5  UNL     1      34.227  28.164  17.952  1.00  0.00     0.269 C 
HETATM   15  O1  UNL     1      34.573  29.314  18.338  1.00  0.00    -0.266 OA
HETATM   16  N3  UNL     1      35.010  27.474  17.028  1.00  0.00    -0.354 N 
ATOM     17  H3  UNL     1      34.717  26.543  16.732  1.00  0.00     0.162 HD
BRANCH  16  18
HETATM   18  C6  UNL     1      36.219  28.030  16.478  1.00  0.00     0.153 C 
BRANCH  18  19
HETATM   19  C7  UNL     1      36.109  28.125  14.983  1.00  0.00     0.292 C 
BRANCH  19  20
HETATM   20  N4  UNL     1      35.653  29.443  14.617  1.00  0.00     0.093 N 
HETATM   21  C8  UNL     1      34.237  29.588  14.673  1.00  0.00     0.302 C 
HETATM   22  C9  UNL     1      33.566  28.821  13.547  1.00  0.00     0.302 C 
HETATM   23  N5  UNL     1      34.234  29.031  12.277  1.00  0.00     0.091 N 
HETATM   24  C26 UNL     1      35.139  30.168  12.331  1.00  0.00     0.302 C 
HETATM   25  C27 UNL     1      36.210  29.870  13.342  1.00  0.00     0.302 C 
BRANCH  23  26
HETATM   26  C10 UNL     1      33.262  29.195  11.202  1.00  0.00     0.272 C 
BRANCH  26  27
HETATM   27  C11 UNL     1      31.893  28.972  11.797  1.00  0.00     0.030 C 
BRANCH  27  28
HETATM   28  C12 UNL     1      30.973  30.059  11.375  1.00  0.00     0.003 C 
BRANCH  28  29
HETATM   29  C13 UNL     1      31.270  31.355  12.114  1.00  0.00     0.030 C 
BRANCH  29  30
HETATM   30  C14 UNL     1      30.128  31.725  12.995  1.00  0.00     0.272 C 
BRANCH  30  31
HETATM   31  N6  UNL     1      30.555  32.032  14.335  1.00  0.00     0.088 N 
HETATM   32  C15 UNL     1      29.700  32.944  15.016  1.00  0.00     0.274 C 
HETATM   33  C16 UNL     1      28.547  32.240  15.740  1.00  0.00     0.061 C 
HETATM   34  C17 UNL     1      29.152  31.482  16.902  1.00  0.00     0.070 C 
HETATM   35 CL1  UNL     1      29.186  32.566  18.321  1.00  0.00    -0.114 Cl
HETATM   36  C24 UNL     1      30.555  31.112  16.567  1.00  0.00     0.061 C 
HETATM   37  C25 UNL     1      30.716  30.788  15.089  1.00  0.00     0.274 C 
BRANCH  34  38
HETATM   38  C18 UNL     1      28.261  30.345  17.193  1.00  0.00     0.004 A 
HETATM   39  C19 UNL     1      27.220  30.042  16.359  1.00  0.00     0.015 A 
HETATM   40  C20 UNL     1      26.380  28.975  16.636  1.00  0.00     0.043 A 
HETATM   41  C21 UNL     1      26.579  28.209  17.748  1.00  0.00     0.119 A 
HETATM   42  F1  UNL     1      25.767  27.168  18.026  1.00  0.00    -0.206 F 
HETATM   43  C22 UNL     1      27.618  28.490  18.606  1.00  0.00     0.085 A 
HETATM   44  C23 UNL     1      28.453  29.567  18.311  1.00  0.00     0.127 A 
HETATM   45  F2  UNL     1      29.464  29.813  19.175  1.00  0.00    -0.205 F 
ENDBRANCH  34  38
ENDBRANCH  30  31
ENDBRANCH  29  30
ENDBRANCH  28  29
ENDBRANCH  27  28
ENDBRANCH  26  27
ENDBRANCH  23  26
ENDBRANCH  19  20
ENDBRANCH  18  19
ENDBRANCH  16  18
ENDBRANCH   7  14
TORSDOF 12
ENDMDL
