MODEL 1
REMARK VINA RESULT: -9.858629723      0.000      0.000
REMARK  12 active torsions:
REMARK  status: ('A' for Active; 'I' for Inactive)
REMARK    1  A    between atoms: O1_2  and  C2_3 
REMARK    2  A    between atoms: C4_5  and  C5_6 
REMARK    3  A    between atoms: C5_6  and  N1_7 
REMARK    4  A    between atoms: C10_15  and  N3_16 
REMARK    5  A    between atoms: N3_16  and  C11_18 
REMARK    6  A    between atoms: C16_31  and  C17_32 
REMARK    7  A    between atoms: C17_32  and  N7_33 
REMARK    8  A    between atoms: N7_33  and  C18_34 
REMARK    9  A    between atoms: N7_33  and  C23_43 
REMARK   10  A    between atoms: N8_36  and  C20_37 
REMARK   11  A    between atoms: C20_37  and  C21_38 
REMARK   12  A    between atoms: C23_43  and  C25_45 
ROOT
HETATM    1  C2  UNL     1      34.114  30.232  15.713  1.00  0.00     0.080 A 
HETATM    2  C3  UNL     1      35.183  29.933  14.914  1.00  0.00     0.049 A 
HETATM    3  C4  UNL     1      35.959  28.830  15.160  1.00  0.00     0.001 A 
HETATM    4  C14 UNL     1      35.638  28.042  16.220  1.00  0.00     0.125 A 
HETATM    5  F1  UNL     1      36.359  26.945  16.516  1.00  0.00    -0.205 F 
HETATM    6  C15 UNL     1      34.550  28.354  17.028  1.00  0.00     0.058 A 
HETATM    7  C16 UNL     1      33.746  29.437  16.825  1.00  0.00     0.016 A 
ENDROOT
BRANCH   3   8
HETATM    8  C5  UNL     1      37.125  28.483  14.305  1.00  0.00     0.163 C 
BRANCH   8   9
HETATM    9  N1  UNL     1      38.317  29.168  14.691  1.00  0.00    -0.370 N 
HETATM   10  C6  UNL     1      39.290  29.507  13.920  1.00  0.00     0.128 A 
HETATM   11  N2  UNL     1      39.300  29.245  12.609  1.00  0.00    -0.351 N 
HETATM   12  C10 UNL     1      40.352  30.180  14.525  1.00  0.00     0.078 A 
HETATM   13  C7  UNL     1      40.289  29.589  11.778  1.00  0.00     0.090 A 
ATOM     14  H2  UNL     1      38.499  28.750  12.217  1.00  0.00     0.166 HD
HETATM   15  C8  UNL     1      41.356  30.258  12.340  1.00  0.00     0.019 A 
HETATM   16  C9  UNL     1      41.403  30.554  13.681  1.00  0.00     0.035 A 
ATOM     17  H1  UNL     1      38.406  29.413  15.676  1.00  0.00     0.161 HD
BRANCH  12  18
HETATM   18  N3  UNL     1      40.346  30.469  15.893  1.00  0.00    -0.334 N 
ATOM     19  H3  UNL     1      39.956  29.761  16.515  1.00  0.00     0.168 HD
BRANCH  18  20
HETATM   20  C11 UNL     1      40.781  31.534  16.430  1.00  0.00     0.190 A 
HETATM   21  N4  UNL     1      39.977  32.641  16.505  1.00  0.00    -0.280 N 
HETATM   22  N5  UNL     1      40.389  33.754  17.049  1.00  0.00    -0.294 N 
ATOM     23  H4  UNL     1      39.032  32.595  16.124  1.00  0.00     0.188 HD
HETATM   24  C12 UNL     1      41.614  33.897  17.569  1.00  0.00     0.200 A 
ATOM     25  H5  UNL     1      39.750  34.548  17.078  1.00  0.00     0.187 HD
HETATM   26  N6  UNL     1      42.425  32.835  17.513  1.00  0.00    -0.315 N 
HETATM   27  C13 UNL     1      42.033  31.667  16.957  1.00  0.00     0.291 A 
ATOM     28  H6  UNL     1      43.365  32.908  17.901  1.00  0.00     0.170 HD
HETATM   29  O2  UNL     1      42.866  30.700  16.942  1.00  0.00    -0.264 OA
ENDBRANCH  18  20
ENDBRANCH  12  18
ENDBRANCH   8   9
ENDBRANCH   3   8
BRANCH   1  30
HETATM   30  O1  UNL     1      33.349  31.351  15.439  1.00  0.00    -0.355 OA
HETATM   31  C1  UNL     1      33.882  32.442  14.712  1.00  0.00     0.210 C 
ENDBRANCH   1  30
BRANCH   7  32
HETATM   32  C17 UNL     1      32.609  29.896  17.585  1.00  0.00     0.106 C 
BRANCH  32  33
HETATM   33  N7  UNL     1      31.540  29.037  17.950  1.00  0.00    -0.348 N 
BRANCH  33  34
HETATM   34  C18 UNL     1      31.890  28.017  18.784  1.00  0.00     0.199 C 
HETATM   35  C19 UNL     1      31.324  26.624  18.374  1.00  0.00     0.161 C 
HETATM   36  N8  UNL     1      30.499  26.636  19.539  1.00  0.00    -0.343 N 
HETATM   37  C22 UNL     1      31.311  27.668  20.065  1.00  0.00     0.244 C 
HETATM   38  O3  UNL     1      31.429  28.074  21.251  1.00  0.00    -0.271 OA
BRANCH  36  39
HETATM   39  C20 UNL     1      29.334  25.926  20.027  1.00  0.00     0.197 C 
BRANCH  39  40
HETATM   40  C21 UNL     1      29.782  24.861  21.007  1.00  0.00     0.370 C 
HETATM   41  F2  UNL     1      30.173  23.764  20.245  1.00  0.00    -0.213 F 
HETATM   42  F3  UNL     1      28.661  24.509  21.746  1.00  0.00    -0.213 F 
ENDBRANCH  39  40
ENDBRANCH  36  39
ENDBRANCH  33  34
BRANCH  33  43
HETATM   43  C23 UNL     1      30.320  29.552  17.581  1.00  0.00    -0.011 C 
HETATM   44  C24 UNL     1      30.295  30.445  16.333  1.00  0.00     0.064 C 
BRANCH  43  45
HETATM   45  C25 UNL     1      29.288  29.954  18.589  1.00  0.00     0.023 C 
HETATM   46  C26 UNL     1      28.046  29.090  18.523  1.00  0.00     0.016 C 
HETATM   47  C27 UNL     1      28.755  31.365  18.296  1.00  0.00     0.016 C 
ENDBRANCH  43  45
ENDBRANCH  33  43
ENDBRANCH  32  33
ENDBRANCH   7  32
TORSDOF 12
ENDMDL
MODEL 2
REMARK VINA RESULT: -8.707104804      1.364      1.734
REMARK  12 active torsions:
REMARK  status: ('A' for Active; 'I' for Inactive)
REMARK    1  A    between atoms: O1_2  and  C2_3 
REMARK    2  A    between atoms: C4_5  and  C5_6 
REMARK    3  A    between atoms: C5_6  and  N1_7 
REMARK    4  A    between atoms: C10_15  and  N3_16 
REMARK    5  A    between atoms: N3_16  and  C11_18 
REMARK    6  A    between atoms: C16_31  and  C17_32 
REMARK    7  A    between atoms: C17_32  and  N7_33 
REMARK    8  A    between atoms: N7_33  and  C18_34 
REMARK    9  A    between atoms: N7_33  and  C23_43 
REMARK   10  A    between atoms: N8_36  and  C20_37 
REMARK   11  A    between atoms: C20_37  and  C21_38 
REMARK   12  A    between atoms: C23_43  and  C25_45 
ROOT
HETATM    1  C2  UNL     1      34.036  30.220  15.709  1.00  0.00     0.080 A 
HETATM    2  C3  UNL     1      35.099  29.938  14.896  1.00  0.00     0.049 A 
HETATM    3  C4  UNL     1      35.901  28.853  15.137  1.00  0.00     0.001 A 
HETATM    4  C14 UNL     1      35.611  28.064  16.206  1.00  0.00     0.125 A 
HETATM    5  F1  UNL     1      36.358  26.984  16.497  1.00  0.00    -0.205 F 
HETATM    6  C15 UNL     1      34.529  28.359  17.027  1.00  0.00     0.058 A 
HETATM    7  C16 UNL     1      33.701  29.425  16.831  1.00  0.00     0.016 A 
ENDROOT
BRANCH   3   8
HETATM    8  C5  UNL     1      37.062  28.524  14.267  1.00  0.00     0.163 C 
BRANCH   8   9
HETATM    9  N1  UNL     1      38.175  29.391  14.480  1.00  0.00    -0.370 N 
HETATM   10  C6  UNL     1      38.491  30.420  13.773  1.00  0.00     0.128 A 
HETATM   11  N2  UNL     1      37.783  30.814  12.711  1.00  0.00    -0.351 N 
HETATM   12  C10 UNL     1      39.626  31.124  14.181  1.00  0.00     0.078 A 
HETATM   13  C7  UNL     1      38.078  31.881  11.960  1.00  0.00     0.090 A 
ATOM     14  H2  UNL     1      36.963  30.264  12.455  1.00  0.00     0.166 HD
HETATM   15  C8  UNL     1      39.192  32.603  12.333  1.00  0.00     0.019 A 
HETATM   16  C9  UNL     1      39.960  32.247  13.416  1.00  0.00     0.035 A 
ATOM     17  H1  UNL     1      38.781  29.174  15.270  1.00  0.00     0.161 HD
BRANCH  12  18
HETATM   18  N3  UNL     1      40.366  30.727  15.299  1.00  0.00    -0.334 N 
ATOM     19  H3  UNL     1      39.846  30.532  16.154  1.00  0.00     0.168 HD
BRANCH  18  20
HETATM   20  C11 UNL     1      41.626  30.588  15.344  1.00  0.00     0.190 A 
HETATM   21  N4  UNL     1      42.281  29.936  14.331  1.00  0.00    -0.280 N 
HETATM   22  N5  UNL     1      43.575  29.773  14.343  1.00  0.00    -0.294 N 
ATOM     23  H4  UNL     1      41.741  29.569  13.548  1.00  0.00     0.188 HD
HETATM   24  C12 UNL     1      44.355  30.224  15.334  1.00  0.00     0.200 A 
ATOM     25  H5  UNL     1      44.012  29.281  13.563  1.00  0.00     0.187 HD
HETATM   26  N6  UNL     1      43.749  30.865  16.339  1.00  0.00    -0.315 N 
HETATM   27  C13 UNL     1      42.411  31.052  16.361  1.00  0.00     0.291 A 
ATOM     28  H6  UNL     1      44.312  31.222  17.110  1.00  0.00     0.170 HD
HETATM   29  O2  UNL     1      41.907  31.674  17.356  1.00  0.00    -0.264 OA
ENDBRANCH  18  20
ENDBRANCH  12  18
ENDBRANCH   8   9
ENDBRANCH   3   8
BRANCH   1  30
HETATM   30  O1  UNL     1      33.245  31.322  15.440  1.00  0.00    -0.355 OA
HETATM   31  C1  UNL     1      33.762  32.443  14.748  1.00  0.00     0.210 C 
ENDBRANCH   1  30
BRANCH   7  32
HETATM   32  C17 UNL     1      32.566  29.865  17.605  1.00  0.00     0.106 C 
BRANCH  32  33
HETATM   33  N7  UNL     1      31.498  28.998  17.952  1.00  0.00    -0.348 N 
BRANCH  33  34
HETATM   34  C18 UNL     1      31.848  27.964  18.770  1.00  0.00     0.199 C 
HETATM   35  C19 UNL     1      31.214  26.593  18.388  1.00  0.00     0.161 C 
HETATM   36  N8  UNL     1      30.444  26.635  19.589  1.00  0.00    -0.343 N 
HETATM   37  C22 UNL     1      31.315  27.635  20.077  1.00  0.00     0.244 C 
HETATM   38  O3  UNL     1      31.502  28.036  21.255  1.00  0.00    -0.271 OA
BRANCH  36  39
HETATM   39  C20 UNL     1      29.277  25.966  20.129  1.00  0.00     0.197 C 
BRANCH  39  40
HETATM   40  C21 UNL     1      29.731  24.855  21.052  1.00  0.00     0.370 C 
HETATM   41  F2  UNL     1      30.147  23.808  20.235  1.00  0.00    -0.213 F 
HETATM   42  F3  UNL     1      28.607  24.445  21.758  1.00  0.00    -0.213 F 
ENDBRANCH  39  40
ENDBRANCH  36  39
ENDBRANCH  33  34
BRANCH  33  43
HETATM   43  C23 UNL     1      30.278  29.515  17.588  1.00  0.00    -0.011 C 
HETATM   44  C24 UNL     1      30.232  30.329  16.287  1.00  0.00     0.064 C 
BRANCH  43  45
HETATM   45  C25 UNL     1      29.286  30.002  18.599  1.00  0.00     0.023 C 
HETATM   46  C26 UNL     1      27.961  29.276  18.506  1.00  0.00     0.016 C 
HETATM   47  C27 UNL     1      28.907  31.468  18.334  1.00  0.00     0.016 C 
ENDBRANCH  43  45
ENDBRANCH  33  43
ENDBRANCH  32  33
ENDBRANCH   7  32
TORSDOF 12
ENDMDL
MODEL 3
REMARK VINA RESULT: -8.567784345      4.832     10.770
REMARK  12 active torsions:
REMARK  status: ('A' for Active; 'I' for Inactive)
REMARK    1  A    between atoms: O1_2  and  C2_3 
REMARK    2  A    between atoms: C4_5  and  C5_6 
REMARK    3  A    between atoms: C5_6  and  N1_7 
REMARK    4  A    between atoms: C10_15  and  N3_16 
REMARK    5  A    between atoms: N3_16  and  C11_18 
REMARK    6  A    between atoms: C16_31  and  C17_32 
REMARK    7  A    between atoms: C17_32  and  N7_33 
REMARK    8  A    between atoms: N7_33  and  C18_34 
REMARK    9  A    between atoms: N7_33  and  C23_43 
REMARK   10  A    between atoms: N8_36  and  C20_37 
REMARK   11  A    between atoms: C20_37  and  C21_38 
REMARK   12  A    between atoms: C23_43  and  C25_45 
ROOT
HETATM    1  C2  UNL     1      39.843  31.216  12.087  1.00  0.00     0.080 A 
HETATM    2  C3  UNL     1      38.623  30.964  11.521  1.00  0.00     0.049 A 
HETATM    3  C4  UNL     1      37.478  31.503  12.047  1.00  0.00     0.001 A 
HETATM    4  C14 UNL     1      37.587  32.295  13.146  1.00  0.00     0.125 A 
HETATM    5  F1  UNL     1      36.501  32.855  13.712  1.00  0.00    -0.205 F 
HETATM    6  C15 UNL     1      38.830  32.546  13.715  1.00  0.00     0.058 A 
HETATM    7  C16 UNL     1      39.999  32.035  13.231  1.00  0.00     0.016 A 
ENDROOT
BRANCH   3   8
HETATM    8  C5  UNL     1      36.141  31.244  11.450  1.00  0.00     0.163 C 
BRANCH   8   9
HETATM    9  N1  UNL     1      35.251  30.585  12.350  1.00  0.00    -0.370 N 
HETATM   10  C6  UNL     1      34.364  29.704  12.044  1.00  0.00     0.128 A 
HETATM   11  N2  UNL     1      34.163  29.284  10.791  1.00  0.00    -0.351 N 
HETATM   12  C10 UNL     1      33.612  29.190  13.102  1.00  0.00     0.078 A 
HETATM   13  C7  UNL     1      33.258  28.365  10.438  1.00  0.00     0.090 A 
ATOM     14  H2  UNL     1      34.740  29.691  10.055  1.00  0.00     0.166 HD
HETATM   15  C8  UNL     1      32.496  27.834  11.457  1.00  0.00     0.019 A 
HETATM   16  C9  UNL     1      32.656  28.226  12.765  1.00  0.00     0.035 A 
ATOM     17  H1  UNL     1      35.325  30.838  13.335  1.00  0.00     0.161 HD
BRANCH  12  18
HETATM   18  N3  UNL     1      33.823  29.614  14.417  1.00  0.00    -0.334 N 
ATOM     19  H3  UNL     1      33.593  30.584  14.635  1.00  0.00     0.168 HD
BRANCH  18  20
HETATM   20  C11 UNL     1      34.275  28.901  15.364  1.00  0.00     0.190 A 
HETATM   21  N4  UNL     1      33.417  28.366  16.289  1.00  0.00    -0.280 N 
HETATM   22  N5  UNL     1      33.844  27.629  17.277  1.00  0.00    -0.294 N 
ATOM     23  H4  UNL     1      32.417  28.550  16.203  1.00  0.00     0.188 HD
HETATM   24  C12 UNL     1      35.139  27.341  17.462  1.00  0.00     0.200 A 
ATOM     25  H5  UNL     1      33.162  27.255  17.937  1.00  0.00     0.187 HD
HETATM   26  N6  UNL     1      36.004  27.847  16.577  1.00  0.00    -0.315 N 
HETATM   27  C13 UNL     1      35.599  28.615  15.542  1.00  0.00     0.291 A 
ATOM     28  H6  UNL     1      36.998  27.648  16.686  1.00  0.00     0.170 HD
HETATM   29  O2  UNL     1      36.487  29.062  14.740  1.00  0.00    -0.264 OA
ENDBRANCH  18  20
ENDBRANCH  12  18
ENDBRANCH   8   9
ENDBRANCH   3   8
BRANCH   1  30
HETATM   30  O1  UNL     1      40.980  30.659  11.533  1.00  0.00    -0.355 OA
HETATM   31  C1  UNL     1      40.986  30.175  10.203  1.00  0.00     0.210 C 
ENDBRANCH   1  30
BRANCH   7  32
HETATM   32  C17 UNL     1      41.346  32.187  13.724  1.00  0.00     0.106 C 
BRANCH  32  33
HETATM   33  N7  UNL     1      41.763  31.662  14.974  1.00  0.00    -0.348 N 
BRANCH  33  34
HETATM   34  C18 UNL     1      42.284  30.403  14.916  1.00  0.00     0.199 C 
HETATM   35  C19 UNL     1      43.146  30.002  16.151  1.00  0.00     0.161 C 
HETATM   36  N8  UNL     1      44.304  29.988  15.316  1.00  0.00    -0.343 N 
HETATM   37  C22 UNL     1      43.452  29.950  14.188  1.00  0.00     0.244 C 
HETATM   38  O3  UNL     1      43.704  29.620  13.000  1.00  0.00    -0.271 OA
BRANCH  36  39
HETATM   39  C20 UNL     1      45.742  30.001  15.491  1.00  0.00     0.197 C 
BRANCH  39  40
HETATM   40  C21 UNL     1      46.183  31.406  15.841  1.00  0.00     0.370 C 
HETATM   41  F2  UNL     1      46.523  32.024  14.641  1.00  0.00    -0.213 F 
HETATM   42  F3  UNL     1      47.330  31.280  16.613  1.00  0.00    -0.213 F 
ENDBRANCH  39  40
ENDBRANCH  36  39
ENDBRANCH  33  34
BRANCH  33  43
HETATM   43  C23 UNL     1      41.780  32.624  15.955  1.00  0.00    -0.011 C 
HETATM   44  C24 UNL     1      40.656  32.566  17.001  1.00  0.00     0.064 C 
BRANCH  43  45
HETATM   45  C25 UNL     1      42.235  34.025  15.688  1.00  0.00     0.023 C 
HETATM   46  C26 UNL     1      43.699  34.096  15.309  1.00  0.00     0.016 C 
HETATM   47  C27 UNL     1      42.157  34.881  16.963  1.00  0.00     0.016 C 
ENDBRANCH  43  45
ENDBRANCH  33  43
ENDBRANCH  32  33
ENDBRANCH   7  32
TORSDOF 12
ENDMDL
MODEL 4
REMARK VINA RESULT: -8.506952879      9.371     15.481
REMARK  12 active torsions:
REMARK  status: ('A' for Active; 'I' for Inactive)
REMARK    1  A    between atoms: O1_2  and  C2_3 
REMARK    2  A    between atoms: C4_5  and  C5_6 
REMARK    3  A    between atoms: C5_6  and  N1_7 
REMARK    4  A    between atoms: C10_15  and  N3_16 
REMARK    5  A    between atoms: N3_16  and  C11_18 
REMARK    6  A    between atoms: C16_31  and  C17_32 
REMARK    7  A    between atoms: C17_32  and  N7_33 
REMARK    8  A    between atoms: N7_33  and  C18_34 
REMARK    9  A    between atoms: N7_33  and  C23_43 
REMARK   10  A    between atoms: N8_36  and  C20_37 
REMARK   11  A    between atoms: C20_37  and  C21_38 
REMARK   12  A    between atoms: C23_43  and  C25_45 
ROOT
HETATM    1  C2  UNL     1      48.678  29.151  16.795  1.00  0.00     0.080 A 
HETATM    2  C3  UNL     1      47.780  28.872  15.802  1.00  0.00     0.049 A 
HETATM    3  C4  UNL     1      47.088  29.876  15.176  1.00  0.00     0.001 A 
HETATM    4  C14 UNL     1      47.320  31.157  15.568  1.00  0.00     0.125 A 
HETATM    5  F1  UNL     1      46.675  32.189  14.993  1.00  0.00    -0.205 F 
HETATM    6  C15 UNL     1      48.235  31.431  16.578  1.00  0.00     0.058 A 
HETATM    7  C16 UNL     1      48.949  30.470  17.232  1.00  0.00     0.016 A 
ENDROOT
BRANCH   3   8
HETATM    8  C5  UNL     1      46.107  29.599  14.093  1.00  0.00     0.163 C 
BRANCH   8   9
HETATM    9  N1  UNL     1      44.761  29.862  14.487  1.00  0.00    -0.370 N 
HETATM   10  C6  UNL     1      43.740  29.960  13.709  1.00  0.00     0.128 A 
HETATM   11  N2  UNL     1      43.825  29.823  12.382  1.00  0.00    -0.351 N 
HETATM   12  C10 UNL     1      42.514  30.215  14.327  1.00  0.00     0.078 A 
HETATM   13  C7  UNL     1      42.786  29.912  11.545  1.00  0.00     0.090 A 
ATOM     14  H2  UNL     1      44.744  29.639  11.981  1.00  0.00     0.166 HD
HETATM   15  C8  UNL     1      41.557  30.161  12.120  1.00  0.00     0.019 A 
HETATM   16  C9  UNL     1      41.407  30.312  13.477  1.00  0.00     0.035 A 
ATOM     17  H1  UNL     1      44.590  29.983  15.484  1.00  0.00     0.161 HD
BRANCH  12  18
HETATM   18  N3  UNL     1      42.413  30.348  15.715  1.00  0.00    -0.334 N 
ATOM     19  H3  UNL     1      42.664  29.535  16.279  1.00  0.00     0.168 HD
BRANCH  18  20
HETATM   20  C11 UNL     1      42.037  31.388  16.336  1.00  0.00     0.190 A 
HETATM   21  N4  UNL     1      40.719  31.543  16.679  1.00  0.00    -0.280 N 
HETATM   22  N5  UNL     1      40.295  32.598  17.318  1.00  0.00    -0.294 N 
ATOM     23  H4  UNL     1      40.052  30.813  16.428  1.00  0.00     0.188 HD
HETATM   24  C12 UNL     1      41.104  33.601  17.682  1.00  0.00     0.200 A 
ATOM     25  H5  UNL     1      39.304  32.663  17.549  1.00  0.00     0.187 HD
HETATM   26  N6  UNL     1      42.398  33.482  17.363  1.00  0.00    -0.315 N 
HETATM   27  C13 UNL     1      42.873  32.404  16.702  1.00  0.00     0.291 A 
ATOM     28  H6  UNL     1      43.043  34.227  17.626  1.00  0.00     0.170 HD
HETATM   29  O2  UNL     1      44.121  32.366  16.434  1.00  0.00    -0.264 OA
ENDBRANCH  18  20
ENDBRANCH  12  18
ENDBRANCH   8   9
ENDBRANCH   3   8
BRANCH   1  30
HETATM   30  O1  UNL     1      49.361  28.116  17.407  1.00  0.00    -0.355 OA
HETATM   31  C1  UNL     1      49.315  26.800  16.888  1.00  0.00     0.210 C 
ENDBRANCH   1  30
BRANCH   7  32
HETATM   32  C17 UNL     1      49.905  30.600  18.304  1.00  0.00     0.106 C 
BRANCH  32  33
HETATM   33  N7  UNL     1      51.279  30.863  18.072  1.00  0.00    -0.348 N 
BRANCH  33  34
HETATM   34  C18 UNL     1      52.129  29.910  18.551  1.00  0.00     0.199 C 
HETATM   35  C19 UNL     1      51.637  29.199  19.848  1.00  0.00     0.161 C 
HETATM   36  N8  UNL     1      52.707  29.812  20.568  1.00  0.00    -0.343 N 
HETATM   37  C22 UNL     1      53.335  30.096  19.333  1.00  0.00     0.244 C 
HETATM   38  O3  UNL     1      54.532  30.395  19.088  1.00  0.00    -0.271 OA
BRANCH  36  39
HETATM   39  C20 UNL     1      53.055  30.059  21.953  1.00  0.00     0.197 C 
BRANCH  39  40
HETATM   40  C21 UNL     1      52.558  31.434  22.347  1.00  0.00     0.370 C 
HETATM   41  F2  UNL     1      52.418  31.422  23.732  1.00  0.00    -0.213 F 
HETATM   42  F3  UNL     1      51.300  31.577  21.777  1.00  0.00    -0.213 F 
ENDBRANCH  39  40
ENDBRANCH  36  39
ENDBRANCH  33  34
BRANCH  33  43
HETATM   43  C23 UNL     1      51.461  31.908  17.197  1.00  0.00    -0.011 C 
HETATM   44  C24 UNL     1      52.014  31.558  15.808  1.00  0.00     0.064 C 
BRANCH  43  45
HETATM   45  C25 UNL     1      51.897  33.264  17.658  1.00  0.00     0.023 C 
HETATM   46  C26 UNL     1      51.568  33.514  19.115  1.00  0.00     0.016 C 
HETATM   47  C27 UNL     1      51.120  34.369  16.924  1.00  0.00     0.016 C 
ENDBRANCH  43  45
ENDBRANCH  33  43
ENDBRANCH  32  33
ENDBRANCH   7  32
TORSDOF 12
ENDMDL
MODEL 5
REMARK VINA RESULT: -8.417678725      4.142     11.095
REMARK  12 active torsions:
REMARK  status: ('A' for Active; 'I' for Inactive)
REMARK    1  A    between atoms: O1_2  and  C2_3 
REMARK    2  A    between atoms: C4_5  and  C5_6 
REMARK    3  A    between atoms: C5_6  and  N1_7 
REMARK    4  A    between atoms: C10_15  and  N3_16 
REMARK    5  A    between atoms: N3_16  and  C11_18 
REMARK    6  A    between atoms: C16_31  and  C17_32 
REMARK    7  A    between atoms: C17_32  and  N7_33 
REMARK    8  A    between atoms: N7_33  and  C18_34 
REMARK    9  A    between atoms: N7_33  and  C23_43 
REMARK   10  A    between atoms: N8_36  and  C20_37 
REMARK   11  A    between atoms: C20_37  and  C21_38 
REMARK   12  A    between atoms: C23_43  and  C25_45 
ROOT
HETATM    1  C2  UNL     1      39.599  32.580  14.366  1.00  0.00     0.080 A 
HETATM    2  C3  UNL     1      38.522  31.968  13.788  1.00  0.00     0.049 A 
HETATM    3  C4  UNL     1      38.464  30.602  13.676  1.00  0.00     0.001 A 
HETATM    4  C14 UNL     1      39.507  29.875  14.155  1.00  0.00     0.125 A 
HETATM    5  F1  UNL     1      39.513  28.531  14.076  1.00  0.00    -0.205 F 
HETATM    6  C15 UNL     1      40.599  30.505  14.740  1.00  0.00     0.058 A 
HETATM    7  C16 UNL     1      40.705  31.859  14.877  1.00  0.00     0.016 A 
ENDROOT
BRANCH   3   8
HETATM    8  C5  UNL     1      37.303  29.913  13.053  1.00  0.00     0.163 C 
BRANCH   8   9
HETATM    9  N1  UNL     1      36.178  29.826  13.926  1.00  0.00    -0.370 N 
HETATM   10  C6  UNL     1      34.985  29.462  13.606  1.00  0.00     0.128 A 
HETATM   11  N2  UNL     1      34.646  29.107  12.363  1.00  0.00    -0.351 N 
HETATM   12  C10 UNL     1      34.046  29.447  14.638  1.00  0.00     0.078 A 
HETATM   13  C7  UNL     1      33.421  28.717  11.997  1.00  0.00     0.090 A 
ATOM     14  H2  UNL     1      35.370  29.137  11.645  1.00  0.00     0.166 HD
HETATM   15  C8  UNL     1      32.465  28.688  12.991  1.00  0.00     0.019 A 
HETATM   16  C9  UNL     1      32.754  29.042  14.287  1.00  0.00     0.035 A 
ATOM     17  H1  UNL     1      36.334  30.078  14.901  1.00  0.00     0.161 HD
BRANCH  12  18
HETATM   18  N3  UNL     1      34.394  29.804  15.944  1.00  0.00    -0.334 N 
ATOM     19  H3  UNL     1      34.989  30.625  16.058  1.00  0.00     0.168 HD
BRANCH  18  20
HETATM   20  C11 UNL     1      34.037  29.199  17.001  1.00  0.00     0.190 A 
HETATM   21  N4  UNL     1      32.785  29.405  17.518  1.00  0.00    -0.280 N 
HETATM   22  N5  UNL     1      32.382  28.802  18.603  1.00  0.00    -0.294 N 
ATOM     23  H4  UNL     1      32.151  30.048  17.043  1.00  0.00     0.188 HD
HETATM   24  C12 UNL     1      33.152  27.945  19.286  1.00  0.00     0.200 A 
ATOM     25  H5  UNL     1      31.440  28.991  18.944  1.00  0.00     0.187 HD
HETATM   26  N6  UNL     1      34.380  27.721  18.808  1.00  0.00    -0.315 N 
HETATM   27  C13 UNL     1      34.832  28.327  17.689  1.00  0.00     0.291 A 
ATOM     28  H6  UNL     1      34.993  27.073  19.303  1.00  0.00     0.170 HD
HETATM   29  O2  UNL     1      36.018  28.061  17.297  1.00  0.00    -0.264 OA
ENDBRANCH  18  20
ENDBRANCH  12  18
ENDBRANCH   8   9
ENDBRANCH   3   8
BRANCH   1  30
HETATM   30  O1  UNL     1      39.628  33.959  14.465  1.00  0.00    -0.355 OA
HETATM   31  C1  UNL     1      38.457  34.732  14.273  1.00  0.00     0.210 C 
ENDBRANCH   1  30
BRANCH   7  32
HETATM   32  C17 UNL     1      41.775  32.648  15.435  1.00  0.00     0.106 C 
BRANCH  32  33
HETATM   33  N7  UNL     1      43.135  32.445  15.083  1.00  0.00    -0.348 N 
BRANCH  33  34
HETATM   34  C18 UNL     1      43.865  31.760  16.009  1.00  0.00     0.199 C 
HETATM   35  C19 UNL     1      45.405  31.794  15.772  1.00  0.00     0.161 C 
HETATM   36  N8  UNL     1      45.373  30.395  15.485  1.00  0.00    -0.343 N 
HETATM   37  C22 UNL     1      44.096  30.332  16.090  1.00  0.00     0.244 C 
HETATM   38  O3  UNL     1      43.458  29.337  16.521  1.00  0.00    -0.271 OA
BRANCH  36  39
HETATM   39  C20 UNL     1      46.239  29.416  14.860  1.00  0.00     0.197 C 
BRANCH  39  40
HETATM   40  C21 UNL     1      47.479  29.242  15.711  1.00  0.00     0.370 C 
HETATM   41  F2  UNL     1      48.568  29.454  14.870  1.00  0.00    -0.213 F 
HETATM   42  F3  UNL     1      47.492  27.917  16.123  1.00  0.00    -0.213 F 
ENDBRANCH  39  40
ENDBRANCH  36  39
ENDBRANCH  33  34
BRANCH  33  43
HETATM   43  C23 UNL     1      43.379  32.771  13.771  1.00  0.00    -0.011 C 
HETATM   44  C24 UNL     1      42.919  34.161  13.306  1.00  0.00     0.064 C 
BRANCH  43  45
HETATM   45  C25 UNL     1      43.315  31.755  12.674  1.00  0.00     0.023 C 
HETATM   46  C26 UNL     1      44.617  31.647  11.907  1.00  0.00     0.016 C 
HETATM   47  C27 UNL     1      42.302  32.173  11.596  1.00  0.00     0.016 C 
ENDBRANCH  43  45
ENDBRANCH  33  43
ENDBRANCH  32  33
ENDBRANCH   7  32
TORSDOF 12
ENDMDL
