MODEL 1
REMARK VINA RESULT: -7.647101304      0.000      0.000
REMARK  13 active torsions:
REMARK  status: ('A' for Active; 'I' for Inactive)
REMARK    1  A    between atoms: C3_8  and  N4_9 
REMARK    2  A    between atoms: C4_11  and  C5_12 
REMARK    3  A    between atoms: C10_18  and  C11_19 
REMARK    4  A    between atoms: C11_19  and  C12_20 
REMARK    5  A    between atoms: C12_20  and  N5_21 
REMARK       I    between atoms: N5_21  and  C13_23 
REMARK    6  A    between atoms: C13_23  and  C14_25 
REMARK    7  A    between atoms: C14_25  and  O2_26 
REMARK    8  A    between atoms: O2_26  and  C15_27 
REMARK    9  A    between atoms: C15_27  and  C16_28 
REMARK   10  A    between atoms: C16_28  and  C17_29 
REMARK   11  A    between atoms: C17_29  and  C18_30 
REMARK   12  A    between atoms: C19_32  and  C20_33 
REMARK   13  A    between atoms: C21_34  and  C22_35 
ROOT
HETATM    1  N4  UNL     1      35.544  28.028  15.569  1.00  0.00    -0.350 N 
ATOM      2  H4  UNL     1      35.007  27.391  14.982  1.00  0.00     0.166 HD
HETATM    3  C4  UNL     1      36.780  28.077  14.998  1.00  0.00     0.101 C 
ENDROOT
BRANCH   3   4
HETATM    4  C5  UNL     1      37.003  29.179  14.018  1.00  0.00    -0.014 A 
HETATM    5  C6  UNL     1      35.916  29.757  13.389  1.00  0.00     0.016 A 
HETATM    6  C7  UNL     1      36.063  30.780  12.480  1.00  0.00     0.043 A 
HETATM    7  C8  UNL     1      37.310  31.241  12.188  1.00  0.00     0.117 A 
HETATM    8  F1  UNL     1      37.474  32.252  11.290  1.00  0.00    -0.206 F 
HETATM    9  C9  UNL     1      38.413  30.699  12.786  1.00  0.00     0.050 A 
HETATM   10  C10 UNL     1      38.248  29.658  13.708  1.00  0.00    -0.042 A 
BRANCH  10  11
HETATM   11  C11 UNL     1      39.462  29.127  14.309  1.00  0.00     0.059 C 
BRANCH  11  12
HETATM   12  C12 UNL     1      40.774  29.538  13.727  1.00  0.00     0.127 C 
BRANCH  12  13
HETATM   13  N5  UNL     1      41.549  30.451  14.545  1.00  0.00    -0.359 N 
HETATM   14  C13 UNL     1      42.244  30.050  15.704  1.00  0.00     0.241 C 
HETATM   15  O1  UNL     1      42.243  28.857  16.124  1.00  0.00    -0.271 OA
ATOM     16  H5  UNL     1      41.594  31.432  14.267  1.00  0.00     0.162 HD
BRANCH  14  17
HETATM   17  C14 UNL     1      43.037  31.044  16.508  1.00  0.00     0.270 C 
BRANCH  17  18
HETATM   18  O2  UNL     1      42.227  31.511  17.501  1.00  0.00    -0.382 OA
BRANCH  18  19
HETATM   19  C15 UNL     1      42.497  32.757  18.002  1.00  0.00     0.168 C 
BRANCH  19  20
HETATM   20  C16 UNL     1      41.415  33.717  17.637  1.00  0.00     0.027 C 
BRANCH  20  21
HETATM   21  C17 UNL     1      41.891  34.722  16.607  1.00  0.00     0.013 C 
BRANCH  21  22
HETATM   22  C18 UNL     1      41.384  34.422  15.218  1.00  0.00     0.085 C 
HETATM   23 BR1  UNL     1      39.692  33.469  15.355  1.00  0.00    -0.097 Br
ENDBRANCH  21  22
ENDBRANCH  20  21
ENDBRANCH  19  20
ENDBRANCH  18  19
ENDBRANCH  17  18
ENDBRANCH  14  17
ENDBRANCH  12  13
ENDBRANCH  11  12
ENDBRANCH  10  11
ENDBRANCH   3   4
BRANCH   1  24
HETATM   24  C3  UNL     1      34.768  28.380  16.446  1.00  0.00     0.128 A 
HETATM   25  N3  UNL     1      35.207  28.331  17.768  1.00  0.00    -0.337 N 
HETATM   26  C2  UNL     1      34.367  28.713  18.718  1.00  0.00     0.183 A 
ATOM     27  H3  UNL     1      36.148  28.011  17.997  1.00  0.00     0.168 HD
HETATM   28  N2  UNL     1      33.118  29.145  18.496  1.00  0.00    -0.340 N 
HETATM   29  C1  UNL     1      32.675  29.201  17.247  1.00  0.00     0.139 A 
ATOM     30  H2  UNL     1      32.519  29.425  19.272  1.00  0.00     0.167 HD
HETATM   31  N1  UNL     1      31.340  29.657  16.935  1.00  0.00    -0.081 NA
HETATM   32  C19 UNL     1      33.493  28.818  16.183  1.00  0.00     0.103 A 
BRANCH  32  33
HETATM   33  C20 UNL     1      32.933  28.892  14.838  1.00  0.00    -0.053 C 
HETATM   34  C21 UNL     1      32.491  28.927  13.719  1.00  0.00    -0.043 C 
BRANCH  34  35
HETATM   35  C22 UNL     1      31.989  28.962  12.372  1.00  0.00     0.086 A 
HETATM   36  C23 UNL     1      32.344  28.033  11.422  1.00  0.00     0.039 A 
HETATM   37  C24 UNL     1      31.861  28.074  10.128  1.00  0.00     0.004 A 
HETATM   38  C25 UNL     1      30.992  29.080   9.785  1.00  0.00     0.017 A 
HETATM   39  C26 UNL     1      30.640  30.005  10.734  1.00  0.00     0.089 A 
HETATM   40  N6  UNL     1      31.135  29.927  11.979  1.00  0.00    -0.359 N 
ATOM     41  H6  UNL     1      30.851  30.631  12.660  1.00  0.00     0.166 HD
ENDBRANCH  34  35
ENDBRANCH  32  33
ENDBRANCH   1  24
TORSDOF 13
ENDMDL
MODEL 2
REMARK VINA RESULT: -7.616829702      4.252      8.564
REMARK  13 active torsions:
REMARK  status: ('A' for Active; 'I' for Inactive)
REMARK    1  A    between atoms: C3_8  and  N4_9 
REMARK    2  A    between atoms: C4_11  and  C5_12 
REMARK    3  A    between atoms: C10_18  and  C11_19 
REMARK    4  A    between atoms: C11_19  and  C12_20 
REMARK    5  A    between atoms: C12_20  and  N5_21 
REMARK       I    between atoms: N5_21  and  C13_23 
REMARK    6  A    between atoms: C13_23  and  C14_25 
REMARK    7  A    between atoms: C14_25  and  O2_26 
REMARK    8  A    between atoms: O2_26  and  C15_27 
REMARK    9  A    between atoms: C15_27  and  C16_28 
REMARK   10  A    between atoms: C16_28  and  C17_29 
REMARK   11  A    between atoms: C17_29  and  C18_30 
REMARK   12  A    between atoms: C19_32  and  C20_33 
REMARK   13  A    between atoms: C21_34  and  C22_35 
ROOT
HETATM    1  N4  UNL     1      39.416  31.147  11.122  1.00  0.00    -0.350 N 
ATOM      2  H4  UNL     1      40.015  31.847  10.685  1.00  0.00     0.166 HD
HETATM    3  C4  UNL     1      40.211  30.053  11.282  1.00  0.00     0.101 C 
ENDROOT
BRANCH   3   4
HETATM    4  C5  UNL     1      40.898  29.934  12.600  1.00  0.00    -0.014 A 
HETATM    5  C6  UNL     1      42.149  30.499  12.765  1.00  0.00     0.016 A 
HETATM    6  C7  UNL     1      42.827  30.423  13.961  1.00  0.00     0.043 A 
HETATM    7  C8  UNL     1      42.257  29.776  15.015  1.00  0.00     0.117 A 
HETATM    8  F1  UNL     1      42.914  29.691  16.204  1.00  0.00    -0.206 F 
HETATM    9  C9  UNL     1      41.022  29.203  14.895  1.00  0.00     0.050 A 
HETATM   10  C10 UNL     1      40.344  29.286  13.673  1.00  0.00    -0.042 A 
BRANCH  10  11
HETATM   11  C11 UNL     1      39.034  28.656  13.614  1.00  0.00     0.059 C 
BRANCH  11  12
HETATM   12  C12 UNL     1      37.886  29.359  14.258  1.00  0.00     0.127 C 
BRANCH  12  13
HETATM   13  N5  UNL     1      37.382  28.734  15.466  1.00  0.00    -0.359 N 
HETATM   14  C13 UNL     1      36.121  28.109  15.544  1.00  0.00     0.241 C 
HETATM   15  O1  UNL     1      35.325  28.050  14.563  1.00  0.00    -0.271 OA
ATOM     16  H5  UNL     1      37.970  28.746  16.299  1.00  0.00     0.162 HD
BRANCH  14  17
HETATM   17  C14 UNL     1      35.656  27.471  16.825  1.00  0.00     0.270 C 
BRANCH  17  18
HETATM   18  O2  UNL     1      35.510  28.463  17.750  1.00  0.00    -0.382 OA
BRANCH  18  19
HETATM   19  C15 UNL     1      34.359  28.469  18.492  1.00  0.00     0.168 C 
BRANCH  19  20
HETATM   20  C16 UNL     1      33.168  28.261  17.618  1.00  0.00     0.027 C 
BRANCH  20  21
HETATM   21  C17 UNL     1      32.157  27.338  18.270  1.00  0.00     0.013 C 
BRANCH  21  22
HETATM   22  C18 UNL     1      31.481  27.963  19.466  1.00  0.00     0.085 C 
HETATM   23 BR1  UNL     1      29.755  28.676  18.915  1.00  0.00    -0.097 Br
ENDBRANCH  21  22
ENDBRANCH  20  21
ENDBRANCH  19  20
ENDBRANCH  18  19
ENDBRANCH  17  18
ENDBRANCH  14  17
ENDBRANCH  12  13
ENDBRANCH  11  12
ENDBRANCH  10  11
ENDBRANCH   3   4
BRANCH   1  24
HETATM   24  C3  UNL     1      38.330  31.695  11.249  1.00  0.00     0.128 A 
HETATM   25  N3  UNL     1      37.383  31.513  10.243  1.00  0.00    -0.337 N 
HETATM   26  C2  UNL     1      36.207  32.106  10.381  1.00  0.00     0.183 A 
ATOM     27  H3  UNL     1      37.589  30.940   9.426  1.00  0.00     0.168 HD
HETATM   28  N2  UNL     1      35.862  32.873  11.425  1.00  0.00    -0.340 N 
HETATM   29  C1  UNL     1      36.746  33.063  12.396  1.00  0.00     0.139 A 
ATOM     30  H2  UNL     1      34.939  33.303  11.472  1.00  0.00     0.167 HD
HETATM   31  N1  UNL     1      36.442  33.877  13.550  1.00  0.00    -0.081 NA
HETATM   32  C19 UNL     1      38.010  32.476  12.333  1.00  0.00     0.103 A 
BRANCH  32  33
HETATM   33  C20 UNL     1      38.934  32.741  13.430  1.00  0.00    -0.053 C 
HETATM   34  C21 UNL     1      39.670  32.970  14.355  1.00  0.00    -0.043 C 
BRANCH  34  35
HETATM   35  C22 UNL     1      40.533  33.267  15.465  1.00  0.00     0.086 A 
HETATM   36  C23 UNL     1      40.626  32.457  16.572  1.00  0.00     0.039 A 
HETATM   37  C24 UNL     1      41.456  32.749  17.638  1.00  0.00     0.004 A 
HETATM   38  C25 UNL     1      42.216  33.890  17.582  1.00  0.00     0.017 A 
HETATM   39  C26 UNL     1      42.122  34.697  16.477  1.00  0.00     0.089 A 
HETATM   40  N6  UNL     1      41.301  34.374  15.466  1.00  0.00    -0.359 N 
ATOM     41  H6  UNL     1      41.256  34.997  14.659  1.00  0.00     0.166 HD
ENDBRANCH  34  35
ENDBRANCH  32  33
ENDBRANCH   1  24
TORSDOF 13
ENDMDL
MODEL 3
REMARK VINA RESULT: -7.474986105      4.456     11.337
REMARK  13 active torsions:
REMARK  status: ('A' for Active; 'I' for Inactive)
REMARK    1  A    between atoms: C3_8  and  N4_9 
REMARK    2  A    between atoms: C4_11  and  C5_12 
REMARK    3  A    between atoms: C10_18  and  C11_19 
REMARK    4  A    between atoms: C11_19  and  C12_20 
REMARK    5  A    between atoms: C12_20  and  N5_21 
REMARK       I    between atoms: N5_21  and  C13_23 
REMARK    6  A    between atoms: C13_23  and  C14_25 
REMARK    7  A    between atoms: C14_25  and  O2_26 
REMARK    8  A    between atoms: O2_26  and  C15_27 
REMARK    9  A    between atoms: C15_27  and  C16_28 
REMARK   10  A    between atoms: C16_28  and  C17_29 
REMARK   11  A    between atoms: C17_29  and  C18_30 
REMARK   12  A    between atoms: C19_32  and  C20_33 
REMARK   13  A    between atoms: C21_34  and  C22_35 
ROOT
HETATM    1  N4  UNL     1      43.206  29.618  14.310  1.00  0.00    -0.350 N 
ATOM      2  H4  UNL     1      43.993  29.324  14.888  1.00  0.00     0.166 HD
HETATM    3  C4  UNL     1      42.123  29.562  15.133  1.00  0.00     0.101 C 
ENDROOT
BRANCH   3   4
HETATM    4  C5  UNL     1      41.769  30.831  15.833  1.00  0.00    -0.014 A 
HETATM    5  C6  UNL     1      42.532  31.247  16.907  1.00  0.00     0.016 A 
HETATM    6  C7  UNL     1      42.253  32.412  17.586  1.00  0.00     0.043 A 
HETATM    7  C8  UNL     1      41.199  33.180  17.195  1.00  0.00     0.117 A 
HETATM    8  F1  UNL     1      40.909  34.334  17.856  1.00  0.00    -0.206 F 
HETATM    9  C9  UNL     1      40.418  32.805  16.138  1.00  0.00     0.050 A 
HETATM   10  C10 UNL     1      40.712  31.618  15.457  1.00  0.00    -0.042 A 
BRANCH  10  11
HETATM   11  C11 UNL     1      39.843  31.278  14.341  1.00  0.00     0.059 C 
BRANCH  11  12
HETATM   12  C12 UNL     1      39.511  29.839  14.120  1.00  0.00     0.127 C 
BRANCH  12  13
HETATM   13  N5  UNL     1      38.289  29.386  14.756  1.00  0.00    -0.359 N 
HETATM   14  C13 UNL     1      37.035  29.392  14.112  1.00  0.00     0.241 C 
HETATM   15  O1  UNL     1      36.877  29.799  12.925  1.00  0.00    -0.271 OA
ATOM     16  H5  UNL     1      38.340  29.047  15.717  1.00  0.00     0.162 HD
BRANCH  14  17
HETATM   17  C14 UNL     1      35.802  28.904  14.824  1.00  0.00     0.270 C 
BRANCH  17  18
HETATM   18  O2  UNL     1      36.203  28.027  15.788  1.00  0.00    -0.382 OA
BRANCH  18  19
HETATM   19  C15 UNL     1      35.540  28.060  16.986  1.00  0.00     0.168 C 
BRANCH  19  20
HETATM   20  C16 UNL     1      34.340  28.940  16.899  1.00  0.00     0.027 C 
BRANCH  20  21
HETATM   21  C17 UNL     1      33.822  29.308  18.276  1.00  0.00     0.013 C 
BRANCH  21  22
HETATM   22  C18 UNL     1      33.439  28.103  19.099  1.00  0.00     0.085 C 
HETATM   23 BR1  UNL     1      31.799  27.341  18.379  1.00  0.00    -0.097 Br
ENDBRANCH  21  22
ENDBRANCH  20  21
ENDBRANCH  19  20
ENDBRANCH  18  19
ENDBRANCH  17  18
ENDBRANCH  14  17
ENDBRANCH  12  13
ENDBRANCH  11  12
ENDBRANCH  10  11
ENDBRANCH   3   4
BRANCH   1  24
HETATM   24  C3  UNL     1      43.691  29.851  13.212  1.00  0.00     0.128 A 
HETATM   25  N3  UNL     1      42.822  30.081  12.147  1.00  0.00    -0.337 N 
HETATM   26  C2  UNL     1      43.347  30.335  10.958  1.00  0.00     0.183 A 
ATOM     27  H3  UNL     1      41.812  30.057  12.280  1.00  0.00     0.168 HD
HETATM   28  N2  UNL     1      44.663  30.385  10.706  1.00  0.00    -0.340 N 
HETATM   29  C1  UNL     1      45.512  30.169  11.702  1.00  0.00     0.139 A 
ATOM     30  H2  UNL     1      45.005  30.585   9.766  1.00  0.00     0.167 HD
HETATM   31  N1  UNL     1      46.943  30.207  11.501  1.00  0.00    -0.081 NA
HETATM   32  C19 UNL     1      45.047  29.894  12.988  1.00  0.00     0.103 A 
BRANCH  32  33
HETATM   33  C20 UNL     1      46.038  29.652  14.029  1.00  0.00    -0.053 C 
HETATM   34  C21 UNL     1      46.882  29.451  14.864  1.00  0.00    -0.043 C 
BRANCH  34  35
HETATM   35  C22 UNL     1      47.902  29.193  15.844  1.00  0.00     0.086 A 
HETATM   36  C23 UNL     1      48.395  30.168  16.679  1.00  0.00     0.039 A 
HETATM   37  C24 UNL     1      49.377  29.913  17.618  1.00  0.00     0.004 A 
HETATM   38  C25 UNL     1      49.873  28.638  17.717  1.00  0.00     0.017 A 
HETATM   39  C26 UNL     1      49.381  27.667  16.883  1.00  0.00     0.089 A 
HETATM   40  N6  UNL     1      48.426  27.960  15.985  1.00  0.00    -0.359 N 
ATOM     41  H6  UNL     1      48.082  27.214  15.381  1.00  0.00     0.166 HD
ENDBRANCH  34  35
ENDBRANCH  32  33
ENDBRANCH   1  24
TORSDOF 13
ENDMDL
MODEL 4
REMARK VINA RESULT: -7.446812627      3.211      5.326
REMARK  13 active torsions:
REMARK  status: ('A' for Active; 'I' for Inactive)
REMARK    1  A    between atoms: C3_8  and  N4_9 
REMARK    2  A    between atoms: C4_11  and  C5_12 
REMARK    3  A    between atoms: C10_18  and  C11_19 
REMARK    4  A    between atoms: C11_19  and  C12_20 
REMARK    5  A    between atoms: C12_20  and  N5_21 
REMARK       I    between atoms: N5_21  and  C13_23 
REMARK    6  A    between atoms: C13_23  and  C14_25 
REMARK    7  A    between atoms: C14_25  and  O2_26 
REMARK    8  A    between atoms: O2_26  and  C15_27 
REMARK    9  A    between atoms: C15_27  and  C16_28 
REMARK   10  A    between atoms: C16_28  and  C17_29 
REMARK   11  A    between atoms: C17_29  and  C18_30 
REMARK   12  A    between atoms: C19_32  and  C20_33 
REMARK   13  A    between atoms: C21_34  and  C22_35 
ROOT
HETATM    1  N4  UNL     1      32.287  29.839  15.880  1.00  0.00    -0.350 N 
ATOM      2  H4  UNL     1      31.606  29.104  16.068  1.00  0.00     0.166 HD
HETATM    3  C4  UNL     1      33.397  29.186  15.436  1.00  0.00     0.101 C 
ENDROOT
BRANCH   3   4
HETATM    4  C5  UNL     1      33.516  29.032  13.957  1.00  0.00    -0.014 A 
HETATM    5  C6  UNL     1      32.506  28.397  13.259  1.00  0.00     0.016 A 
HETATM    6  C7  UNL     1      32.562  28.232  11.893  1.00  0.00     0.043 A 
HETATM    7  C8  UNL     1      33.638  28.704  11.205  1.00  0.00     0.117 A 
HETATM    8  F1  UNL     1      33.709  28.548   9.854  1.00  0.00    -0.206 F 
HETATM    9  C9  UNL     1      34.659  29.338  11.856  1.00  0.00     0.050 A 
HETATM   10  C10 UNL     1      34.589  29.498  13.245  1.00  0.00    -0.042 A 
BRANCH  10  11
HETATM   11  C11 UNL     1      35.708  30.183  13.875  1.00  0.00     0.059 C 
BRANCH  11  12
HETATM   12  C12 UNL     1      37.002  29.450  13.998  1.00  0.00     0.127 C 
BRANCH  12  13
HETATM   13  N5  UNL     1      38.136  30.266  14.387  1.00  0.00    -0.359 N 
HETATM   14  C13 UNL     1      39.464  29.794  14.387  1.00  0.00     0.241 C 
HETATM   15  O1  UNL     1      39.771  28.615  14.049  1.00  0.00    -0.271 OA
ATOM     16  H5  UNL     1      37.963  31.229  14.675  1.00  0.00     0.162 HD
BRANCH  14  17
HETATM   17  C14 UNL     1      40.600  30.692  14.796  1.00  0.00     0.270 C 
BRANCH  17  18
HETATM   18  O2  UNL     1      40.745  30.584  16.148  1.00  0.00    -0.382 OA
BRANCH  18  19
HETATM   19  C15 UNL     1      40.915  31.742  16.859  1.00  0.00     0.168 C 
BRANCH  19  20
HETATM   20  C16 UNL     1      42.336  31.893  17.286  1.00  0.00     0.027 C 
BRANCH  20  21
HETATM   21  C17 UNL     1      42.615  33.295  17.791  1.00  0.00     0.013 C 
BRANCH  21  22
HETATM   22  C18 UNL     1      41.612  34.307  17.296  1.00  0.00     0.085 C 
HETATM   23 BR1  UNL     1      42.558  35.737  16.374  1.00  0.00    -0.097 Br
ENDBRANCH  21  22
ENDBRANCH  20  21
ENDBRANCH  19  20
ENDBRANCH  18  19
ENDBRANCH  17  18
ENDBRANCH  14  17
ENDBRANCH  12  13
ENDBRANCH  11  12
ENDBRANCH  10  11
ENDBRANCH   3   4
BRANCH   1  24
HETATM   24  C3  UNL     1      31.713  30.881  16.161  1.00  0.00     0.128 A 
HETATM   25  N3  UNL     1      32.116  32.047  15.512  1.00  0.00    -0.337 N 
HETATM   26  C2  UNL     1      31.494  33.175  15.816  1.00  0.00     0.183 A 
ATOM     27  H3  UNL     1      32.867  32.031  14.824  1.00  0.00     0.168 HD
HETATM   28  N2  UNL     1      30.498  33.276  16.708  1.00  0.00    -0.340 N 
HETATM   29  C1  UNL     1      30.095  32.181  17.340  1.00  0.00     0.139 A 
ATOM     30  H2  UNL     1      30.058  34.176  16.898  1.00  0.00     0.167 HD
HETATM   31  N1  UNL     1      29.028  32.216  18.314  1.00  0.00    -0.081 NA
HETATM   32  C19 UNL     1      30.695  30.948  17.082  1.00  0.00     0.103 A 
BRANCH  32  33
HETATM   33  C20 UNL     1      30.210  29.791  17.825  1.00  0.00    -0.053 C 
HETATM   34  C21 UNL     1      29.809  28.818  18.409  1.00  0.00    -0.043 C 
BRANCH  34  35
HETATM   35  C22 UNL     1      29.312  27.650  19.084  1.00  0.00     0.086 A 
HETATM   36  C23 UNL     1      27.971  27.354  19.168  1.00  0.00     0.039 A 
HETATM   37  C24 UNL     1      27.499  26.230  19.819  1.00  0.00     0.004 A 
HETATM   38  C25 UNL     1      28.407  25.382  20.402  1.00  0.00     0.017 A 
HETATM   39  C26 UNL     1      29.743  25.679  20.319  1.00  0.00     0.089 A 
HETATM   40  N6  UNL     1      30.156  26.782  19.675  1.00  0.00    -0.359 N 
ATOM     41  H6  UNL     1      31.157  26.972  19.631  1.00  0.00     0.166 HD
ENDBRANCH  34  35
ENDBRANCH  32  33
ENDBRANCH   1  24
TORSDOF 13
ENDMDL
MODEL 5
REMARK VINA RESULT: -7.407969538      3.977     10.532
REMARK  13 active torsions:
REMARK  status: ('A' for Active; 'I' for Inactive)
REMARK    1  A    between atoms: C3_8  and  N4_9 
REMARK    2  A    between atoms: C4_11  and  C5_12 
REMARK    3  A    between atoms: C10_18  and  C11_19 
REMARK    4  A    between atoms: C11_19  and  C12_20 
REMARK    5  A    between atoms: C12_20  and  N5_21 
REMARK       I    between atoms: N5_21  and  C13_23 
REMARK    6  A    between atoms: C13_23  and  C14_25 
REMARK    7  A    between atoms: C14_25  and  O2_26 
REMARK    8  A    between atoms: O2_26  and  C15_27 
REMARK    9  A    between atoms: C15_27  and  C16_28 
REMARK   10  A    between atoms: C16_28  and  C17_29 
REMARK   11  A    between atoms: C17_29  and  C18_30 
REMARK   12  A    between atoms: C19_32  and  C20_33 
REMARK   13  A    between atoms: C21_34  and  C22_35 
ROOT
HETATM    1  N4  UNL     1      41.466  30.095  14.583  1.00  0.00    -0.350 N 
ATOM      2  H4  UNL     1      42.181  29.533  15.043  1.00  0.00     0.166 HD
HETATM    3  C4  UNL     1      40.728  30.625  15.597  1.00  0.00     0.101 C 
ENDROOT
BRANCH   3   4
HETATM    4  C5  UNL     1      41.144  31.978  16.068  1.00  0.00    -0.014 A 
HETATM    5  C6  UNL     1      41.900  32.092  17.219  1.00  0.00     0.016 A 
HETATM    6  C7  UNL     1      42.315  33.315  17.696  1.00  0.00     0.043 A 
HETATM    7  C8  UNL     1      41.974  34.448  17.022  1.00  0.00     0.117 A 
HETATM    8  F1  UNL     1      42.376  35.665  17.481  1.00  0.00    -0.206 F 
HETATM    9  C9  UNL     1      41.227  34.381  15.879  1.00  0.00     0.050 A 
HETATM   10  C10 UNL     1      40.811  33.130  15.406  1.00  0.00    -0.042 A 
BRANCH  10  11
HETATM   11  C11 UNL     1      40.020  33.130  14.185  1.00  0.00     0.059 C 
BRANCH  11  12
HETATM   12  C12 UNL     1      38.555  33.395  14.295  1.00  0.00     0.127 C 
BRANCH  12  13
HETATM   13  N5  UNL     1      37.725  32.214  14.423  1.00  0.00    -0.359 N 
HETATM   14  C13 UNL     1      37.422  31.362  13.341  1.00  0.00     0.241 C 
HETATM   15  O1  UNL     1      37.850  31.566  12.169  1.00  0.00    -0.271 OA
ATOM     16  H5  UNL     1      37.342  31.987  15.340  1.00  0.00     0.162 HD
BRANCH  14  17
HETATM   17  C14 UNL     1      36.558  30.145  13.537  1.00  0.00     0.270 C 
BRANCH  17  18
HETATM   18  O2  UNL     1      35.578  30.475  14.426  1.00  0.00    -0.382 OA
BRANCH  18  19
HETATM   19  C15 UNL     1      34.282  30.245  14.050  1.00  0.00     0.168 C 
BRANCH  19  20
HETATM   20  C16 UNL     1      34.168  28.951  13.319  1.00  0.00     0.027 C 
BRANCH  20  21
HETATM   21  C17 UNL     1      32.720  28.524  13.172  1.00  0.00     0.013 C 
BRANCH  21  22
HETATM   22  C18 UNL     1      32.425  27.907  11.827  1.00  0.00     0.085 C 
HETATM   23 BR1  UNL     1      33.524  28.780  10.476  1.00  0.00    -0.097 Br
ENDBRANCH  21  22
ENDBRANCH  20  21
ENDBRANCH  19  20
ENDBRANCH  18  19
ENDBRANCH  17  18
ENDBRANCH  14  17
ENDBRANCH  12  13
ENDBRANCH  11  12
ENDBRANCH  10  11
ENDBRANCH   3   4
BRANCH   1  24
HETATM   24  C3  UNL     1      41.684  29.968  13.387  1.00  0.00     0.128 A 
HETATM   25  N3  UNL     1      40.592  29.914  12.523  1.00  0.00    -0.337 N 
HETATM   26  C2  UNL     1      40.828  29.777  11.227  1.00  0.00     0.183 A 
ATOM     27  H3  UNL     1      39.639  29.978  12.878  1.00  0.00     0.168 HD
HETATM   28  N2  UNL     1      42.051  29.686  10.685  1.00  0.00    -0.340 N 
HETATM   29  C1  UNL     1      43.108  29.735  11.485  1.00  0.00     0.139 A 
ATOM     30  H2  UNL     1      42.167  29.581   9.678  1.00  0.00     0.167 HD
HETATM   31  N1  UNL     1      44.455  29.643  10.969  1.00  0.00    -0.081 NA
HETATM   32  C19 UNL     1      42.952  29.877  12.864  1.00  0.00     0.103 A 
BRANCH  32  33
HETATM   33  C20 UNL     1      44.159  29.908  13.682  1.00  0.00    -0.053 C 
HETATM   34  C21 UNL     1      45.151  29.899  14.364  1.00  0.00    -0.043 C 
BRANCH  34  35
HETATM   35  C22 UNL     1      46.322  29.872  15.198  1.00  0.00     0.086 A 
HETATM   36  C23 UNL     1      46.788  30.982  15.862  1.00  0.00     0.039 A 
HETATM   37  C24 UNL     1      47.915  30.950  16.661  1.00  0.00     0.004 A 
HETATM   38  C25 UNL     1      48.590  29.762  16.794  1.00  0.00     0.017 A 
HETATM   39  C26 UNL     1      48.124  28.656  16.130  1.00  0.00     0.089 A 
HETATM   40  N6  UNL     1      47.024  28.734  15.365  1.00  0.00    -0.359 N 
ATOM     41  H6  UNL     1      46.705  27.892  14.886  1.00  0.00     0.166 HD
ENDBRANCH  34  35
ENDBRANCH  32  33
ENDBRANCH   1  24
TORSDOF 13
ENDMDL
