MODEL 1
REMARK VINA RESULT: -5.810956605      0.000      0.000
REMARK  1 active torsions:
REMARK  status: ('A' for Active; 'I' for Inactive)
REMARK    1  A    between atoms: N1_5  and  N2_7 
ROOT
HETATM    1  C1  UNL     1       5.371  17.149  20.177  1.00  0.00     0.021 C 
HETATM    2  C2  UNL     1       5.590  18.189  21.204  1.00  0.00    -0.002 C 
HETATM    3  C3  UNL     1       6.593  17.655  22.209  1.00  0.00     0.021 C 
HETATM    4  C4  UNL     1       4.325  18.636  21.900  1.00  0.00     0.018 C 
HETATM    5  N1  UNL     1       3.412  17.962  22.461  1.00  0.00    -0.308 N 
ATOM      6  H1  UNL     1       2.625  18.458  22.881  1.00  0.00     0.186 HD
HETATM    7  C11 UNL     1       4.408  20.122  21.764  1.00  0.00     0.051 C 
HETATM    8  C12 UNL     1       4.682  20.230  20.254  1.00  0.00    -0.033 C 
HETATM    9  C13 UNL     1       3.742  19.484  19.407  1.00  0.00     0.016 C 
HETATM   10  C14 UNL     1       4.937  21.618  19.764  1.00  0.00     0.016 C 
HETATM   11  C15 UNL     1       5.986  19.547  20.661  1.00  0.00     0.017 C 
HETATM   12  C16 UNL     1       5.849  20.393  21.891  1.00  0.00    -0.025 A 
HETATM   13  C17 UNL     1       6.666  20.440  23.043  1.00  0.00     0.011 A 
HETATM   14  C18 UNL     1       6.489  21.657  22.120  1.00  0.00     0.011 A 
ENDROOT
BRANCH   5  15
HETATM   15  N2  UNL     1       3.438  16.570  22.529  1.00  0.00    -0.309 N 
HETATM   16  C5  UNL     1       2.835  15.901  21.606  1.00  0.00     0.003 C 
HETATM   17  C6  UNL     1       2.136  16.573  20.508  1.00  0.00     0.054 C 
HETATM   18  C10 UNL     1       2.814  14.405  21.605  1.00  0.00     0.054 C 
HETATM   19  C7  UNL     1       0.707  16.093  20.472  1.00  0.00     0.006 C 
HETATM   20  C8  UNL     1       0.605  14.598  20.483  1.00  0.00     0.001 C 
HETATM   21  C9  UNL     1       1.383  13.966  21.606  1.00  0.00     0.006 C 
ATOM     22  H2  UNL     1       3.922  16.092  23.289  1.00  0.00     0.186 HD
ENDBRANCH   5  15
TORSDOF 1
ENDMDL
MODEL 2
REMARK VINA RESULT: -5.484041665      2.329      3.635
REMARK  1 active torsions:
REMARK  status: ('A' for Active; 'I' for Inactive)
REMARK    1  A    between atoms: N1_5  and  N2_7 
ROOT
HETATM    1  C1  UNL     1       4.849  19.856  18.247  1.00  0.00     0.021 C 
HETATM    2  C2  UNL     1       4.493  19.311  19.573  1.00  0.00    -0.002 C 
HETATM    3  C3  UNL     1       4.016  17.883  19.384  1.00  0.00     0.021 C 
HETATM    4  C4  UNL     1       3.455  20.126  20.310  1.00  0.00     0.018 C 
HETATM    5  N1  UNL     1       2.322  20.549  19.935  1.00  0.00    -0.308 N 
ATOM      6  H1  UNL     1       1.761  21.092  20.591  1.00  0.00     0.186 HD
HETATM    7  C11 UNL     1       4.108  20.325  21.640  1.00  0.00     0.051 C 
HETATM    8  C12 UNL     1       5.484  20.837  21.180  1.00  0.00    -0.033 C 
HETATM    9  C13 UNL     1       5.434  21.958  20.231  1.00  0.00     0.016 C 
HETATM   10  C14 UNL     1       6.472  21.046  22.282  1.00  0.00     0.016 C 
HETATM   11  C15 UNL     1       5.584  19.420  20.620  1.00  0.00     0.017 C 
HETATM   12  C16 UNL     1       4.822  19.057  21.859  1.00  0.00    -0.025 A 
HETATM   13  C17 UNL     1       4.330  17.799  22.274  1.00  0.00     0.011 A 
HETATM   14  C18 UNL     1       5.388  18.567  23.083  1.00  0.00     0.011 A 
ENDROOT
BRANCH   5  15
HETATM   15  N2  UNL     1       1.810  20.302  18.662  1.00  0.00    -0.309 N 
HETATM   16  C5  UNL     1       0.834  19.467  18.547  1.00  0.00     0.003 C 
HETATM   17  C6  UNL     1       0.268  18.788  19.715  1.00  0.00     0.054 C 
HETATM   18  C10 UNL     1       0.227  19.145  17.218  1.00  0.00     0.054 C 
HETATM   19  C7  UNL     1       0.323  17.298  19.488  1.00  0.00     0.006 C 
HETATM   20  C8  UNL     1      -0.257  16.899  18.164  1.00  0.00     0.001 C 
HETATM   21  C9  UNL     1       0.332  17.666  17.011  1.00  0.00     0.006 C 
ATOM     22  H2  UNL     1       2.197  20.770  17.843  1.00  0.00     0.186 HD
ENDBRANCH   5  15
TORSDOF 1
ENDMDL
MODEL 3
REMARK VINA RESULT: -5.352694565      1.981      2.624
REMARK  1 active torsions:
REMARK  status: ('A' for Active; 'I' for Inactive)
REMARK    1  A    between atoms: N1_5  and  N2_7 
ROOT
HETATM    1  C1  UNL     1       5.207  17.526  20.795  1.00  0.00     0.021 C 
HETATM    2  C2  UNL     1       4.893  18.799  21.475  1.00  0.00    -0.002 C 
HETATM    3  C3  UNL     1       4.307  18.474  22.836  1.00  0.00     0.021 C 
HETATM    4  C4  UNL     1       3.958  19.694  20.693  1.00  0.00     0.018 C 
HETATM    5  N1  UNL     1       2.837  19.448  20.159  1.00  0.00    -0.308 N 
ATOM      6  H1  UNL     1       2.355  20.200  19.666  1.00  0.00     0.186 HD
HETATM    7  C11 UNL     1       4.699  20.992  20.700  1.00  0.00     0.051 C 
HETATM    8  C12 UNL     1       6.078  20.506  20.221  1.00  0.00    -0.033 C 
HETATM    9  C13 UNL     1       6.051  19.703  18.992  1.00  0.00     0.016 C 
HETATM   10  C14 UNL     1       7.141  21.557  20.211  1.00  0.00     0.016 C 
HETATM   11  C15 UNL     1       6.047  19.777  21.563  1.00  0.00     0.017 C 
HETATM   12  C16 UNL     1       5.335  21.012  22.027  1.00  0.00    -0.025 A 
HETATM   13  C17 UNL     1       4.783  21.307  23.294  1.00  0.00     0.011 A 
HETATM   14  C18 UNL     1       5.936  22.130  22.698  1.00  0.00     0.011 A 
ENDROOT
BRANCH   5  15
HETATM   15  N2  UNL     1       2.236  18.192  20.216  1.00  0.00    -0.309 N 
HETATM   16  C5  UNL     1       1.451  17.845  19.253  1.00  0.00     0.003 C 
HETATM   17  C6  UNL     1       1.188  18.739  18.123  1.00  0.00     0.054 C 
HETATM   18  C10 UNL     1       0.766  16.516  19.238  1.00  0.00     0.054 C 
HETATM   19  C7  UNL     1      -0.302  18.945  18.000  1.00  0.00     0.006 C 
HETATM   20  C8  UNL     1      -1.060  17.652  17.991  1.00  0.00     0.001 C 
HETATM   21  C9  UNL     1      -0.709  16.759  19.152  1.00  0.00     0.006 C 
ATOM     22  H2  UNL     1       2.413  17.562  20.998  1.00  0.00     0.186 HD
ENDBRANCH   5  15
TORSDOF 1
ENDMDL
MODEL 4
REMARK VINA RESULT: -5.124779702      1.320      5.634
REMARK  1 active torsions:
REMARK  status: ('A' for Active; 'I' for Inactive)
REMARK    1  A    between atoms: N1_5  and  N2_7 
ROOT
HETATM    1  C1  UNL     1       5.554  16.648  20.426  1.00  0.00     0.021 C 
HETATM    2  C2  UNL     1       4.302  17.424  20.325  1.00  0.00    -0.002 C 
HETATM    3  C3  UNL     1       4.559  18.619  19.426  1.00  0.00     0.021 C 
HETATM    4  C4  UNL     1       3.752  17.872  21.660  1.00  0.00     0.018 C 
HETATM    5  N1  UNL     1       4.312  18.480  22.619  1.00  0.00    -0.308 N 
ATOM      6  H1  UNL     1       3.760  18.695  23.450  1.00  0.00     0.186 HD
HETATM    7  C11 UNL     1       2.334  17.407  21.580  1.00  0.00     0.051 C 
HETATM    8  C12 UNL     1       2.563  15.946  21.152  1.00  0.00    -0.033 C 
HETATM    9  C13 UNL     1       3.514  15.205  21.992  1.00  0.00     0.016 C 
HETATM   10  C14 UNL     1       1.315  15.178  20.863  1.00  0.00     0.016 C 
HETATM   11  C15 UNL     1       3.090  16.626  19.890  1.00  0.00     0.017 C 
HETATM   12  C16 UNL     1       1.992  17.608  20.163  1.00  0.00    -0.025 A 
HETATM   13  C17 UNL     1       1.655  18.794  19.470  1.00  0.00     0.011 A 
HETATM   14  C18 UNL     1       0.688  17.603  19.563  1.00  0.00     0.011 A 
ENDROOT
BRANCH   5  15
HETATM   15  N2  UNL     1       5.650  18.869  22.585  1.00  0.00    -0.309 N 
HETATM   16  C5  UNL     1       5.924  20.093  22.285  1.00  0.00     0.003 C 
HETATM   17  C6  UNL     1       4.867  21.061  21.986  1.00  0.00     0.054 C 
HETATM   18  C10 UNL     1       7.333  20.591  22.226  1.00  0.00     0.054 C 
HETATM   19  C7  UNL     1       5.127  21.664  20.628  1.00  0.00     0.006 C 
HETATM   20  C8  UNL     1       6.529  22.175  20.488  1.00  0.00     0.001 C 
HETATM   21  C9  UNL     1       7.566  21.149  20.856  1.00  0.00     0.006 C 
ATOM     22  H2  UNL     1       6.393  18.202  22.792  1.00  0.00     0.186 HD
ENDBRANCH   5  15
TORSDOF 1
ENDMDL
MODEL 5
REMARK VINA RESULT: -4.563395847      1.617      5.573
REMARK  1 active torsions:
REMARK  status: ('A' for Active; 'I' for Inactive)
REMARK    1  A    between atoms: N1_5  and  N2_7 
ROOT
HETATM    1  C1  UNL     1       4.871  17.198  19.492  1.00  0.00     0.021 C 
HETATM    2  C2  UNL     1       3.796  18.208  19.579  1.00  0.00    -0.002 C 
HETATM    3  C3  UNL     1       4.324  19.509  19.003  1.00  0.00     0.021 C 
HETATM    4  C4  UNL     1       3.271  18.421  20.981  1.00  0.00     0.018 C 
HETATM    5  N1  UNL     1       3.884  18.658  22.063  1.00  0.00    -0.308 N 
ATOM      6  H1  UNL     1       3.339  18.771  22.918  1.00  0.00     0.186 HD
HETATM    7  C11 UNL     1       1.797  18.279  20.781  1.00  0.00     0.051 C 
HETATM    8  C12 UNL     1       1.766  16.948  20.008  1.00  0.00    -0.033 C 
HETATM    9  C13 UNL     1       2.512  15.854  20.644  1.00  0.00     0.016 C 
HETATM   10  C14 UNL     1       0.412  16.535  19.531  1.00  0.00     0.016 C 
HETATM   11  C15 UNL     1       2.480  17.793  18.954  1.00  0.00     0.017 C 
HETATM   12  C16 UNL     1       1.576  18.879  19.455  1.00  0.00    -0.025 A 
HETATM   13  C17 UNL     1       1.509  20.238  19.074  1.00  0.00     0.011 A 
HETATM   14  C18 UNL     1       0.329  19.276  18.866  1.00  0.00     0.011 A 
ENDROOT
BRANCH   5  15
HETATM   15  N2  UNL     1       5.271  18.770  22.133  1.00  0.00    -0.309 N 
HETATM   16  C5  UNL     1       5.794  19.947  22.060  1.00  0.00     0.003 C 
HETATM   17  C6  UNL     1       4.963  21.144  21.908  1.00  0.00     0.054 C 
HETATM   18  C10 UNL     1       7.273  20.156  22.127  1.00  0.00     0.054 C 
HETATM   19  C7  UNL     1       5.416  21.901  20.684  1.00  0.00     0.006 C 
HETATM   20  C8  UNL     1       6.897  22.137  20.673  1.00  0.00     0.001 C 
HETATM   21  C9  UNL     1       7.692  20.876  20.882  1.00  0.00     0.006 C 
ATOM     22  H2  UNL     1       5.858  17.943  22.239  1.00  0.00     0.186 HD
ENDBRANCH   5  15
TORSDOF 1
ENDMDL
