MODEL 1
REMARK VINA RESULT: -8.922817053      0.000      0.000
REMARK  2 active torsions:
REMARK  status: ('A' for Active; 'I' for Inactive)
REMARK    1  A    between atoms: C2_2  and  O1_5 
REMARK    2  A    between atoms: O1_5  and  C5_6 
ROOT
HETATM    1  C5  UNL     1       4.841  18.622  21.251  1.00  0.00     0.157 C 
HETATM    2  C6  UNL     1       5.396  17.547  20.372  1.00  0.00     0.064 C 
HETATM    3  C7  UNL     1       4.560  16.350  20.807  1.00  0.00     0.275 C 
HETATM    4  N1  UNL     1       3.246  16.893  21.041  1.00  0.00     0.095 N 
HETATM    5  C8  UNL     1       2.610  16.186  22.157  1.00  0.00     0.273 C 
HETATM    6  C9  UNL     1       2.652  14.720  22.086  1.00  0.00     0.030 C 
HETATM    7  C10 UNL     1       1.398  14.002  21.539  1.00  0.00     0.002 C 
HETATM    8  C11 UNL     1       0.898  14.836  20.492  1.00  0.00     0.000 C 
HETATM    9  C12 UNL     1      -0.119  14.671  19.487  1.00  0.00     0.000 C 
HETATM   10  C13 UNL     1       0.064  15.800  18.443  1.00  0.00     0.000 C 
HETATM   11  C14 UNL     1      -0.351  17.138  18.822  1.00  0.00     0.000 C 
HETATM   12  C15 UNL     1       0.646  18.295  18.564  1.00  0.00     0.000 C 
HETATM   13  C16 UNL     1       1.679  18.195  19.555  1.00  0.00     0.002 C 
HETATM   14  C17 UNL     1       2.703  19.096  20.019  1.00  0.00     0.038 C 
HETATM   15  C18 UNL     1       3.362  18.297  21.186  1.00  0.00     0.251 C 
ENDROOT
BRANCH   1  16
HETATM   16  O1  UNL     1       5.030  19.892  20.808  1.00  0.00    -0.374 OA
BRANCH  16  17
HETATM   17  C2  UNL     1       5.970  20.641  21.451  1.00  0.00     0.050 C 
HETATM   18  C1  UNL     1       6.732  21.436  20.383  1.00  0.00     0.045 C 
HETATM   19  C3  UNL     1       5.231  21.701  22.279  1.00  0.00     0.045 C 
HETATM   20  C4  UNL     1       6.876  19.925  22.375  1.00  0.00     0.045 C 
ENDBRANCH  16  17
ENDBRANCH   1  16
TORSDOF 2
ENDMDL
MODEL 2
REMARK VINA RESULT: -8.384820121      0.854      1.345
REMARK  2 active torsions:
REMARK  status: ('A' for Active; 'I' for Inactive)
REMARK    1  A    between atoms: C2_2  and  O1_5 
REMARK    2  A    between atoms: O1_5  and  C5_6 
ROOT
HETATM    1  C5  UNL     1       4.666  19.121  20.889  1.00  0.00     0.157 C 
HETATM    2  C6  UNL     1       5.190  18.099  19.932  1.00  0.00     0.064 C 
HETATM    3  C7  UNL     1       4.257  16.927  20.212  1.00  0.00     0.275 C 
HETATM    4  N1  UNL     1       2.972  17.536  20.444  1.00  0.00     0.095 N 
HETATM    5  C8  UNL     1       2.237  16.773  21.457  1.00  0.00     0.273 C 
HETATM    6  C9  UNL     1       2.186  15.321  21.244  1.00  0.00     0.030 C 
HETATM    7  C10 UNL     1       0.915  14.748  20.577  1.00  0.00     0.002 C 
HETATM    8  C11 UNL     1       0.523  15.712  19.598  1.00  0.00     0.000 C 
HETATM    9  C12 UNL     1      -0.454  15.715  18.540  1.00  0.00     0.000 C 
HETATM   10  C13 UNL     1      -0.146  16.923  17.620  1.00  0.00     0.000 C 
HETATM   11  C14 UNL     1      -0.490  18.244  18.112  1.00  0.00     0.000 C 
HETATM   12  C15 UNL     1       0.593  19.348  18.011  1.00  0.00     0.000 C 
HETATM   13  C16 UNL     1       1.568  19.081  19.029  1.00  0.00     0.002 C 
HETATM   14  C17 UNL     1       2.625  19.860  19.622  1.00  0.00     0.038 C 
HETATM   15  C18 UNL     1       3.173  18.908  20.731  1.00  0.00     0.251 C 
ENDROOT
BRANCH   1  16
HETATM   16  O1  UNL     1       4.959  20.411  20.581  1.00  0.00    -0.374 OA
BRANCH  16  17
HETATM   17  C2  UNL     1       5.945  21.014  21.304  1.00  0.00     0.050 C 
HETATM   18  C1  UNL     1       5.266  21.944  22.318  1.00  0.00     0.045 C 
HETATM   19  C3  UNL     1       6.624  19.931  22.153  1.00  0.00     0.045 C 
HETATM   20  C4  UNL     1       7.011  21.696  20.539  1.00  0.00     0.045 C 
ENDBRANCH  16  17
ENDBRANCH   1  16
TORSDOF 2
ENDMDL
MODEL 3
REMARK VINA RESULT: -7.941956114      1.207      3.352
REMARK  2 active torsions:
REMARK  status: ('A' for Active; 'I' for Inactive)
REMARK    1  A    between atoms: C2_2  and  O1_5 
REMARK    2  A    between atoms: O1_5  and  C5_6 
ROOT
HETATM    1  C5  UNL     1       3.801  19.968  19.795  1.00  0.00     0.157 C 
HETATM    2  C6  UNL     1       2.492  20.427  20.352  1.00  0.00     0.064 C 
HETATM    3  C7  UNL     1       1.514  19.636  19.492  1.00  0.00     0.275 C 
HETATM    4  N1  UNL     1       2.146  18.355  19.311  1.00  0.00     0.095 N 
HETATM    5  C8  UNL     1       1.836  17.833  17.976  1.00  0.00     0.273 C 
HETATM    6  C9  UNL     1       0.417  17.863  17.598  1.00  0.00     0.030 C 
HETATM    7  C10 UNL     1      -0.390  16.557  17.776  1.00  0.00     0.002 C 
HETATM    8  C11 UNL     1       0.103  15.956  18.975  1.00  0.00     0.000 C 
HETATM    9  C12 UNL     1      -0.325  14.840  19.778  1.00  0.00     0.000 C 
HETATM   10  C13 UNL     1       0.425  14.920  21.131  1.00  0.00     0.000 C 
HETATM   11  C14 UNL     1       1.828  14.550  21.141  1.00  0.00     0.000 C 
HETATM   12  C15 UNL     1       2.817  15.520  21.836  1.00  0.00     0.000 C 
HETATM   13  C16 UNL     1       2.987  16.648  20.967  1.00  0.00     0.002 C 
HETATM   14  C17 UNL     1       3.952  17.717  20.902  1.00  0.00     0.038 C 
HETATM   15  C18 UNL     1       3.523  18.489  19.615  1.00  0.00     0.251 C 
ENDROOT
BRANCH   1  16
HETATM   16  O1  UNL     1       4.869  20.116  20.622  1.00  0.00    -0.374 OA
BRANCH  16  17
HETATM   17  C2  UNL     1       5.419  21.359  20.711  1.00  0.00     0.050 C 
HETATM   18  C1  UNL     1       5.239  21.838  22.157  1.00  0.00     0.045 C 
HETATM   19  C3  UNL     1       6.936  21.209  20.531  1.00  0.00     0.045 C 
HETATM   20  C4  UNL     1       4.964  22.363  19.724  1.00  0.00     0.045 C 
ENDBRANCH  16  17
ENDBRANCH   1  16
TORSDOF 2
ENDMDL
MODEL 4
REMARK VINA RESULT: -6.354253002      2.056      6.150
REMARK  2 active torsions:
REMARK  status: ('A' for Active; 'I' for Inactive)
REMARK    1  A    between atoms: C2_2  and  O1_5 
REMARK    2  A    between atoms: O1_5  and  C5_6 
ROOT
HETATM    1  C5  UNL     1       1.416  17.777  18.929  1.00  0.00     0.157 C 
HETATM    2  C6  UNL     1       1.052  17.726  20.378  1.00  0.00     0.064 C 
HETATM    3  C7  UNL     1       2.401  17.408  21.010  1.00  0.00     0.275 C 
HETATM    4  N1  UNL     1       3.352  18.157  20.228  1.00  0.00     0.095 N 
HETATM    5  C8  UNL     1       4.606  17.406  20.120  1.00  0.00     0.273 C 
HETATM    6  C9  UNL     1       5.144  16.883  21.383  1.00  0.00     0.030 C 
HETATM    7  C10 UNL     1       6.252  17.709  22.075  1.00  0.00     0.002 C 
HETATM    8  C11 UNL     1       5.906  19.079  21.861  1.00  0.00     0.000 C 
HETATM    9  C12 UNL     1       6.412  20.325  22.374  1.00  0.00     0.000 C 
HETATM   10  C13 UNL     1       5.385  21.430  22.022  1.00  0.00     0.000 C 
HETATM   11  C14 UNL     1       5.330  21.877  20.642  1.00  0.00     0.000 C 
HETATM   12  C15 UNL     1       3.934  21.959  19.974  1.00  0.00     0.000 C 
HETATM   13  C16 UNL     1       3.518  20.616  19.692  1.00  0.00     0.002 C 
HETATM   14  C17 UNL     1       2.492  20.047  18.856  1.00  0.00     0.038 C 
HETATM   15  C18 UNL     1       2.739  18.513  19.001  1.00  0.00     0.251 C 
ENDROOT
BRANCH   1  16
HETATM   16  O1  UNL     1       0.565  18.483  18.139  1.00  0.00    -0.374 OA
BRANCH  16  17
HETATM   17  C2  UNL     1      -0.349  17.773  17.420  1.00  0.00     0.050 C 
HETATM   18  C1  UNL     1      -1.655  18.578  17.416  1.00  0.00     0.045 C 
HETATM   19  C3  UNL     1       0.116  17.765  15.958  1.00  0.00     0.045 C 
HETATM   20  C4  UNL     1      -0.558  16.362  17.815  1.00  0.00     0.045 C 
ENDBRANCH  16  17
ENDBRANCH   1  16
TORSDOF 2
ENDMDL
MODEL 5
REMARK VINA RESULT: -6.333501738      1.465      3.488
REMARK  2 active torsions:
REMARK  status: ('A' for Active; 'I' for Inactive)
REMARK    1  A    between atoms: C2_2  and  O1_5 
REMARK    2  A    between atoms: O1_5  and  C5_6 
ROOT
HETATM    1  C5  UNL     1       2.719  20.017  19.687  1.00  0.00     0.157 C 
HETATM    2  C6  UNL     1       1.303  20.249  20.107  1.00  0.00     0.064 C 
HETATM    3  C7  UNL     1       0.559  19.315  19.162  1.00  0.00     0.275 C 
HETATM    4  N1  UNL     1       1.409  18.157  19.054  1.00  0.00     0.095 N 
HETATM    5  C8  UNL     1       1.323  17.602  17.699  1.00  0.00     0.273 C 
HETATM    6  C9  UNL     1      -0.037  17.401  17.182  1.00  0.00     0.030 C 
HETATM    7  C10 UNL     1      -0.631  15.978  17.289  1.00  0.00     0.002 C 
HETATM    8  C11 UNL     1      -0.167  15.457  18.536  1.00  0.00     0.000 C 
HETATM    9  C12 UNL     1      -0.482  14.279  19.302  1.00  0.00     0.000 C 
HETATM   10  C13 UNL     1       0.107  14.470  20.721  1.00  0.00     0.000 C 
HETATM   11  C14 UNL     1       1.544  14.336  20.874  1.00  0.00     0.000 C 
HETATM   12  C15 UNL     1       2.286  15.450  21.656  1.00  0.00     0.000 C 
HETATM   13  C16 UNL     1       2.353  16.598  20.798  1.00  0.00     0.002 C 
HETATM   14  C17 UNL     1       3.129  17.812  20.821  1.00  0.00     0.038 C 
HETATM   15  C18 UNL     1       2.708  18.514  19.491  1.00  0.00     0.251 C 
ENDROOT
BRANCH   1  16
HETATM   16  O1  UNL     1       3.661  20.332  20.614  1.00  0.00    -0.374 OA
BRANCH  16  17
HETATM   17  C2  UNL     1       4.887  20.707  20.153  1.00  0.00     0.050 C 
HETATM   18  C1  UNL     1       4.894  22.238  20.064  1.00  0.00     0.045 C 
HETATM   19  C3  UNL     1       5.915  20.368  21.241  1.00  0.00     0.045 C 
HETATM   20  C4  UNL     1       5.354  20.067  18.903  1.00  0.00     0.045 C 
ENDBRANCH  16  17
ENDBRANCH   1  16
TORSDOF 2
ENDMDL
