MODEL 1
REMARK VINA RESULT: -6.201447244      0.000      0.000
REMARK  4 active torsions:
REMARK  status: ('A' for Active; 'I' for Inactive)
REMARK    1  A    between atoms: O1_3  and  C3_4 
REMARK    2  A    between atoms: C3_4  and  C4_5 
REMARK    3  A    between atoms: C3_4  and  C6_11 
REMARK    4  A    between atoms: N1_7  and  O2_9 
ROOT
HETATM    1  C1  UNL     1      52.160  18.408  30.785  1.00  0.00     0.044 C 
HETATM    2  C2  UNL     1      52.313  19.606  30.765  1.00  0.00     0.043 C 
HETATM    3  O1  UNL     1      52.470  20.964  30.754  1.00  0.00    -0.293 OA
ENDROOT
BRANCH   3   4
HETATM    4  C3  UNL     1      51.926  21.806  29.755  1.00  0.00     0.190 C 
BRANCH   4   5
HETATM    5  C4  UNL     1      52.935  22.245  28.776  1.00  0.00     0.036 C 
HETATM    6  C5  UNL     1      52.572  23.294  27.790  1.00  0.00     0.068 C 
HETATM    7  N1  UNL     1      54.131  21.768  28.720  1.00  0.00    -0.275 N 
ATOM      8  H1  UNL     1      54.398  21.047  29.390  1.00  0.00     0.193 HD
BRANCH   7   9
HETATM    9  O2  UNL     1      55.050  22.180  27.814  1.00  0.00    -0.290 OA
ATOM     10  H2  UNL     1      55.618  22.928  27.956  1.00  0.00     0.244 HD
ENDBRANCH   7   9
ENDBRANCH   4   5
BRANCH   4  11
HETATM   11  C6  UNL     1      51.121  22.926  30.330  1.00  0.00     0.013 C 
HETATM   12  C7  UNL     1      49.760  22.880  29.640  1.00  0.00     0.012 C 
HETATM   13  C8  UNL     1      51.001  22.887  31.817  1.00  0.00     0.012 C 
ENDBRANCH   4  11
ENDBRANCH   3   4
TORSDOF 4
ENDMDL
MODEL 2
REMARK VINA RESULT: -5.923527585      2.613      4.149
REMARK  4 active torsions:
REMARK  status: ('A' for Active; 'I' for Inactive)
REMARK    1  A    between atoms: O1_3  and  C3_4 
REMARK    2  A    between atoms: C3_4  and  C4_5 
REMARK    3  A    between atoms: C3_4  and  C6_11 
REMARK    4  A    between atoms: N1_7  and  O2_9 
ROOT
HETATM    1  C1  UNL     1      52.692  19.752  30.821  1.00  0.00     0.044 C 
HETATM    2  C2  UNL     1      52.448  20.875  31.192  1.00  0.00     0.043 C 
HETATM    3  O1  UNL     1      52.161  22.140  31.626  1.00  0.00    -0.293 OA
ENDROOT
BRANCH   3   4
HETATM    4  C3  UNL     1      51.035  22.879  31.194  1.00  0.00     0.190 C 
BRANCH   4   5
HETATM    5  C4  UNL     1      49.907  22.792  32.138  1.00  0.00     0.036 C 
HETATM    6  C5  UNL     1      49.176  24.032  32.502  1.00  0.00     0.068 C 
HETATM    7  N1  UNL     1      49.508  21.690  32.674  1.00  0.00    -0.275 N 
ATOM      8  H1  UNL     1      49.998  20.828  32.435  1.00  0.00     0.193 HD
BRANCH   7   9
HETATM    9  O2  UNL     1      48.469  21.624  33.540  1.00  0.00    -0.290 OA
ATOM     10  H2  UNL     1      47.561  21.666  33.264  1.00  0.00     0.244 HD
ENDBRANCH   7   9
ENDBRANCH   4   5
BRANCH   4  11
HETATM   11  C6  UNL     1      50.661  22.574  29.780  1.00  0.00     0.013 C 
HETATM   12  C7  UNL     1      49.271  23.166  29.563  1.00  0.00     0.012 C 
HETATM   13  C8  UNL     1      51.647  23.063  28.772  1.00  0.00     0.012 C 
ENDBRANCH   4  11
ENDBRANCH   3   4
TORSDOF 4
ENDMDL
MODEL 3
REMARK VINA RESULT: -5.720273428      1.540      1.580
REMARK  4 active torsions:
REMARK  status: ('A' for Active; 'I' for Inactive)
REMARK    1  A    between atoms: O1_3  and  C3_4 
REMARK    2  A    between atoms: C3_4  and  C4_5 
REMARK    3  A    between atoms: C3_4  and  C6_11 
REMARK    4  A    between atoms: N1_7  and  O2_9 
ROOT
HETATM    1  C1  UNL     1      53.366  19.453  31.210  1.00  0.00     0.044 C 
HETATM    2  C2  UNL     1      52.834  20.537  31.225  1.00  0.00     0.043 C 
HETATM    3  O1  UNL     1      52.217  21.757  31.253  1.00  0.00    -0.293 OA
ENDROOT
BRANCH   3   4
HETATM    4  C3  UNL     1      51.265  22.175  30.293  1.00  0.00     0.190 C 
BRANCH   4   5
HETATM    5  C4  UNL     1      51.885  22.544  29.008  1.00  0.00     0.036 C 
HETATM    6  C5  UNL     1      51.845  21.573  27.885  1.00  0.00     0.068 C 
HETATM    7  N1  UNL     1      52.466  23.673  28.794  1.00  0.00    -0.275 N 
ATOM      8  H1  UNL     1      52.503  24.353  29.554  1.00  0.00     0.193 HD
BRANCH   7   9
HETATM    9  O2  UNL     1      53.032  24.000  27.607  1.00  0.00    -0.290 OA
ATOM     10  H2  UNL     1      53.946  24.243  27.518  1.00  0.00     0.244 HD
ENDBRANCH   7   9
ENDBRANCH   4   5
BRANCH   4  11
HETATM   11  C6  UNL     1      50.332  23.210  30.829  1.00  0.00     0.013 C 
HETATM   12  C7  UNL     1      49.185  23.320  29.828  1.00  0.00     0.012 C 
HETATM   13  C8  UNL     1      49.848  22.934  32.214  1.00  0.00     0.012 C 
ENDBRANCH   4  11
ENDBRANCH   3   4
TORSDOF 4
ENDMDL
MODEL 4
REMARK VINA RESULT: -5.717372514      1.342      2.966
REMARK  4 active torsions:
REMARK  status: ('A' for Active; 'I' for Inactive)
REMARK    1  A    between atoms: O1_3  and  C3_4 
REMARK    2  A    between atoms: C3_4  and  C4_5 
REMARK    3  A    between atoms: C3_4  and  C6_11 
REMARK    4  A    between atoms: N1_7  and  O2_9 
ROOT
HETATM    1  C1  UNL     1      49.317  23.353  29.804  1.00  0.00     0.044 C 
HETATM    2  C2  UNL     1      50.238  22.725  29.339  1.00  0.00     0.043 C 
HETATM    3  O1  UNL     1      51.278  22.000  28.826  1.00  0.00    -0.293 OA
ENDROOT
BRANCH   3   4
HETATM    4  C3  UNL     1      52.605  22.086  29.309  1.00  0.00     0.190 C 
BRANCH   4   5
HETATM    5  C4  UNL     1      53.587  22.280  28.228  1.00  0.00     0.036 C 
HETATM    6  C5  UNL     1      53.229  23.147  27.077  1.00  0.00     0.068 C 
HETATM    7  N1  UNL     1      54.756  21.737  28.220  1.00  0.00    -0.275 N 
ATOM      8  H1  UNL     1      55.020  21.139  29.002  1.00  0.00     0.193 HD
BRANCH   7   9
HETATM    9  O2  UNL     1      55.650  21.924  27.219  1.00  0.00    -0.290 OA
ATOM     10  H2  UNL     1      56.119  21.210  26.803  1.00  0.00     0.244 HD
ENDBRANCH   7   9
ENDBRANCH   4   5
BRANCH   4  11
HETATM   11  C6  UNL     1      52.947  20.967  30.238  1.00  0.00     0.013 C 
HETATM   12  C7  UNL     1      52.383  21.349  31.604  1.00  0.00     0.012 C 
HETATM   13  C8  UNL     1      52.465  19.630  29.782  1.00  0.00     0.012 C 
ENDBRANCH   4  11
ENDBRANCH   3   4
TORSDOF 4
ENDMDL
MODEL 5
REMARK VINA RESULT: -5.689851329      2.595      3.991
REMARK  4 active torsions:
REMARK  status: ('A' for Active; 'I' for Inactive)
REMARK    1  A    between atoms: O1_3  and  C3_4 
REMARK    2  A    between atoms: C3_4  and  C4_5 
REMARK    3  A    between atoms: C3_4  and  C6_11 
REMARK    4  A    between atoms: N1_7  and  O2_9 
ROOT
HETATM    1  C1  UNL     1      52.574  19.383  30.463  1.00  0.00     0.044 C 
HETATM    2  C2  UNL     1      52.482  20.497  30.921  1.00  0.00     0.043 C 
HETATM    3  O1  UNL     1      52.364  21.751  31.453  1.00  0.00    -0.293 OA
ENDROOT
BRANCH   3   4
HETATM    4  C3  UNL     1      51.449  22.720  30.977  1.00  0.00     0.190 C 
BRANCH   4   5
HETATM    5  C4  UNL     1      50.346  22.965  31.922  1.00  0.00     0.036 C 
HETATM    6  C5  UNL     1      49.732  21.812  32.626  1.00  0.00     0.068 C 
HETATM    7  N1  UNL     1      49.873  24.136  32.179  1.00  0.00    -0.275 N 
ATOM      8  H1  UNL     1      50.282  24.941  31.704  1.00  0.00     0.193 HD
BRANCH   7   9
HETATM    9  O2  UNL     1      48.857  24.348  33.049  1.00  0.00    -0.290 OA
ATOM     10  H2  UNL     1      48.147  23.730  33.178  1.00  0.00     0.244 HD
ENDBRANCH   7   9
ENDBRANCH   4   5
BRANCH   4  11
HETATM   11  C6  UNL     1      50.995  22.438  29.582  1.00  0.00     0.013 C 
HETATM   12  C7  UNL     1      49.577  22.991  29.468  1.00  0.00     0.012 C 
HETATM   13  C8  UNL     1      51.899  22.982  28.527  1.00  0.00     0.012 C 
ENDBRANCH   4  11
ENDBRANCH   3   4
TORSDOF 4
ENDMDL
