MODEL 1
REMARK VINA RESULT: -5.696584692      0.000      0.000
REMARK  3 active torsions:
REMARK  status: ('A' for Active; 'I' for Inactive)
REMARK    1  A    between atoms: C2_2  and  C3_3 
REMARK    2  A    between atoms: C3_3  and  O1_4 
REMARK    3  A    between atoms: C4_6  and  C5_7 
ROOT
HETATM    1  C3  UNL     1      52.964  22.591  28.171  1.00  0.00     0.063 C 
HETATM    2  C4  UNL     1      51.722  23.003  28.364  1.00  0.00     0.043 C 
ENDROOT
BRANCH   2   3
HETATM    3  C5  UNL     1      51.004  22.571  29.551  1.00  0.00     0.173 C 
HETATM    4  C6  UNL     1      49.642  23.200  29.719  1.00  0.00     0.206 C 
HETATM    5  O2  UNL     1      49.524  23.371  31.096  1.00  0.00    -0.364 OA
HETATM    6  C7  UNL     1      50.578  22.633  31.647  1.00  0.00     0.338 C 
HETATM    7  O3  UNL     1      51.623  22.963  30.755  1.00  0.00    -0.356 OA
ENDBRANCH   2   3
BRANCH   1   8
HETATM    8  C2  UNL     1      53.719  23.001  26.996  1.00  0.00     0.026 C 
HETATM    9  C1  UNL     1      54.995  23.336  27.065  1.00  0.00     0.014 C 
ENDBRANCH   1   8
BRANCH   1  10
HETATM   10  O1  UNL     1      53.600  21.753  29.076  1.00  0.00    -0.361 OA
ATOM     11  H1  UNL     1      53.108  21.009  29.401  1.00  0.00     0.217 HD
ENDBRANCH   1  10
TORSDOF 3
ENDMDL
MODEL 2
REMARK VINA RESULT: -5.502343611      1.874      4.801
REMARK  3 active torsions:
REMARK  status: ('A' for Active; 'I' for Inactive)
REMARK    1  A    between atoms: C2_2  and  C3_3 
REMARK    2  A    between atoms: C3_3  and  O1_4 
REMARK    3  A    between atoms: C4_6  and  C5_7 
ROOT
HETATM    1  C3  UNL     1      50.396  22.390  32.189  1.00  0.00     0.063 C 
HETATM    2  C4  UNL     1      50.290  22.713  30.911  1.00  0.00     0.043 C 
ENDROOT
BRANCH   2   3
HETATM    3  C5  UNL     1      51.482  22.730  30.079  1.00  0.00     0.173 C 
HETATM    4  C6  UNL     1      51.223  23.053  28.627  1.00  0.00     0.206 C 
HETATM    5  O2  UNL     1      52.140  22.256  27.944  1.00  0.00    -0.364 OA
HETATM    6  C7  UNL     1      53.014  21.781  28.928  1.00  0.00     0.338 C 
HETATM    7  O3  UNL     1      52.102  21.471  29.961  1.00  0.00    -0.356 OA
ENDBRANCH   2   3
BRANCH   1   8
HETATM    8  C2  UNL     1      49.228  22.360  33.057  1.00  0.00     0.026 C 
HETATM    9  C1  UNL     1      48.603  21.234  33.352  1.00  0.00     0.014 C 
ENDBRANCH   1   8
BRANCH   1  10
HETATM   10  O1  UNL     1      51.620  22.067  32.758  1.00  0.00    -0.361 OA
ATOM     11  H1  UNL     1      52.385  22.107  32.197  1.00  0.00     0.217 HD
ENDBRANCH   1  10
TORSDOF 3
ENDMDL
MODEL 3
REMARK VINA RESULT: -5.454804890      2.071      5.338
REMARK  3 active torsions:
REMARK  status: ('A' for Active; 'I' for Inactive)
REMARK    1  A    between atoms: C2_2  and  C3_3 
REMARK    2  A    between atoms: C3_3  and  O1_4 
REMARK    3  A    between atoms: C4_6  and  C5_7 
ROOT
HETATM    1  C3  UNL     1      52.757  22.595  28.295  1.00  0.00     0.063 C 
HETATM    2  C4  UNL     1      53.308  22.935  27.142  1.00  0.00     0.043 C 
ENDROOT
BRANCH   2   3
HETATM    3  C5  UNL     1      54.730  22.712  26.939  1.00  0.00     0.173 C 
HETATM    4  C6  UNL     1      55.555  23.975  26.875  1.00  0.00     0.206 C 
HETATM    5  O2  UNL     1      56.532  23.683  25.925  1.00  0.00    -0.364 OA
HETATM    6  C7  UNL     1      56.438  22.302  25.718  1.00  0.00     0.338 C 
HETATM    7  O3  UNL     1      55.034  22.137  25.690  1.00  0.00    -0.356 OA
ENDBRANCH   2   3
BRANCH   1   8
HETATM    8  C2  UNL     1      51.337  22.800  28.539  1.00  0.00     0.026 C 
HETATM    9  C1  UNL     1      50.838  22.865  29.761  1.00  0.00     0.014 C 
ENDBRANCH   1   8
BRANCH   1  10
HETATM   10  O1  UNL     1      53.503  22.029  29.319  1.00  0.00    -0.361 OA
ATOM     11  H1  UNL     1      53.760  21.121  29.220  1.00  0.00     0.217 HD
ENDBRANCH   1  10
TORSDOF 3
ENDMDL
MODEL 4
REMARK VINA RESULT: -5.432291871      2.759      5.919
REMARK  3 active torsions:
REMARK  status: ('A' for Active; 'I' for Inactive)
REMARK    1  A    between atoms: C2_2  and  C3_3 
REMARK    2  A    between atoms: C3_3  and  O1_4 
REMARK    3  A    between atoms: C4_6  and  C5_7 
ROOT
HETATM    1  C3  UNL     1      53.584  23.037  27.367  1.00  0.00     0.063 C 
HETATM    2  C4  UNL     1      54.387  22.268  26.651  1.00  0.00     0.043 C 
ENDROOT
BRANCH   2   3
HETATM    3  C5  UNL     1      55.671  22.790  26.215  1.00  0.00     0.173 C 
HETATM    4  C6  UNL     1      56.509  21.807  25.433  1.00  0.00     0.206 C 
HETATM    5  O2  UNL     1      57.812  22.091  25.836  1.00  0.00    -0.364 OA
HETATM    6  C7  UNL     1      57.723  23.304  26.529  1.00  0.00     0.338 C 
HETATM    7  O3  UNL     1      56.544  23.091  27.279  1.00  0.00    -0.356 OA
ENDBRANCH   2   3
BRANCH   1   8
HETATM    8  C2  UNL     1      52.289  22.554  27.825  1.00  0.00     0.026 C 
HETATM    9  C1  UNL     1      51.514  23.270  28.619  1.00  0.00     0.014 C 
ENDBRANCH   1   8
BRANCH   1  10
HETATM   10  O1  UNL     1      53.937  24.333  27.714  1.00  0.00    -0.361 OA
ATOM     11  H1  UNL     1      53.448  25.040  27.312  1.00  0.00     0.217 HD
ENDBRANCH   1  10
TORSDOF 3
ENDMDL
MODEL 5
REMARK VINA RESULT: -5.390948084      3.270      5.888
REMARK  3 active torsions:
REMARK  status: ('A' for Active; 'I' for Inactive)
REMARK    1  A    between atoms: C2_2  and  C3_3 
REMARK    2  A    between atoms: C3_3  and  O1_4 
REMARK    3  A    between atoms: C4_6  and  C5_7 
ROOT
HETATM    1  C3  UNL     1      53.779  22.926  27.238  1.00  0.00     0.063 C 
HETATM    2  C4  UNL     1      54.934  23.123  27.850  1.00  0.00     0.043 C 
ENDROOT
BRANCH   2   3
HETATM    3  C5  UNL     1      56.171  22.821  27.151  1.00  0.00     0.173 C 
HETATM    4  C6  UNL     1      56.430  23.688  25.941  1.00  0.00     0.206 C 
HETATM    5  O2  UNL     1      57.038  22.820  25.037  1.00  0.00    -0.364 OA
HETATM    6  C7  UNL     1      57.357  21.680  25.784  1.00  0.00     0.338 C 
HETATM    7  O3  UNL     1      56.186  21.541  26.563  1.00  0.00    -0.356 OA
ENDBRANCH   2   3
BRANCH   1   8
HETATM    8  C2  UNL     1      52.516  23.216  27.903  1.00  0.00     0.026 C 
HETATM    9  C1  UNL     1      51.703  22.258  28.311  1.00  0.00     0.014 C 
ENDBRANCH   1   8
BRANCH   1  10
HETATM   10  O1  UNL     1      53.717  22.438  25.941  1.00  0.00    -0.361 OA
ATOM     11  H1  UNL     1      54.541  22.254  25.506  1.00  0.00     0.217 HD
ENDBRANCH   1  10
TORSDOF 3
ENDMDL
