MODEL 1
REMARK VINA RESULT: -6.241192578      0.000      0.000
REMARK  2 active torsions:
REMARK  status: ('A' for Active; 'I' for Inactive)
REMARK    1  A    between atoms: C2_2  and  C4_5 
REMARK    2  A    between atoms: C8_9  and  N2_10 
ROOT
HETATM    1  C1  UNL     1      49.930  21.495  32.572  1.00  0.00     0.031 C 
HETATM    2  C2  UNL     1      50.211  22.560  31.845  1.00  0.00     0.019 C 
HETATM    3  C3  UNL     1      49.427  23.747  32.252  1.00  0.00     0.094 C 
HETATM    4  N1  UNL     1      48.812  24.661  32.595  1.00  0.00    -0.192 NA
ENDROOT
BRANCH   2   5
HETATM    5  C4  UNL     1      51.198  22.613  30.789  1.00  0.00     0.051 C 
HETATM    6  C5  UNL     1      50.660  23.173  29.515  1.00  0.00     0.012 C 
HETATM    7  C6  UNL     1      51.317  22.414  28.365  1.00  0.00     0.003 C 
HETATM    8  C7  UNL     1      52.280  21.482  29.060  1.00  0.00     0.025 C 
HETATM    9  C8  UNL     1      51.748  21.227  30.449  1.00  0.00     0.085 C 
BRANCH   9  10
HETATM   10  N2  UNL     1      52.680  20.812  31.393  1.00  0.00    -0.421 N 
HETATM   11  C9  UNL     1      53.386  19.600  31.235  1.00  0.00     0.140 C 
ATOM     12  H2  UNL     1      52.856  21.393  32.213  1.00  0.00     0.153 HD
ENDBRANCH   9  10
ENDBRANCH   2   5
TORSDOF 2
ENDMDL
MODEL 2
REMARK VINA RESULT: -6.007982632      1.310      1.761
REMARK  2 active torsions:
REMARK  status: ('A' for Active; 'I' for Inactive)
REMARK    1  A    between atoms: C2_2  and  C4_5 
REMARK    2  A    between atoms: C8_9  and  N2_10 
ROOT
HETATM    1  C1  UNL     1      49.244  23.180  29.761  1.00  0.00     0.031 C 
HETATM    2  C2  UNL     1      50.371  22.850  30.364  1.00  0.00     0.019 C 
HETATM    3  C3  UNL     1      50.155  22.364  31.744  1.00  0.00     0.094 C 
HETATM    4  N1  UNL     1      49.959  21.978  32.813  1.00  0.00    -0.192 NA
ENDROOT
BRANCH   2   5
HETATM    5  C4  UNL     1      51.686  22.903  29.762  1.00  0.00     0.051 C 
HETATM    6  C5  UNL     1      51.668  23.436  28.368  1.00  0.00     0.012 C 
HETATM    7  C6  UNL     1      52.721  22.669  27.570  1.00  0.00     0.003 C 
HETATM    8  C7  UNL     1      53.354  21.762  28.597  1.00  0.00     0.025 C 
HETATM    9  C8  UNL     1      52.335  21.520  29.684  1.00  0.00     0.085 C 
BRANCH   9  10
HETATM   10  N2  UNL     1      52.841  21.134  30.920  1.00  0.00    -0.421 N 
HETATM   11  C9  UNL     1      53.179  19.788  31.180  1.00  0.00     0.140 C 
ATOM     12  H2  UNL     1      52.969  21.834  31.651  1.00  0.00     0.153 HD
ENDBRANCH   9  10
ENDBRANCH   2   5
TORSDOF 2
ENDMDL
MODEL 3
REMARK VINA RESULT: -5.794242532      2.110      3.508
REMARK  2 active torsions:
REMARK  status: ('A' for Active; 'I' for Inactive)
REMARK    1  A    between atoms: C2_2  and  C4_5 
REMARK    2  A    between atoms: C8_9  and  N2_10 
ROOT
HETATM    1  C1  UNL     1      51.781  20.970  27.696  1.00  0.00     0.031 C 
HETATM    2  C2  UNL     1      51.796  21.916  28.617  1.00  0.00     0.019 C 
HETATM    3  C3  UNL     1      52.317  23.200  28.101  1.00  0.00     0.094 C 
HETATM    4  N1  UNL     1      52.717  24.194  27.673  1.00  0.00    -0.192 NA
ENDROOT
BRANCH   2   5
HETATM    5  C4  UNL     1      51.323  21.765  29.976  1.00  0.00     0.051 C 
HETATM    6  C5  UNL     1      50.354  22.826  30.378  1.00  0.00     0.012 C 
HETATM    7  C6  UNL     1      50.614  23.155  31.846  1.00  0.00     0.003 C 
HETATM    8  C7  UNL     1      51.702  22.185  32.239  1.00  0.00     0.025 C 
HETATM    9  C8  UNL     1      52.468  21.825  30.989  1.00  0.00     0.085 C 
BRANCH   9  10
HETATM   10  N2  UNL     1      53.168  20.624  31.026  1.00  0.00    -0.421 N 
HETATM   11  C9  UNL     1      52.495  19.387  30.925  1.00  0.00     0.140 C 
ATOM     12  H2  UNL     1      54.183  20.637  31.127  1.00  0.00     0.153 HD
ENDBRANCH   9  10
ENDBRANCH   2   5
TORSDOF 2
ENDMDL
MODEL 4
REMARK VINA RESULT: -5.722776609      1.862      3.437
REMARK  2 active torsions:
REMARK  status: ('A' for Active; 'I' for Inactive)
REMARK    1  A    between atoms: C2_2  and  C4_5 
REMARK    2  A    between atoms: C8_9  and  N2_10 
ROOT
HETATM    1  C1  UNL     1      52.647  19.627  30.613  1.00  0.00     0.031 C 
HETATM    2  C2  UNL     1      52.257  20.870  30.401  1.00  0.00     0.019 C 
HETATM    3  C3  UNL     1      51.907  21.576  31.652  1.00  0.00     0.094 C 
HETATM    4  N1  UNL     1      51.650  22.109  32.643  1.00  0.00    -0.192 NA
ENDROOT
BRANCH   2   5
HETATM    5  C4  UNL     1      52.205  21.519  29.108  1.00  0.00     0.051 C 
HETATM    6  C5  UNL     1      53.557  21.816  28.550  1.00  0.00     0.012 C 
HETATM    7  C6  UNL     1      53.466  23.150  27.813  1.00  0.00     0.003 C 
HETATM    8  C7  UNL     1      52.008  23.521  27.929  1.00  0.00     0.025 C 
HETATM    9  C8  UNL     1      51.463  22.855  29.169  1.00  0.00     0.085 C 
BRANCH   9  10
HETATM   10  N2  UNL     1      50.087  22.662  29.204  1.00  0.00    -0.421 N 
HETATM   11  C9  UNL     1      49.255  23.497  29.983  1.00  0.00     0.140 C 
ATOM     12  H2  UNL     1      49.672  21.906  28.660  1.00  0.00     0.153 HD
ENDBRANCH   9  10
ENDBRANCH   2   5
TORSDOF 2
ENDMDL
MODEL 5
REMARK VINA RESULT: -5.707549954      2.082      3.996
REMARK  2 active torsions:
REMARK  status: ('A' for Active; 'I' for Inactive)
REMARK    1  A    between atoms: C2_2  and  C4_5 
REMARK    2  A    between atoms: C8_9  and  N2_10 
ROOT
HETATM    1  C1  UNL     1      52.068  23.929  27.757  1.00  0.00     0.031 C 
HETATM    2  C2  UNL     1      52.423  22.862  28.449  1.00  0.00     0.019 C 
HETATM    3  C3  UNL     1      53.816  22.447  28.176  1.00  0.00     0.094 C 
HETATM    4  N1  UNL     1      54.909  22.149  27.954  1.00  0.00    -0.192 NA
ENDROOT
BRANCH   2   5
HETATM    5  C4  UNL     1      51.587  22.173  29.409  1.00  0.00     0.051 C 
HETATM    6  C5  UNL     1      50.284  22.859  29.646  1.00  0.00     0.012 C 
HETATM    7  C6  UNL     1      49.938  22.691  31.123  1.00  0.00     0.003 C 
HETATM    8  C7  UNL     1      51.058  21.829  31.654  1.00  0.00     0.025 C 
HETATM    9  C8  UNL     1      52.264  22.054  30.775  1.00  0.00     0.085 C 
BRANCH   9  10
HETATM   10  N2  UNL     1      53.217  21.042  30.775  1.00  0.00    -0.421 N 
HETATM   11  C9  UNL     1      52.840  19.687  30.648  1.00  0.00     0.140 C 
ATOM     12  H2  UNL     1      54.204  21.282  30.870  1.00  0.00     0.153 HD
ENDBRANCH   9  10
ENDBRANCH   2   5
TORSDOF 2
ENDMDL
