MODEL 1
REMARK VINA RESULT: -5.417254894      0.000      0.000
REMARK  1 active torsions:
REMARK  status: ('A' for Active; 'I' for Inactive)
REMARK    1  A    between atoms: C2_2  and  C3_3 
ROOT
HETATM    1  C3  UNL     1      50.060  22.853  31.131  1.00  0.00     0.138 A 
HETATM    2  C4  UNL     1      49.315  23.363  29.889  1.00  0.00     0.057 C 
HETATM    3  O1  UNL     1      49.914  21.504  31.456  1.00  0.00    -0.329 OA
HETATM    4  C5  UNL     1      51.192  22.158  31.076  1.00  0.00     0.245 A 
HETATM    5  O2  UNL     1      52.159  22.108  32.073  1.00  0.00    -0.240 OA
HETATM    6  N1  UNL     1      53.059  22.000  31.038  1.00  0.00    -0.082 NA
HETATM    7  C6  UNL     1      52.023  21.247  30.348  1.00  0.00     0.111 C 
HETATM    8  C7  UNL     1      52.123  19.797  30.828  1.00  0.00     0.042 C 
HETATM    9  C8  UNL     1      52.096  21.294  28.853  1.00  0.00     0.042 C 
ENDROOT
BRANCH   1  10
HETATM   10  C2  UNL     1      49.738  23.717  32.311  1.00  0.00     0.006 C 
HETATM   11  C1  UNL     1      48.674  24.506  32.337  1.00  0.00     0.010 C 
ENDBRANCH   1  10
TORSDOF 1
ENDMDL
MODEL 2
REMARK VINA RESULT: -5.295096262      1.552      3.835
REMARK  1 active torsions:
REMARK  status: ('A' for Active; 'I' for Inactive)
REMARK    1  A    between atoms: C2_2  and  C3_3 
ROOT
HETATM    1  C3  UNL     1      51.822  21.938  30.923  1.00  0.00     0.138 A 
HETATM    2  C4  UNL     1      52.146  22.100  29.432  1.00  0.00     0.057 C 
HETATM    3  O1  UNL     1      51.864  23.085  31.716  1.00  0.00    -0.329 OA
HETATM    4  C5  UNL     1      50.653  22.265  31.462  1.00  0.00     0.245 A 
HETATM    5  O2  UNL     1      50.108  21.709  32.614  1.00  0.00    -0.240 OA
HETATM    6  N1  UNL     1      48.893  21.899  31.996  1.00  0.00    -0.082 NA
HETATM    7  C6  UNL     1      49.486  23.096  31.421  1.00  0.00     0.111 C 
HETATM    8  C7  UNL     1      49.341  24.214  32.456  1.00  0.00     0.042 C 
HETATM    9  C8  UNL     1      48.895  23.531  30.116  1.00  0.00     0.042 C 
ENDROOT
BRANCH   1  10
HETATM   10  C2  UNL     1      52.673  20.857  31.517  1.00  0.00     0.006 C 
HETATM   11  C1  UNL     1      52.927  19.727  30.873  1.00  0.00     0.010 C 
ENDBRANCH   1  10
TORSDOF 1
ENDMDL
MODEL 3
REMARK VINA RESULT: -5.114352254      1.720      2.284
REMARK  1 active torsions:
REMARK  status: ('A' for Active; 'I' for Inactive)
REMARK    1  A    between atoms: C2_2  and  C3_3 
ROOT
HETATM    1  C3  UNL     1      50.502  22.547  31.207  1.00  0.00     0.138 A 
HETATM    2  C4  UNL     1      50.324  21.540  32.352  1.00  0.00     0.057 C 
HETATM    3  O1  UNL     1      51.744  23.173  31.093  1.00  0.00    -0.329 OA
HETATM    4  C5  UNL     1      51.144  22.271  30.077  1.00  0.00     0.245 A 
HETATM    5  O2  UNL     1      50.924  22.886  28.850  1.00  0.00    -0.240 OA
HETATM    6  N1  UNL     1      51.232  21.660  28.307  1.00  0.00    -0.082 NA
HETATM    7  C6  UNL     1      52.165  21.517  29.414  1.00  0.00     0.111 C 
HETATM    8  C7  UNL     1      53.459  22.226  29.007  1.00  0.00     0.042 C 
HETATM    9  C8  UNL     1      52.462  20.104  29.812  1.00  0.00     0.042 C 
ENDROOT
BRANCH   1  10
HETATM   10  C2  UNL     1      49.402  23.564  31.245  1.00  0.00     0.006 C 
HETATM   11  C1  UNL     1      48.950  24.070  32.382  1.00  0.00     0.010 C 
ENDBRANCH   1  10
TORSDOF 1
ENDMDL
MODEL 4
REMARK VINA RESULT: -4.685276007      2.084      3.030
REMARK  1 active torsions:
REMARK  status: ('A' for Active; 'I' for Inactive)
REMARK    1  A    between atoms: C2_2  and  C3_3 
ROOT
HETATM    1  C3  UNL     1      51.875  21.429  31.100  1.00  0.00     0.138 A 
HETATM    2  C4  UNL     1      52.205  19.930  31.119  1.00  0.00     0.057 C 
HETATM    3  O1  UNL     1      52.872  22.298  30.654  1.00  0.00    -0.329 OA
HETATM    4  C5  UNL     1      51.556  22.099  29.998  1.00  0.00     0.245 A 
HETATM    5  O2  UNL     1      50.781  23.251  29.947  1.00  0.00    -0.240 OA
HETATM    6  N1  UNL     1      50.339  22.766  28.737  1.00  0.00    -0.082 NA
HETATM    7  C6  UNL     1      51.681  22.229  28.577  1.00  0.00     0.111 C 
HETATM    8  C7  UNL     1      52.553  23.353  28.014  1.00  0.00     0.042 C 
HETATM    9  C8  UNL     1      51.778  21.021  27.697  1.00  0.00     0.042 C 
ENDROOT
BRANCH   1  10
HETATM   10  C2  UNL     1      51.366  21.858  32.442  1.00  0.00     0.006 C 
HETATM   11  C1  UNL     1      50.073  21.865  32.735  1.00  0.00     0.010 C 
ENDBRANCH   1  10
TORSDOF 1
ENDMDL
MODEL 5
REMARK VINA RESULT: -4.281454655      1.941      2.791
REMARK  1 active torsions:
REMARK  status: ('A' for Active; 'I' for Inactive)
REMARK    1  A    between atoms: C2_2  and  C3_3 
ROOT
HETATM    1  C3  UNL     1      50.888  22.386  31.687  1.00  0.00     0.138 A 
HETATM    2  C4  UNL     1      51.711  21.239  32.290  1.00  0.00     0.057 C 
HETATM    3  O1  UNL     1      51.590  23.482  31.185  1.00  0.00    -0.329 OA
HETATM    4  C5  UNL     1      50.735  22.573  30.381  1.00  0.00     0.245 A 
HETATM    5  O2  UNL     1      49.660  23.214  29.776  1.00  0.00    -0.240 OA
HETATM    6  N1  UNL     1      49.853  22.323  28.745  1.00  0.00    -0.082 NA
HETATM    7  C6  UNL     1      51.270  22.421  29.061  1.00  0.00     0.111 C 
HETATM    8  C7  UNL     1      51.809  23.656  28.337  1.00  0.00     0.042 C 
HETATM    9  C8  UNL     1      52.084  21.219  28.693  1.00  0.00     0.042 C 
ENDROOT
BRANCH   1  10
HETATM   10  C2  UNL     1      49.842  22.833  32.662  1.00  0.00     0.006 C 
HETATM   11  C1  UNL     1      48.867  22.033  33.065  1.00  0.00     0.010 C 
ENDBRANCH   1  10
TORSDOF 1
ENDMDL
