MODEL 1
REMARK VINA RESULT: -5.427195768      0.000      0.000
REMARK  2 active torsions:
REMARK  status: ('A' for Active; 'I' for Inactive)
REMARK    1  A    between atoms: C1_2  and  C2_4 
REMARK    2  A    between atoms: N2_6  and  C4_7 
ROOT
HETATM    1  C2  UNL     1      51.523  22.692  28.233  1.00  0.00     0.131 C 
HETATM    2  C3  UNL     1      52.966  22.334  28.628  1.00  0.00     0.288 C 
HETATM    3  N2  UNL     1      53.300  22.850  27.287  1.00  0.00     0.094 N 
HETATM    4  C7  UNL     1      52.278  23.869  27.592  1.00  0.00     0.288 C 
ENDROOT
BRANCH   1   5
HETATM    5  C1  UNL     1      50.647  23.020  29.335  1.00  0.00     0.238 C 
HETATM    6  N1  UNL     1      51.161  23.215  30.637  1.00  0.00    -0.062 NA
HETATM    7  O1  UNL     1      49.414  23.138  29.163  1.00  0.00    -0.276 OA
ENDBRANCH   1   5
BRANCH   3   8
HETATM    8  C4  UNL     1      54.646  23.370  27.197  1.00  0.00     0.223 A 
HETATM    9  C5  UNL     1      55.811  22.477  27.042  1.00  0.00     0.038 A 
HETATM   10  C6  UNL     1      55.259  23.138  25.801  1.00  0.00     0.038 A 
ENDBRANCH   3   8
TORSDOF 2
ENDMDL
MODEL 2
REMARK VINA RESULT: -5.364741420      1.027      1.027
REMARK  2 active torsions:
REMARK  status: ('A' for Active; 'I' for Inactive)
REMARK    1  A    between atoms: C1_2  and  C2_4 
REMARK    2  A    between atoms: N2_6  and  C4_7 
ROOT
HETATM    1  C2  UNL     1      51.598  22.711  28.280  1.00  0.00     0.131 C 
HETATM    2  C3  UNL     1      53.046  22.324  28.627  1.00  0.00     0.288 C 
HETATM    3  N2  UNL     1      53.341  22.815  27.267  1.00  0.00     0.094 N 
HETATM    4  C7  UNL     1      52.355  23.862  27.596  1.00  0.00     0.288 C 
ENDROOT
BRANCH   1   5
HETATM    5  C1  UNL     1      50.771  23.074  29.409  1.00  0.00     0.238 C 
HETATM    6  N1  UNL     1      49.373  23.219  29.265  1.00  0.00    -0.062 NA
HETATM    7  O1  UNL     1      51.273  23.270  30.538  1.00  0.00    -0.276 OA
ENDBRANCH   1   5
BRANCH   3   8
HETATM    8  C4  UNL     1      54.695  23.302  27.121  1.00  0.00     0.223 A 
HETATM    9  C5  UNL     1      55.839  22.379  26.992  1.00  0.00     0.038 A 
HETATM   10  C6  UNL     1      55.273  22.981  25.728  1.00  0.00     0.038 A 
ENDBRANCH   3   8
TORSDOF 2
ENDMDL
MODEL 3
REMARK VINA RESULT: -5.256895710      2.342      3.263
REMARK  2 active torsions:
REMARK  status: ('A' for Active; 'I' for Inactive)
REMARK    1  A    between atoms: C1_2  and  C2_4 
REMARK    2  A    between atoms: N2_6  and  C4_7 
ROOT
HETATM    1  C2  UNL     1      49.948  22.422  31.185  1.00  0.00     0.131 C 
HETATM    2  C3  UNL     1      51.462  22.628  31.008  1.00  0.00     0.288 C 
HETATM    3  N2  UNL     1      51.160  22.473  29.572  1.00  0.00     0.094 N 
HETATM    4  C7  UNL     1      49.956  23.262  29.896  1.00  0.00     0.288 C 
ENDROOT
BRANCH   1   5
HETATM    5  C1  UNL     1      49.374  23.053  32.353  1.00  0.00     0.238 C 
HETATM    6  N1  UNL     1      49.172  24.451  32.395  1.00  0.00    -0.062 NA
HETATM    7  O1  UNL     1      49.045  22.377  33.353  1.00  0.00    -0.276 OA
ENDBRANCH   1   5
BRANCH   3   8
HETATM    8  C4  UNL     1      52.104  23.158  28.716  1.00  0.00     0.223 A 
HETATM    9  C5  UNL     1      53.343  22.505  28.254  1.00  0.00     0.038 A 
HETATM   10  C6  UNL     1      52.165  22.530  27.310  1.00  0.00     0.038 A 
ENDBRANCH   3   8
TORSDOF 2
ENDMDL
MODEL 4
REMARK VINA RESULT: -5.154575566      2.225      3.213
REMARK  2 active torsions:
REMARK  status: ('A' for Active; 'I' for Inactive)
REMARK    1  A    between atoms: C1_2  and  C2_4 
REMARK    2  A    between atoms: N2_6  and  C4_7 
ROOT
HETATM    1  C2  UNL     1      50.005  22.341  31.145  1.00  0.00     0.131 C 
HETATM    2  C3  UNL     1      51.513  22.586  30.969  1.00  0.00     0.288 C 
HETATM    3  N2  UNL     1      51.208  22.478  29.529  1.00  0.00     0.094 N 
HETATM    4  C7  UNL     1      49.989  23.228  29.888  1.00  0.00     0.288 C 
ENDROOT
BRANCH   1   5
HETATM    5  C1  UNL     1      49.424  22.915  32.339  1.00  0.00     0.238 C 
HETATM    6  N1  UNL     1      48.888  22.089  33.352  1.00  0.00    -0.062 NA
HETATM    7  O1  UNL     1      49.381  24.154  32.500  1.00  0.00    -0.276 OA
ENDBRANCH   1   5
BRANCH   3   8
HETATM    8  C4  UNL     1      52.131  23.214  28.695  1.00  0.00     0.223 A 
HETATM    9  C5  UNL     1      53.377  22.602  28.193  1.00  0.00     0.038 A 
HETATM   10  C6  UNL     1      52.188  22.648  27.263  1.00  0.00     0.038 A 
ENDBRANCH   3   8
TORSDOF 2
ENDMDL
MODEL 5
REMARK VINA RESULT: -5.115800155      2.399      5.165
REMARK  2 active torsions:
REMARK  status: ('A' for Active; 'I' for Inactive)
REMARK    1  A    between atoms: C1_2  and  C2_4 
REMARK    2  A    between atoms: N2_6  and  C4_7 
ROOT
HETATM    1  C2  UNL     1      51.293  22.418  28.671  1.00  0.00     0.131 C 
HETATM    2  C3  UNL     1      50.418  23.486  29.351  1.00  0.00     0.288 C 
HETATM    3  N2  UNL     1      50.486  22.581  30.515  1.00  0.00     0.094 N 
HETATM    4  C7  UNL     1      51.886  22.389  30.091  1.00  0.00     0.288 C 
ENDROOT
BRANCH   1   5
HETATM    5  C1  UNL     1      52.164  22.910  27.627  1.00  0.00     0.238 C 
HETATM    6  N1  UNL     1      52.513  24.278  27.559  1.00  0.00    -0.062 NA
HETATM    7  O1  UNL     1      52.626  22.137  26.759  1.00  0.00    -0.276 OA
ENDBRANCH   1   5
BRANCH   3   8
HETATM    8  C4  UNL     1      50.339  23.270  31.778  1.00  0.00     0.223 A 
HETATM    9  C5  UNL     1      49.069  23.913  32.166  1.00  0.00     0.038 A 
HETATM   10  C6  UNL     1      49.362  22.539  32.720  1.00  0.00     0.038 A 
ENDBRANCH   3   8
TORSDOF 2
ENDMDL
