MODEL 1
REMARK VINA RESULT: -5.156917272      0.000      0.000
REMARK  2 active torsions:
REMARK  status: ('A' for Active; 'I' for Inactive)
REMARK    1  A    between atoms: C1_2  and  N1_3 
REMARK    2  A    between atoms: N1_3  and  C2_5 
ROOT
HETATM    1  C2  UNL     1      52.361  23.471  28.515  1.00  0.00     0.096 C 
HETATM    2  C3  UNL     1      52.839  22.172  29.194  1.00  0.00     0.009 C 
HETATM    3  C4  UNL     1      52.370  21.193  28.145  1.00  0.00     0.007 C 
HETATM    4  C5  UNL     1      50.956  21.703  27.981  1.00  0.00     0.012 C 
HETATM    5  C6  UNL     1      50.935  23.137  28.554  1.00  0.00    -0.015 A 
HETATM    6  C7  UNL     1      49.807  23.451  29.308  1.00  0.00     0.017 A 
HETATM    7  C8  UNL     1      50.911  23.198  30.143  1.00  0.00    -0.003 A 
HETATM    8  C9  UNL     1      51.804  22.040  30.316  1.00  0.00     0.012 C 
ENDROOT
BRANCH   1   9
HETATM    9  N1  UNL     1      52.951  23.673  27.246  1.00  0.00    -0.362 N 
ATOM     10  H1  UNL     1      52.360  23.797  26.423  1.00  0.00     0.162 HD
BRANCH   9  11
HETATM   11  C1  UNL     1      54.367  23.704  27.116  1.00  0.00     0.348 C 
HETATM   12  O1  UNL     1      54.964  23.047  26.198  1.00  0.00    -0.284 OA
ENDBRANCH   9  11
ENDBRANCH   1   9
TORSDOF 2
ENDMDL
MODEL 2
REMARK VINA RESULT: -4.708144258      3.115      4.024
REMARK  2 active torsions:
REMARK  status: ('A' for Active; 'I' for Inactive)
REMARK    1  A    between atoms: C1_2  and  N1_3 
REMARK    2  A    between atoms: N1_3  and  C2_5 
ROOT
HETATM    1  C2  UNL     1      50.859  23.347  31.475  1.00  0.00     0.096 C 
HETATM    2  C3  UNL     1      49.794  23.781  32.502  1.00  0.00     0.009 C 
HETATM    3  C4  UNL     1      49.292  22.410  32.886  1.00  0.00     0.007 C 
HETATM    4  C5  UNL     1      49.085  21.851  31.497  1.00  0.00     0.012 C 
HETATM    5  C6  UNL     1      49.913  22.735  30.538  1.00  0.00    -0.015 A 
HETATM    6  C7  UNL     1      49.286  23.043  29.334  1.00  0.00     0.017 A 
HETATM    7  C8  UNL     1      49.244  24.140  30.214  1.00  0.00    -0.003 A 
HETATM    8  C9  UNL     1      48.707  24.328  31.572  1.00  0.00     0.012 C 
ENDROOT
BRANCH   1   9
HETATM    9  N1  UNL     1      51.854  22.515  32.038  1.00  0.00    -0.362 N 
ATOM     10  H1  UNL     1      52.030  22.539  33.042  1.00  0.00     0.162 HD
BRANCH   9  11
HETATM   11  C1  UNL     1      52.608  21.644  31.203  1.00  0.00     0.348 C 
HETATM   12  O1  UNL     1      52.980  22.001  30.035  1.00  0.00    -0.284 OA
ENDBRANCH   9  11
ENDBRANCH   1   9
TORSDOF 2
ENDMDL
MODEL 3
REMARK VINA RESULT: -4.650772248      0.756      1.095
REMARK  2 active torsions:
REMARK  status: ('A' for Active; 'I' for Inactive)
REMARK    1  A    between atoms: C1_2  and  N1_3 
REMARK    2  A    between atoms: N1_3  and  C2_5 
ROOT
HETATM    1  C2  UNL     1      52.762  22.961  29.059  1.00  0.00     0.096 C 
HETATM    2  C3  UNL     1      52.574  21.459  28.763  1.00  0.00     0.009 C 
HETATM    3  C4  UNL     1      51.432  21.573  27.783  1.00  0.00     0.007 C 
HETATM    4  C5  UNL     1      50.540  22.492  28.587  1.00  0.00     0.012 C 
HETATM    5  C6  UNL     1      51.437  23.157  29.653  1.00  0.00    -0.015 A 
HETATM    6  C7  UNL     1      50.864  23.269  30.917  1.00  0.00     0.017 A 
HETATM    7  C8  UNL     1      51.792  22.212  30.881  1.00  0.00    -0.003 A 
HETATM    8  C9  UNL     1      51.907  20.995  30.061  1.00  0.00     0.012 C 
ENDROOT
BRANCH   1   9
HETATM    9  N1  UNL     1      53.078  23.711  27.903  1.00  0.00    -0.362 N 
ATOM     10  H1  UNL     1      52.392  24.356  27.510  1.00  0.00     0.162 HD
BRANCH   9  11
HETATM   11  C1  UNL     1      54.352  23.567  27.287  1.00  0.00     0.348 C 
HETATM   12  O1  UNL     1      54.483  22.977  26.162  1.00  0.00    -0.284 OA
ENDBRANCH   9  11
ENDBRANCH   1   9
TORSDOF 2
ENDMDL
MODEL 4
REMARK VINA RESULT: -4.649621949      4.754      5.798
REMARK  2 active torsions:
REMARK  status: ('A' for Active; 'I' for Inactive)
REMARK    1  A    between atoms: C1_2  and  N1_3 
REMARK    2  A    between atoms: N1_3  and  C2_5 
ROOT
HETATM    1  C2  UNL     1      49.044  22.289  31.849  1.00  0.00     0.096 C 
HETATM    2  C3  UNL     1      49.992  22.182  30.638  1.00  0.00     0.009 C 
HETATM    3  C4  UNL     1      51.296  22.410  31.362  1.00  0.00     0.007 C 
HETATM    4  C5  UNL     1      50.904  23.644  32.143  1.00  0.00     0.012 C 
HETATM    5  C6  UNL     1      49.361  23.686  32.155  1.00  0.00    -0.015 A 
HETATM    6  C7  UNL     1      48.807  24.950  31.969  1.00  0.00     0.017 A 
HETATM    7  C8  UNL     1      48.717  24.186  30.791  1.00  0.00    -0.003 A 
HETATM    8  C9  UNL     1      49.715  23.517  29.940  1.00  0.00     0.012 C 
ENDROOT
BRANCH   1   9
HETATM    9  N1  UNL     1      49.317  21.323  32.844  1.00  0.00    -0.362 N 
ATOM     10  H1  UNL     1      50.281  21.064  33.052  1.00  0.00     0.162 HD
BRANCH   9  11
HETATM   11  C1  UNL     1      48.247  20.712  33.556  1.00  0.00     0.348 C 
HETATM   12  O1  UNL     1      48.291  20.564  34.823  1.00  0.00    -0.284 OA
ENDBRANCH   9  11
ENDBRANCH   1   9
TORSDOF 2
ENDMDL
MODEL 5
REMARK VINA RESULT: -4.453834479      4.426      5.526
REMARK  2 active torsions:
REMARK  status: ('A' for Active; 'I' for Inactive)
REMARK    1  A    between atoms: C1_2  and  N1_3 
REMARK    2  A    between atoms: N1_3  and  C2_5 
ROOT
HETATM    1  C2  UNL     1      49.524  22.002  31.554  1.00  0.00     0.096 C 
HETATM    2  C3  UNL     1      51.029  21.857  31.252  1.00  0.00     0.009 C 
HETATM    3  C4  UNL     1      51.540  22.938  32.173  1.00  0.00     0.007 C 
HETATM    4  C5  UNL     1      50.600  24.047  31.758  1.00  0.00     0.012 C 
HETATM    5  C6  UNL     1      49.407  23.372  31.047  1.00  0.00    -0.015 A 
HETATM    6  C7  UNL     1      48.953  24.030  29.907  1.00  0.00     0.017 A 
HETATM    7  C8  UNL     1      49.721  22.903  29.560  1.00  0.00    -0.003 A 
HETATM    8  C9  UNL     1      51.102  22.490  29.859  1.00  0.00     0.012 C 
ENDROOT
BRANCH   1   9
HETATM    9  N1  UNL     1      49.215  21.780  32.916  1.00  0.00    -0.362 N 
ATOM     10  H1  UNL     1      49.642  22.362  33.636  1.00  0.00     0.162 HD
BRANCH   9  11
HETATM   11  C1  UNL     1      48.309  20.746  33.281  1.00  0.00     0.348 C 
HETATM   12  O1  UNL     1      48.082  20.463  34.505  1.00  0.00    -0.284 OA
ENDBRANCH   9  11
ENDBRANCH   1   9
TORSDOF 2
ENDMDL
