MODEL 1
REMARK VINA RESULT: -5.459627785      0.000      0.000
REMARK  4 active torsions:
REMARK  status: ('A' for Active; 'I' for Inactive)
REMARK    1  A    between atoms: N1_1  and  N2_4 
REMARK    2  A    between atoms: N2_4  and  C1_5 
REMARK    3  A    between atoms: C1_5  and  C2_6 
REMARK    4  A    between atoms: C5_9  and  C6_10 
ROOT
HETATM    1  C2  UNL     1      50.807  22.267  30.578  1.00  0.00     0.052 C 
HETATM    2  C3  UNL     1      50.300  22.540  29.170  1.00  0.00     0.013 C 
HETATM    3  C4  UNL     1      49.511  23.700  29.686  1.00  0.00     0.015 C 
HETATM    4  C5  UNL     1      50.312  23.619  30.975  1.00  0.00     0.085 C 
ENDROOT
BRANCH   1   5
HETATM    5  C1  UNL     1      52.284  22.082  30.610  1.00  0.00     0.186 C 
BRANCH   5   6
HETATM    6  N2  UNL     1      52.935  21.919  29.555  1.00  0.00    -0.349 NA
BRANCH   6   7
HETATM    7  N1  UNL     1      53.697  21.722  28.605  1.00  0.00    -0.281 N 
ATOM      8  H12 UNL     1      54.435  21.826  29.302  1.00  0.00     0.191 HD
ATOM      9  H11 UNL     1      54.222  21.550  27.748  1.00  0.00     0.191 HD
ENDBRANCH   6   7
ENDBRANCH   5   6
ENDBRANCH   1   5
BRANCH   4  10
HETATM   10  C6  UNL     1      49.405  23.656  32.141  1.00  0.00     0.236 C 
HETATM   11  N3  UNL     1      49.125  22.468  32.856  1.00  0.00    -0.062 NA
HETATM   12  O1  UNL     1      48.900  24.751  32.475  1.00  0.00    -0.276 OA
ENDBRANCH   4  10
TORSDOF 4
ENDMDL
MODEL 2
REMARK VINA RESULT: -5.427384059      1.944      2.288
REMARK  4 active torsions:
REMARK  status: ('A' for Active; 'I' for Inactive)
REMARK    1  A    between atoms: N1_1  and  N2_4 
REMARK    2  A    between atoms: N2_4  and  C1_5 
REMARK    3  A    between atoms: C1_5  and  C2_6 
REMARK    4  A    between atoms: C5_9  and  C6_10 
ROOT
HETATM    1  C2  UNL     1      50.905  22.589  29.119  1.00  0.00     0.052 C 
HETATM    2  C3  UNL     1      49.527  23.233  29.141  1.00  0.00     0.013 C 
HETATM    3  C4  UNL     1      49.680  23.497  30.604  1.00  0.00     0.015 C 
HETATM    4  C5  UNL     1      51.162  23.189  30.462  1.00  0.00     0.085 C 
ENDROOT
BRANCH   1   5
HETATM    5  C1  UNL     1      51.743  23.110  28.005  1.00  0.00     0.186 C 
BRANCH   5   6
HETATM    6  N2  UNL     1      52.962  22.839  27.935  1.00  0.00    -0.349 NA
BRANCH   6   7
HETATM    7  N1  UNL     1      54.155  22.536  28.015  1.00  0.00    -0.281 N 
ATOM      8  H12 UNL     1      54.312  23.433  27.553  1.00  0.00     0.191 HD
ATOM      9  H11 UNL     1      55.103  22.180  28.137  1.00  0.00     0.191 HD
ENDBRANCH   6   7
ENDBRANCH   5   6
ENDBRANCH   1   5
BRANCH   4  10
HETATM   10  C6  UNL     1      51.589  22.246  31.517  1.00  0.00     0.236 C 
HETATM   11  N3  UNL     1      52.699  21.397  31.299  1.00  0.00    -0.062 NA
HETATM   12  O1  UNL     1      50.952  22.221  32.594  1.00  0.00    -0.276 OA
ENDBRANCH   4  10
TORSDOF 4
ENDMDL
MODEL 3
REMARK VINA RESULT: -5.369916469      1.755      2.321
REMARK  4 active torsions:
REMARK  status: ('A' for Active; 'I' for Inactive)
REMARK    1  A    between atoms: N1_1  and  N2_4 
REMARK    2  A    between atoms: N2_4  and  C1_5 
REMARK    3  A    between atoms: C1_5  and  C2_6 
REMARK    4  A    between atoms: C5_9  and  C6_10 
ROOT
HETATM    1  C2  UNL     1      51.057  23.141  30.362  1.00  0.00     0.052 C 
HETATM    2  C3  UNL     1      52.230  22.207  30.621  1.00  0.00     0.013 C 
HETATM    3  C4  UNL     1      51.466  21.565  31.733  1.00  0.00     0.015 C 
HETATM    4  C5  UNL     1      50.212  22.249  31.211  1.00  0.00     0.085 C 
ENDROOT
BRANCH   1   5
HETATM    5  C1  UNL     1      50.697  23.192  28.918  1.00  0.00     0.186 C 
BRANCH   5   6
HETATM    6  N2  UNL     1      51.539  23.525  28.056  1.00  0.00    -0.349 NA
BRANCH   6   7
HETATM    7  N1  UNL     1      52.470  23.863  27.321  1.00  0.00    -0.281 N 
ATOM      8  H12 UNL     1      52.891  24.218  28.181  1.00  0.00     0.191 HD
ATOM      9  H11 UNL     1      53.173  24.093  26.619  1.00  0.00     0.191 HD
ENDBRANCH   6   7
ENDBRANCH   5   6
ENDBRANCH   1   5
BRANCH   4  10
HETATM   10  C6  UNL     1      49.493  22.909  32.321  1.00  0.00     0.236 C 
HETATM   11  N3  UNL     1      49.331  24.314  32.321  1.00  0.00    -0.062 NA
HETATM   12  O1  UNL     1      49.037  22.202  33.246  1.00  0.00    -0.276 OA
ENDBRANCH   4  10
TORSDOF 4
ENDMDL
MODEL 4
REMARK VINA RESULT: -5.322029324      1.980      2.324
REMARK  4 active torsions:
REMARK  status: ('A' for Active; 'I' for Inactive)
REMARK    1  A    between atoms: N1_1  and  N2_4 
REMARK    2  A    between atoms: N2_4  and  C1_5 
REMARK    3  A    between atoms: C1_5  and  C2_6 
REMARK    4  A    between atoms: C5_9  and  C6_10 
ROOT
HETATM    1  C2  UNL     1      50.919  22.581  29.080  1.00  0.00     0.052 C 
HETATM    2  C3  UNL     1      49.574  23.292  29.102  1.00  0.00     0.013 C 
HETATM    3  C4  UNL     1      49.736  23.540  30.567  1.00  0.00     0.015 C 
HETATM    4  C5  UNL     1      51.201  23.160  30.427  1.00  0.00     0.085 C 
ENDROOT
BRANCH   1   5
HETATM    5  C1  UNL     1      51.785  23.066  27.971  1.00  0.00     0.186 C 
BRANCH   5   6
HETATM    6  N2  UNL     1      53.009  22.813  27.953  1.00  0.00    -0.349 NA
BRANCH   6   7
HETATM    7  N1  UNL     1      54.192  22.477  28.059  1.00  0.00    -0.281 N 
ATOM      8  H12 UNL     1      54.138  22.937  28.968  1.00  0.00     0.191 HD
ATOM      9  H11 UNL     1      55.156  22.148  28.032  1.00  0.00     0.191 HD
ENDBRANCH   6   7
ENDBRANCH   5   6
ENDBRANCH   1   5
BRANCH   4  10
HETATM   10  C6  UNL     1      51.578  22.192  31.478  1.00  0.00     0.236 C 
HETATM   11  N3  UNL     1      50.742  22.012  32.605  1.00  0.00    -0.062 NA
HETATM   12  O1  UNL     1      52.639  21.544  31.346  1.00  0.00    -0.276 OA
ENDBRANCH   4  10
TORSDOF 4
ENDMDL
MODEL 5
REMARK VINA RESULT: -5.185549844      1.774      2.442
REMARK  4 active torsions:
REMARK  status: ('A' for Active; 'I' for Inactive)
REMARK    1  A    between atoms: N1_1  and  N2_4 
REMARK    2  A    between atoms: N2_4  and  C1_5 
REMARK    3  A    between atoms: C1_5  and  C2_6 
REMARK    4  A    between atoms: C5_9  and  C6_10 
ROOT
HETATM    1  C2  UNL     1      51.866  22.943  29.168  1.00  0.00     0.052 C 
HETATM    2  C3  UNL     1      52.752  21.956  29.912  1.00  0.00     0.013 C 
HETATM    3  C4  UNL     1      51.690  21.794  30.950  1.00  0.00     0.015 C 
HETATM    4  C5  UNL     1      50.719  22.481  30.005  1.00  0.00     0.085 C 
ENDROOT
BRANCH   1   5
HETATM    5  C1  UNL     1      51.778  22.626  27.716  1.00  0.00     0.186 C 
BRANCH   5   6
HETATM    6  N2  UNL     1      52.749  22.823  26.954  1.00  0.00    -0.349 NA
BRANCH   6   7
HETATM    7  N1  UNL     1      53.653  22.903  26.118  1.00  0.00    -0.281 N 
ATOM      8  H12 UNL     1      52.891  23.048  25.454  1.00  0.00     0.191 HD
ATOM      9  H11 UNL     1      54.479  22.949  25.522  1.00  0.00     0.191 HD
ENDBRANCH   6   7
ENDBRANCH   5   6
ENDBRANCH   1   5
BRANCH   4  10
HETATM   10  C6  UNL     1      49.976  23.540  30.720  1.00  0.00     0.236 C 
HETATM   11  N3  UNL     1      50.383  23.936  32.016  1.00  0.00    -0.062 NA
HETATM   12  O1  UNL     1      48.993  24.070  30.157  1.00  0.00    -0.276 OA
ENDBRANCH   4  10
TORSDOF 4
ENDMDL
