MODEL 1
REMARK VINA RESULT: -5.683346986      0.000      0.000
REMARK  2 active torsions:
REMARK  status: ('A' for Active; 'I' for Inactive)
REMARK       I    between atoms: C1_2  and  N1_3 
REMARK    1  A    between atoms: C1_2  and  C5_8 
REMARK    2  A    between atoms: N1_3  and  C2_5 
ROOT
HETATM    1  O1  UNL     1      52.297  24.106  27.371  1.00  0.00    -0.273 OA
HETATM    2  C1  UNL     1      52.585  23.033  27.958  1.00  0.00     0.222 C 
HETATM    3  N1  UNL     1      53.902  22.509  27.974  1.00  0.00    -0.356 N 
ATOM      4  H1  UNL     1      54.091  21.634  28.463  1.00  0.00     0.162 HD
ENDROOT
BRANCH   2   5
HETATM    5  C5  UNL     1      51.463  22.338  28.639  1.00  0.00     0.078 A 
HETATM    6  C6  UNL     1      50.252  23.085  29.042  1.00  0.00     0.015 A 
HETATM    7  C7  UNL     1      51.252  22.718  30.102  1.00  0.00     0.015 A 
ENDBRANCH   2   5
BRANCH   3   8
HETATM    8  C2  UNL     1      54.976  23.202  27.305  1.00  0.00     0.084 A 
HETATM    9  C3  UNL     1      56.135  22.299  26.832  1.00  0.00     0.027 A 
HETATM   10  C4  UNL     1      55.230  22.932  25.856  1.00  0.00     0.027 A 
ENDBRANCH   3   8
TORSDOF 2
ENDMDL
MODEL 2
REMARK VINA RESULT: -5.656962339      1.281      1.546
REMARK  2 active torsions:
REMARK  status: ('A' for Active; 'I' for Inactive)
REMARK       I    between atoms: C1_2  and  N1_3 
REMARK    1  A    between atoms: C1_2  and  C5_8 
REMARK    2  A    between atoms: N1_3  and  C2_5 
ROOT
HETATM    1  O1  UNL     1      53.936  24.420  27.546  1.00  0.00    -0.273 OA
HETATM    2  C1  UNL     1      53.748  23.220  27.224  1.00  0.00     0.222 C 
HETATM    3  N1  UNL     1      54.803  22.382  26.781  1.00  0.00    -0.356 N 
ATOM      4  H1  UNL     1      54.607  21.414  26.529  1.00  0.00     0.162 HD
ENDROOT
BRANCH   2   5
HETATM    5  C5  UNL     1      52.354  22.722  27.331  1.00  0.00     0.078 A 
HETATM    6  C6  UNL     1      51.421  23.313  28.316  1.00  0.00     0.015 A 
HETATM    7  C7  UNL     1      52.026  21.971  28.618  1.00  0.00     0.015 A 
ENDBRANCH   2   5
BRANCH   3   8
HETATM    8  C2  UNL     1      56.151  22.887  26.684  1.00  0.00     0.084 A 
HETATM    9  C3  UNL     1      57.029  22.194  25.621  1.00  0.00     0.027 A 
HETATM   10  C4  UNL     1      56.582  23.586  25.434  1.00  0.00     0.027 A 
ENDBRANCH   3   8
TORSDOF 2
ENDMDL
MODEL 3
REMARK VINA RESULT: -5.527851501      1.151      4.518
REMARK  2 active torsions:
REMARK  status: ('A' for Active; 'I' for Inactive)
REMARK       I    between atoms: C1_2  and  N1_3 
REMARK    1  A    between atoms: C1_2  and  C5_8 
REMARK    2  A    between atoms: N1_3  and  C2_5 
ROOT
HETATM    1  O1  UNL     1      53.598  22.833  26.014  1.00  0.00    -0.273 OA
HETATM    2  C1  UNL     1      54.287  22.791  27.064  1.00  0.00     0.222 C 
HETATM    3  N1  UNL     1      53.730  22.445  28.321  1.00  0.00    -0.356 N 
ATOM      4  H1  UNL     1      54.326  22.423  29.148  1.00  0.00     0.162 HD
ENDROOT
BRANCH   2   5
HETATM    5  C5  UNL     1      55.726  23.126  26.917  1.00  0.00     0.078 A 
HETATM    6  C6  UNL     1      56.274  23.518  25.600  1.00  0.00     0.015 A 
HETATM    7  C7  UNL     1      56.548  22.130  26.105  1.00  0.00     0.015 A 
ENDBRANCH   2   5
BRANCH   3   8
HETATM    8  C2  UNL     1      52.328  22.124  28.439  1.00  0.00     0.084 A 
HETATM    9  C3  UNL     1      51.664  22.594  29.751  1.00  0.00     0.027 A 
HETATM   10  C4  UNL     1      51.324  23.232  28.466  1.00  0.00     0.027 A 
ENDBRANCH   3   8
TORSDOF 2
ENDMDL
MODEL 4
REMARK VINA RESULT: -5.466322660      3.025      5.319
REMARK  2 active torsions:
REMARK  status: ('A' for Active; 'I' for Inactive)
REMARK       I    between atoms: C1_2  and  N1_3 
REMARK    1  A    between atoms: C1_2  and  C5_8 
REMARK    2  A    between atoms: N1_3  and  C2_5 
ROOT
HETATM    1  O1  UNL     1      52.637  21.515  31.103  1.00  0.00    -0.273 OA
HETATM    2  C1  UNL     1      52.086  22.302  30.293  1.00  0.00     0.222 C 
HETATM    3  N1  UNL     1      51.042  23.178  30.682  1.00  0.00    -0.356 N 
ATOM      4  H1  UNL     1      50.623  23.801  29.992  1.00  0.00     0.162 HD
ENDROOT
BRANCH   2   5
HETATM    5  C5  UNL     1      52.590  22.264  28.897  1.00  0.00     0.078 A 
HETATM    6  C6  UNL     1      52.144  23.274  27.912  1.00  0.00     0.015 A 
HETATM    7  C7  UNL     1      51.554  21.894  27.839  1.00  0.00     0.015 A 
ENDBRANCH   2   5
BRANCH   3   8
HETATM    8  C2  UNL     1      50.568  23.197  32.044  1.00  0.00     0.084 A 
HETATM    9  C3  UNL     1      49.180  23.843  32.240  1.00  0.00     0.027 A 
HETATM   10  C4  UNL     1      49.364  22.390  32.411  1.00  0.00     0.027 A 
ENDBRANCH   3   8
TORSDOF 2
ENDMDL
MODEL 5
REMARK VINA RESULT: -5.436394357      1.302      4.610
REMARK  2 active torsions:
REMARK  status: ('A' for Active; 'I' for Inactive)
REMARK       I    between atoms: C1_2  and  N1_3 
REMARK    1  A    between atoms: C1_2  and  C5_8 
REMARK    2  A    between atoms: N1_3  and  C2_5 
ROOT
HETATM    1  O1  UNL     1      54.594  24.400  27.202  1.00  0.00    -0.273 OA
HETATM    2  C1  UNL     1      54.929  23.199  27.348  1.00  0.00     0.222 C 
HETATM    3  N1  UNL     1      54.111  22.263  28.030  1.00  0.00    -0.356 N 
ATOM      4  H1  UNL     1      54.421  21.296  28.125  1.00  0.00     0.162 HD
ENDROOT
BRANCH   2   5
HETATM    5  C5  UNL     1      56.237  22.807  26.765  1.00  0.00     0.078 A 
HETATM    6  C6  UNL     1      56.743  23.472  25.545  1.00  0.00     0.015 A 
HETATM    7  C7  UNL     1      56.164  22.092  25.419  1.00  0.00     0.015 A 
ENDBRANCH   2   5
BRANCH   3   8
HETATM    8  C2  UNL     1      52.843  22.666  28.588  1.00  0.00     0.084 A 
HETATM    9  C3  UNL     1      51.611  21.975  27.968  1.00  0.00     0.027 A 
HETATM   10  C4  UNL     1      52.028  21.669  29.348  1.00  0.00     0.027 A 
ENDBRANCH   3   8
TORSDOF 2
ENDMDL
