MODEL 1
REMARK VINA RESULT: -6.422422111      0.000      0.000
REMARK  2 active torsions:
REMARK  status: ('A' for Active; 'I' for Inactive)
REMARK    1  A    between atoms: C1_2  and  N1_3 
REMARK       I    between atoms: N1_3  and  C2_5 
REMARK    2  A    between atoms: C2_5  and  C3_7 
ROOT
HETATM    1  C3  UNL     1      52.593  23.204  28.211  1.00  0.00     0.086 C 
HETATM    2  C4  UNL     1      52.606  22.281  29.437  1.00  0.00    -0.001 C 
HETATM    3  C5  UNL     1      51.477  22.886  30.212  1.00  0.00     0.006 C 
HETATM    4  C6  UNL     1      50.417  22.942  29.093  1.00  0.00     0.006 C 
HETATM    5  C7  UNL     1      51.286  22.532  27.936  1.00  0.00    -0.001 C 
HETATM    6  C8  UNL     1      51.938  21.276  28.537  1.00  0.00     0.011 C 
ENDROOT
BRANCH   1   7
HETATM    7  C2  UNL     1      53.702  22.998  27.295  1.00  0.00     0.228 C 
HETATM    8  N1  UNL     1      55.025  22.909  27.773  1.00  0.00    -0.305 N 
ATOM      9  H1  UNL     1      55.217  22.987  28.771  1.00  0.00     0.171 HD
HETATM   10  O2  UNL     1      53.484  22.899  26.062  1.00  0.00    -0.273 OA
BRANCH   8  11
HETATM   11  C1  UNL     1      56.080  22.709  26.856  1.00  0.00     0.355 C 
HETATM   12  O1  UNL     1      56.430  21.566  26.472  1.00  0.00    -0.283 OA
ENDBRANCH   8  11
ENDBRANCH   1   7
TORSDOF 2
ENDMDL
MODEL 2
REMARK VINA RESULT: -5.838524675      3.754      5.172
REMARK  2 active torsions:
REMARK  status: ('A' for Active; 'I' for Inactive)
REMARK    1  A    between atoms: C1_2  and  N1_3 
REMARK       I    between atoms: N1_3  and  C2_5 
REMARK    2  A    between atoms: C2_5  and  C3_7 
ROOT
HETATM    1  C3  UNL     1      51.688  23.158  29.492  1.00  0.00     0.086 C 
HETATM    2  C4  UNL     1      51.465  23.265  27.977  1.00  0.00    -0.001 C 
HETATM    3  C5  UNL     1      52.876  23.504  27.537  1.00  0.00     0.006 C 
HETATM    4  C6  UNL     1      53.567  22.358  28.303  1.00  0.00     0.006 C 
HETATM    5  C7  UNL     1      52.395  21.893  29.122  1.00  0.00    -0.001 C 
HETATM    6  C8  UNL     1      51.339  21.766  28.011  1.00  0.00     0.011 C 
ENDROOT
BRANCH   1   7
HETATM    7  C2  UNL     1      50.466  23.085  30.274  1.00  0.00     0.228 C 
HETATM    8  N1  UNL     1      50.434  22.391  31.499  1.00  0.00    -0.305 N 
ATOM      9  H1  UNL     1      51.272  21.930  31.852  1.00  0.00     0.171 HD
HETATM   10  O2  UNL     1      49.423  23.646  29.855  1.00  0.00    -0.273 OA
BRANCH   8  11
HETATM   11  C1  UNL     1      49.229  22.339  32.234  1.00  0.00     0.355 C 
HETATM   12  O1  UNL     1      49.188  21.972  33.434  1.00  0.00    -0.283 OA
ENDBRANCH   8  11
ENDBRANCH   1   7
TORSDOF 2
ENDMDL
MODEL 3
REMARK VINA RESULT: -5.788413976      1.245      1.245
REMARK  2 active torsions:
REMARK  status: ('A' for Active; 'I' for Inactive)
REMARK    1  A    between atoms: C1_2  and  N1_3 
REMARK       I    between atoms: N1_3  and  C2_5 
REMARK    2  A    between atoms: C2_5  and  C3_7 
ROOT
HETATM    1  C3  UNL     1      52.869  23.186  28.148  1.00  0.00     0.086 C 
HETATM    2  C4  UNL     1      52.700  22.277  29.373  1.00  0.00    -0.001 C 
HETATM    3  C5  UNL     1      51.453  22.873  29.950  1.00  0.00     0.006 C 
HETATM    4  C6  UNL     1      50.584  22.901  28.676  1.00  0.00     0.006 C 
HETATM    5  C7  UNL     1      51.632  22.491  27.678  1.00  0.00    -0.001 C 
HETATM    6  C8  UNL     1      52.197  21.252  28.392  1.00  0.00     0.011 C 
ENDROOT
BRANCH   1   7
HETATM    7  C2  UNL     1      54.113  22.988  27.424  1.00  0.00     0.228 C 
HETATM    8  N1  UNL     1      54.120  22.876  26.019  1.00  0.00    -0.305 N 
ATOM      9  H1  UNL     1      53.247  22.933  25.495  1.00  0.00     0.171 HD
HETATM   10  O2  UNL     1      55.198  22.915  28.053  1.00  0.00    -0.273 OA
BRANCH   8  11
HETATM   11  C1  UNL     1      55.346  22.683  25.346  1.00  0.00     0.355 C 
HETATM   12  O1  UNL     1      55.756  21.545  25.007  1.00  0.00    -0.283 OA
ENDBRANCH   8  11
ENDBRANCH   1   7
TORSDOF 2
ENDMDL
MODEL 4
REMARK VINA RESULT: -5.737604431      3.674      5.090
REMARK  2 active torsions:
REMARK  status: ('A' for Active; 'I' for Inactive)
REMARK    1  A    between atoms: C1_2  and  N1_3 
REMARK       I    between atoms: N1_3  and  C2_5 
REMARK    2  A    between atoms: C2_5  and  C3_7 
ROOT
HETATM    1  C3  UNL     1      52.141  22.840  29.549  1.00  0.00     0.086 C 
HETATM    2  C4  UNL     1      51.201  23.194  28.388  1.00  0.00    -0.001 C 
HETATM    3  C5  UNL     1      52.146  23.988  27.541  1.00  0.00     0.006 C 
HETATM    4  C6  UNL     1      53.336  23.007  27.518  1.00  0.00     0.006 C 
HETATM    5  C7  UNL     1      52.823  22.004  28.513  1.00  0.00    -0.001 C 
HETATM    6  C8  UNL     1      51.414  21.772  27.942  1.00  0.00     0.011 C 
ENDROOT
BRANCH   1   7
HETATM    7  C2  UNL     1      51.487  22.187  30.670  1.00  0.00     0.228 C 
HETATM    8  N1  UNL     1      50.362  22.768  31.288  1.00  0.00    -0.305 N 
ATOM      9  H1  UNL     1      49.993  23.658  30.952  1.00  0.00     0.171 HD
HETATM   10  O2  UNL     1      51.927  21.091  31.097  1.00  0.00    -0.273 OA
BRANCH   8  11
HETATM   11  C1  UNL     1      49.750  22.107  32.375  1.00  0.00     0.355 C 
HETATM   12  O1  UNL     1      48.734  22.565  32.955  1.00  0.00    -0.283 OA
ENDBRANCH   8  11
ENDBRANCH   1   7
TORSDOF 2
ENDMDL
MODEL 5
REMARK VINA RESULT: -5.632473057      2.556      3.755
REMARK  2 active torsions:
REMARK  status: ('A' for Active; 'I' for Inactive)
REMARK    1  A    between atoms: C1_2  and  N1_3 
REMARK       I    between atoms: N1_3  and  C2_5 
REMARK    2  A    between atoms: C2_5  and  C3_7 
ROOT
HETATM    1  C3  UNL     1      50.161  22.654  30.526  1.00  0.00     0.086 C 
HETATM    2  C4  UNL     1      50.393  23.796  31.525  1.00  0.00    -0.001 C 
HETATM    3  C5  UNL     1      49.153  23.655  32.352  1.00  0.00     0.006 C 
HETATM    4  C6  UNL     1      49.217  22.139  32.630  1.00  0.00     0.006 C 
HETATM    5  C7  UNL     1      50.371  21.792  31.730  1.00  0.00    -0.001 C 
HETATM    6  C8  UNL     1      51.379  22.864  32.178  1.00  0.00     0.011 C 
ENDROOT
BRANCH   1   7
HETATM    7  C2  UNL     1      51.126  22.603  29.441  1.00  0.00     0.228 C 
HETATM    8  N1  UNL     1      51.265  23.685  28.549  1.00  0.00    -0.305 N 
ATOM      9  H1  UNL     1      50.689  24.519  28.657  1.00  0.00     0.171 HD
HETATM   10  O2  UNL     1      51.845  21.584  29.292  1.00  0.00    -0.273 OA
BRANCH   8  11
HETATM   11  C1  UNL     1      52.212  23.603  27.504  1.00  0.00     0.355 C 
HETATM   12  O1  UNL     1      53.357  24.111  27.593  1.00  0.00    -0.283 OA
ENDBRANCH   8  11
ENDBRANCH   1   7
TORSDOF 2
ENDMDL
