MODEL 1
REMARK VINA RESULT: -7.172548590      0.000      0.000
REMARK  11 active torsions:
REMARK  status: ('A' for Active; 'I' for Inactive)
REMARK    1  A    between atoms: C2_2  and  C3_3 
REMARK    2  A    between atoms: C3_3  and  C4_4 
REMARK    3  A    between atoms: C4_4  and  C5_5 
REMARK    4  A    between atoms: C6_7  and  C7_8 
REMARK    5  A    between atoms: C7_8  and  C8_9 
REMARK    6  A    between atoms: C8_9  and  C9_10 
REMARK    7  A    between atoms: C9_10  and  C10_11 
REMARK    8  A    between atoms: C13_14  and  N1_15 
REMARK    9  A    between atoms: C17_23  and  O3_24 
REMARK   10  A    between atoms: C20_29  and  O5_30 
REMARK   11  A    between atoms: O5_30  and  C21_31 
ROOT
HETATM    1  C5  UNL     1      47.051   8.448  -0.536  1.00  0.00     0.171 C 
HETATM    2  O1  UNL     1      46.512   8.330  -1.821  1.00  0.00    -0.362 OA
HETATM    3  C6  UNL     1      46.930   7.023  -2.292  1.00  0.00     0.139 C 
HETATM    4  C13 UNL     1      45.669   6.213  -2.143  1.00  0.00     0.258 C 
HETATM    5  C14 UNL     1      45.738   4.931  -1.470  1.00  0.00     0.023 A 
HETATM    6  C15 UNL     1      44.927   3.789  -1.456  1.00  0.00     0.061 A 
HETATM    7  C16 UNL     1      43.685   3.700  -2.266  1.00  0.00     0.077 C 
HETATM    8  O2  UNL     1      45.470   2.933  -0.655  1.00  0.00    -0.292 OA
HETATM    9  C17 UNL     1      46.575   3.371  -0.115  1.00  0.00     0.198 A 
HETATM   10  C18 UNL     1      46.774   4.658  -0.622  1.00  0.00     0.083 A 
HETATM   11  C19 UNL     1      47.807   5.663  -0.430  1.00  0.00     0.209 C 
HETATM   12  O4  UNL     1      48.438   5.741   0.617  1.00  0.00    -0.288 OA
HETATM   13  C20 UNL     1      48.113   6.638  -1.549  1.00  0.00     0.209 C 
HETATM   14  C23 UNL     1      48.430   7.915  -0.764  1.00  0.00     0.056 C 
HETATM   15  N2  UNL     1      49.576   8.268  -0.481  1.00  0.00    -0.401 N 
ATOM     16  H21 UNL     1      50.516   7.905  -0.637  1.00  0.00     0.155 HD
ATOM     17  H22 UNL     1      49.787   9.118   0.041  1.00  0.00     0.155 HD
ENDROOT
BRANCH   3  18
HETATM   18  C7  UNL     1      47.135   7.359  -3.795  1.00  0.00     0.045 C 
BRANCH  18  19
HETATM   19  C8  UNL     1      47.191   8.831  -3.993  1.00  0.00     0.004 C 
BRANCH  19  20
HETATM   20  C9  UNL     1      46.870   9.318  -5.359  1.00  0.00     0.004 C 
BRANCH  20  21
HETATM   21  C10 UNL     1      47.889   9.997  -6.181  1.00  0.00    -0.023 C 
HETATM   22  C11 UNL     1      48.717  11.067  -5.558  1.00  0.00     0.009 C 
HETATM   23  C12 UNL     1      47.112  10.645  -7.355  1.00  0.00     0.009 C 
ENDBRANCH  20  21
ENDBRANCH  19  20
ENDBRANCH  18  19
ENDBRANCH   3  18
BRANCH   4  24
HETATM   24  N1  UNL     1      44.968   6.174  -3.414  1.00  0.00    -0.068 N 
ATOM     25  H13 UNL     1      45.092   7.034  -3.950  1.00  0.00     0.275 HD
ATOM     26  H12 UNL     1      45.401   5.528  -4.073  1.00  0.00     0.275 HD
ATOM     27  H11 UNL     1      43.985   5.958  -3.252  1.00  0.00     0.275 HD
ENDBRANCH   4  24
BRANCH  13  28
HETATM   28  O5  UNL     1      49.274   6.269  -2.199  1.00  0.00    -0.292 OA
BRANCH  28  29
HETATM   29  C21 UNL     1      49.649   5.143  -2.834  1.00  0.00     0.256 C 
HETATM   30  C22 UNL     1      48.697   4.234  -3.568  1.00  0.00     0.126 C 
HETATM   31  O6  UNL     1      50.828   4.797  -2.843  1.00  0.00    -0.266 OA
ENDBRANCH  28  29
ENDBRANCH  13  28
BRANCH   1  32
HETATM   32  C4  UNL     1      47.007   9.911  -0.206  1.00  0.00     0.038 C 
BRANCH  32  33
HETATM   33  C3  UNL     1      46.389  10.789  -1.230  1.00  0.00     0.002 C 
BRANCH  33  34
HETATM   34  C2  UNL     1      46.732  12.234  -0.867  1.00  0.00    -0.004 C 
HETATM   35  C1  UNL     1      47.318  12.320   0.517  1.00  0.00     0.005 C 
ENDBRANCH  33  34
ENDBRANCH  32  33
ENDBRANCH   1  32
BRANCH   9  36
HETATM   36  O3  UNL     1      47.459   2.792   0.784  1.00  0.00    -0.340 OA
ATOM     37  H3  UNL     1      48.006   3.165   1.465  1.00  0.00     0.220 HD
ENDBRANCH   9  36
TORSDOF 11
ENDMDL
MODEL 2
REMARK VINA RESULT: -6.914393820      1.582      1.842
REMARK  11 active torsions:
REMARK  status: ('A' for Active; 'I' for Inactive)
REMARK    1  A    between atoms: C2_2  and  C3_3 
REMARK    2  A    between atoms: C3_3  and  C4_4 
REMARK    3  A    between atoms: C4_4  and  C5_5 
REMARK    4  A    between atoms: C6_7  and  C7_8 
REMARK    5  A    between atoms: C7_8  and  C8_9 
REMARK    6  A    between atoms: C8_9  and  C9_10 
REMARK    7  A    between atoms: C9_10  and  C10_11 
REMARK    8  A    between atoms: C13_14  and  N1_15 
REMARK    9  A    between atoms: C17_23  and  O3_24 
REMARK   10  A    between atoms: C20_29  and  O5_30 
REMARK   11  A    between atoms: O5_30  and  C21_31 
ROOT
HETATM    1  C5  UNL     1      47.059   8.851  -1.265  1.00  0.00     0.171 C 
HETATM    2  O1  UNL     1      46.576   8.087  -2.333  1.00  0.00    -0.362 OA
HETATM    3  C6  UNL     1      46.875   6.712  -1.983  1.00  0.00     0.139 C 
HETATM    4  C13 UNL     1      45.528   6.194  -1.552  1.00  0.00     0.258 C 
HETATM    5  C14 UNL     1      45.425   5.482  -0.292  1.00  0.00     0.023 A 
HETATM    6  C15 UNL     1      44.496   4.585   0.250  1.00  0.00     0.061 A 
HETATM    7  C16 UNL     1      43.294   4.149  -0.507  1.00  0.00     0.077 C 
HETATM    8  O2  UNL     1      44.902   4.271   1.435  1.00  0.00    -0.292 OA
HETATM    9  C17 UNL     1      46.019   4.861   1.764  1.00  0.00     0.198 A 
HETATM   10  C18 UNL     1      46.380   5.650   0.669  1.00  0.00     0.083 A 
HETATM   11  C19 UNL     1      47.505   6.531   0.394  1.00  0.00     0.209 C 
HETATM   12  O4  UNL     1      48.086   7.125   1.294  1.00  0.00    -0.288 OA
HETATM   13  C20 UNL     1      47.970   6.719  -1.035  1.00  0.00     0.209 C 
HETATM   14  C23 UNL     1      48.383   8.194  -1.031  1.00  0.00     0.056 C 
HETATM   15  N2  UNL     1      49.544   8.572  -0.867  1.00  0.00    -0.401 N 
ATOM     16  H21 UNL     1      50.446   8.124  -0.707  1.00  0.00     0.155 HD
ATOM     17  H22 UNL     1      49.818   9.554  -0.865  1.00  0.00     0.155 HD
ENDROOT
BRANCH   3  18
HETATM   18  C7  UNL     1      47.192   6.163  -3.402  1.00  0.00     0.045 C 
BRANCH  18  19
HETATM   19  C8  UNL     1      47.149   7.260  -4.403  1.00  0.00     0.004 C 
BRANCH  19  20
HETATM   20  C9  UNL     1      46.188   7.085  -5.522  1.00  0.00     0.004 C 
BRANCH  20  21
HETATM   21  C10 UNL     1      45.695   8.246  -6.287  1.00  0.00    -0.023 C 
HETATM   22  C11 UNL     1      45.813   8.229  -7.772  1.00  0.00     0.009 C 
HETATM   23  C12 UNL     1      46.514   9.459  -5.777  1.00  0.00     0.009 C 
ENDBRANCH  20  21
ENDBRANCH  19  20
ENDBRANCH  18  19
ENDBRANCH   3  18
BRANCH   4  24
HETATM   24  N1  UNL     1      44.893   5.514  -2.666  1.00  0.00    -0.068 N 
ATOM     25  H13 UNL     1      45.493   5.483  -3.491  1.00  0.00     0.275 HD
ATOM     26  H12 UNL     1      44.810   4.510  -2.509  1.00  0.00     0.275 HD
ATOM     27  H11 UNL     1      43.992   5.950  -2.860  1.00  0.00     0.275 HD
ENDBRANCH   4  24
BRANCH  13  28
HETATM   28  O5  UNL     1      49.116   5.983  -1.264  1.00  0.00    -0.292 OA
BRANCH  28  29
HETATM   29  C21 UNL     1      49.498   4.746  -0.899  1.00  0.00     0.256 C 
HETATM   30  C22 UNL     1      48.676   3.506  -1.145  1.00  0.00     0.126 C 
HETATM   31  O6  UNL     1      50.572   4.567  -0.331  1.00  0.00    -0.266 OA
ENDBRANCH  28  29
ENDBRANCH  13  28
BRANCH   1  32
HETATM   32  C4  UNL     1      47.156  10.258  -1.778  1.00  0.00     0.038 C 
BRANCH  32  33
HETATM   33  C3  UNL     1      46.181  11.224  -1.213  1.00  0.00     0.002 C 
BRANCH  33  34
HETATM   34  C2  UNL     1      46.976  12.320  -0.502  1.00  0.00    -0.004 C 
HETATM   35  C1  UNL     1      47.664  11.779   0.724  1.00  0.00     0.005 C 
ENDBRANCH  33  34
ENDBRANCH  32  33
ENDBRANCH   1  32
BRANCH   9  36
HETATM   36  O3  UNL     1      46.788   4.809   2.917  1.00  0.00    -0.340 OA
ATOM     37  H3  UNL     1      47.575   4.322   3.133  1.00  0.00     0.220 HD
ENDBRANCH   9  36
TORSDOF 11
ENDMDL
MODEL 3
REMARK VINA RESULT: -6.741959106      2.665      4.225
REMARK  11 active torsions:
REMARK  status: ('A' for Active; 'I' for Inactive)
REMARK    1  A    between atoms: C2_2  and  C3_3 
REMARK    2  A    between atoms: C3_3  and  C4_4 
REMARK    3  A    between atoms: C4_4  and  C5_5 
REMARK    4  A    between atoms: C6_7  and  C7_8 
REMARK    5  A    between atoms: C7_8  and  C8_9 
REMARK    6  A    between atoms: C8_9  and  C9_10 
REMARK    7  A    between atoms: C9_10  and  C10_11 
REMARK    8  A    between atoms: C13_14  and  N1_15 
REMARK    9  A    between atoms: C17_23  and  O3_24 
REMARK   10  A    between atoms: C20_29  and  O5_30 
REMARK   11  A    between atoms: O5_30  and  C21_31 
ROOT
HETATM    1  C5  UNL     1      45.039   5.446   0.322  1.00  0.00     0.171 C 
HETATM    2  O1  UNL     1      45.359   6.559  -0.462  1.00  0.00    -0.362 OA
HETATM    3  C6  UNL     1      46.505   6.152  -1.252  1.00  0.00     0.139 C 
HETATM    4  C13 UNL     1      45.888   5.903  -2.603  1.00  0.00     0.258 C 
HETATM    5  C14 UNL     1      46.186   4.659  -3.287  1.00  0.00     0.023 A 
HETATM    6  C15 UNL     1      46.117   4.237  -4.621  1.00  0.00     0.061 A 
HETATM    7  C16 UNL     1      45.670   5.145  -5.709  1.00  0.00     0.077 C 
HETATM    8  O2  UNL     1      46.496   3.003  -4.661  1.00  0.00    -0.292 OA
HETATM    9  C17 UNL     1      46.821   2.532  -3.487  1.00  0.00     0.198 A 
HETATM   10  C18 UNL     1      46.630   3.578  -2.580  1.00  0.00     0.083 A 
HETATM   11  C19 UNL     1      46.819   3.708  -1.144  1.00  0.00     0.209 C 
HETATM   12  O4  UNL     1      46.706   2.746  -0.395  1.00  0.00    -0.288 OA
HETATM   13  C20 UNL     1      47.162   5.062  -0.559  1.00  0.00     0.209 C 
HETATM   14  C23 UNL     1      46.402   5.023   0.771  1.00  0.00     0.056 C 
HETATM   15  N2  UNL     1      46.926   4.707   1.840  1.00  0.00    -0.401 N 
ATOM     16  H21 UNL     1      47.855   4.418   2.146  1.00  0.00     0.155 HD
ATOM     17  H22 UNL     1      46.420   4.681   2.725  1.00  0.00     0.155 HD
ENDROOT
BRANCH   3  18
HETATM   18  C7  UNL     1      47.267   7.506  -1.292  1.00  0.00     0.045 C 
BRANCH  18  19
HETATM   19  C8  UNL     1      46.706   8.445  -0.285  1.00  0.00     0.004 C 
BRANCH  19  20
HETATM   20  C9  UNL     1      46.454   9.831  -0.755  1.00  0.00     0.004 C 
BRANCH  20  21
HETATM   21  C10 UNL     1      47.398  10.920  -0.444  1.00  0.00    -0.023 C 
HETATM   22  C11 UNL     1      47.813  11.128   0.972  1.00  0.00     0.009 C 
HETATM   23  C12 UNL     1      46.698  12.223  -0.910  1.00  0.00     0.009 C 
ENDBRANCH  20  21
ENDBRANCH  19  20
ENDBRANCH  18  19
ENDBRANCH   3  18
BRANCH   4  24
HETATM   24  N1  UNL     1      46.047   7.084  -3.432  1.00  0.00    -0.068 N 
ATOM     25  H13 UNL     1      45.153   7.438  -3.774  1.00  0.00     0.275 HD
ATOM     26  H12 UNL     1      46.329   7.900  -2.890  1.00  0.00     0.275 HD
ATOM     27  H11 UNL     1      46.697   6.880  -4.190  1.00  0.00     0.275 HD
ENDBRANCH   4  24
BRANCH  13  28
HETATM   28  O5  UNL     1      48.506   5.122  -0.250  1.00  0.00    -0.292 OA
BRANCH  28  29
HETATM   29  C21 UNL     1      49.620   4.850  -0.955  1.00  0.00     0.256 C 
HETATM   30  C22 UNL     1      49.748   5.066  -2.441  1.00  0.00     0.126 C 
HETATM   31  O6  UNL     1      50.616   4.399  -0.396  1.00  0.00    -0.266 OA
ENDBRANCH  28  29
ENDBRANCH  13  28
BRANCH   1  32
HETATM   32  C4  UNL     1      44.164   5.961   1.427  1.00  0.00     0.038 C 
BRANCH  32  33
HETATM   33  C3  UNL     1      42.702   5.913   1.173  1.00  0.00     0.002 C 
BRANCH  33  34
HETATM   34  C2  UNL     1      42.023   6.808   2.210  1.00  0.00    -0.004 C 
HETATM   35  C1  UNL     1      42.397   6.394   3.609  1.00  0.00     0.005 C 
ENDBRANCH  33  34
ENDBRANCH  32  33
ENDBRANCH   1  32
BRANCH   9  36
HETATM   36  O3  UNL     1      47.270   1.284  -3.083  1.00  0.00    -0.340 OA
ATOM     37  H3  UNL     1      47.104   0.773  -2.298  1.00  0.00     0.220 HD
ENDBRANCH   9  36
TORSDOF 11
ENDMDL
MODEL 4
REMARK VINA RESULT: -6.583485523      2.924      5.527
REMARK  11 active torsions:
REMARK  status: ('A' for Active; 'I' for Inactive)
REMARK    1  A    between atoms: C2_2  and  C3_3 
REMARK    2  A    between atoms: C3_3  and  C4_4 
REMARK    3  A    between atoms: C4_4  and  C5_5 
REMARK    4  A    between atoms: C6_7  and  C7_8 
REMARK    5  A    between atoms: C7_8  and  C8_9 
REMARK    6  A    between atoms: C8_9  and  C9_10 
REMARK    7  A    between atoms: C9_10  and  C10_11 
REMARK    8  A    between atoms: C13_14  and  N1_15 
REMARK    9  A    between atoms: C17_23  and  O3_24 
REMARK   10  A    between atoms: C20_29  and  O5_30 
REMARK   11  A    between atoms: O5_30  and  C21_31 
ROOT
HETATM    1  C5  UNL     1      45.864   4.283  -5.653  1.00  0.00     0.171 C 
HETATM    2  O1  UNL     1      46.448   5.465  -5.185  1.00  0.00    -0.362 OA
HETATM    3  C6  UNL     1      46.159   5.497  -3.764  1.00  0.00     0.139 C 
HETATM    4  C13 UNL     1      47.481   5.099  -3.161  1.00  0.00     0.258 C 
HETATM    5  C14 UNL     1      47.503   4.054  -2.156  1.00  0.00     0.023 A 
HETATM    6  C15 UNL     1      48.410   3.679  -1.157  1.00  0.00     0.061 A 
HETATM    7  C16 UNL     1      49.678   4.418  -0.931  1.00  0.00     0.077 C 
HETATM    8  O2  UNL     1      47.920   2.647  -0.552  1.00  0.00    -0.292 OA
HETATM    9  C17 UNL     1      46.766   2.274  -1.034  1.00  0.00     0.198 A 
HETATM   10  C18 UNL     1      46.471   3.163  -2.071  1.00  0.00     0.083 A 
HETATM   11  C19 UNL     1      45.349   3.301  -2.987  1.00  0.00     0.209 C 
HETATM   12  O4  UNL     1      44.684   2.332  -3.332  1.00  0.00    -0.288 OA
HETATM   13  C20 UNL     1      44.993   4.670  -3.526  1.00  0.00     0.209 C 
HETATM   14  C23 UNL     1      44.543   4.331  -4.951  1.00  0.00     0.056 C 
HETATM   15  N2  UNL     1      43.364   4.175  -5.269  1.00  0.00    -0.401 N 
ATOM     16  H21 UNL     1      42.464   4.207  -4.790  1.00  0.00     0.155 HD
ATOM     17  H22 UNL     1      43.064   3.949  -6.217  1.00  0.00     0.155 HD
ENDROOT
BRANCH   3  18
HETATM   18  C7  UNL     1      45.969   7.029  -3.588  1.00  0.00     0.045 C 
BRANCH  18  19
HETATM   19  C8  UNL     1      46.085   7.719  -4.899  1.00  0.00     0.004 C 
BRANCH  19  20
HETATM   20  C9  UNL     1      46.893   8.965  -4.911  1.00  0.00     0.004 C 
BRANCH  20  21
HETATM   21  C10 UNL     1      46.884   9.862  -6.081  1.00  0.00    -0.023 C 
HETATM   22  C11 UNL     1      46.904   9.263  -7.445  1.00  0.00     0.009 C 
HETATM   23  C12 UNL     1      48.159  10.734  -5.947  1.00  0.00     0.009 C 
ENDBRANCH  20  21
ENDBRANCH  19  20
ENDBRANCH  18  19
ENDBRANCH   3  18
BRANCH   4  24
HETATM   24  N1  UNL     1      48.219   6.292  -2.787  1.00  0.00    -0.068 N 
ATOM     25  H13 UNL     1      48.984   6.490  -3.433  1.00  0.00     0.275 HD
ATOM     26  H12 UNL     1      47.678   7.143  -2.936  1.00  0.00     0.275 HD
ATOM     27  H11 UNL     1      48.540   6.203  -1.823  1.00  0.00     0.275 HD
ENDBRANCH   4  24
BRANCH  13  28
HETATM   28  O5  UNL     1      43.888   5.170  -2.866  1.00  0.00    -0.292 OA
BRANCH  28  29
HETATM   29  C21 UNL     1      43.057   4.648  -1.945  1.00  0.00     0.256 C 
HETATM   30  C22 UNL     1      43.306   4.706  -0.459  1.00  0.00     0.126 C 
HETATM   31  O6  UNL     1      42.023   4.082  -2.289  1.00  0.00    -0.266 OA
ENDBRANCH  28  29
ENDBRANCH  13  28
BRANCH   1  32
HETATM   32  C4  UNL     1      45.771   4.434  -7.143  1.00  0.00     0.038 C 
BRANCH  32  33
HETATM   33  C3  UNL     1      45.767   5.827  -7.655  1.00  0.00     0.002 C 
BRANCH  33  34
HETATM   34  C2  UNL     1      44.370   6.113  -8.206  1.00  0.00    -0.004 C 
HETATM   35  C1  UNL     1      44.419   7.163  -9.284  1.00  0.00     0.005 C 
ENDBRANCH  33  34
ENDBRANCH  32  33
ENDBRANCH   1  32
BRANCH   9  36
HETATM   36  O3  UNL     1      45.910   1.239  -0.690  1.00  0.00    -0.340 OA
ATOM     37  H3  UNL     1      45.370   0.661  -1.216  1.00  0.00     0.220 HD
ENDBRANCH   9  36
TORSDOF 11
ENDMDL
MODEL 5
REMARK VINA RESULT: -6.578117906      2.703      4.800
REMARK  11 active torsions:
REMARK  status: ('A' for Active; 'I' for Inactive)
REMARK    1  A    between atoms: C2_2  and  C3_3 
REMARK    2  A    between atoms: C3_3  and  C4_4 
REMARK    3  A    between atoms: C4_4  and  C5_5 
REMARK    4  A    between atoms: C6_7  and  C7_8 
REMARK    5  A    between atoms: C7_8  and  C8_9 
REMARK    6  A    between atoms: C8_9  and  C9_10 
REMARK    7  A    between atoms: C9_10  and  C10_11 
REMARK    8  A    between atoms: C13_14  and  N1_15 
REMARK    9  A    between atoms: C17_23  and  O3_24 
REMARK   10  A    between atoms: C20_29  and  O5_30 
REMARK   11  A    between atoms: O5_30  and  C21_31 
ROOT
HETATM    1  C5  UNL     1      45.303   5.621  -0.028  1.00  0.00     0.171 C 
HETATM    2  O1  UNL     1      46.096   6.748  -0.269  1.00  0.00    -0.362 OA
HETATM    3  C6  UNL     1      47.085   6.318  -1.239  1.00  0.00     0.139 C 
HETATM    4  C13 UNL     1      46.566   6.930  -2.514  1.00  0.00     0.258 C 
HETATM    5  C14 UNL     1      46.450   6.093  -3.692  1.00  0.00     0.023 A 
HETATM    6  C15 UNL     1      46.371   6.347  -5.067  1.00  0.00     0.061 A 
HETATM    7  C16 UNL     1      46.413   7.728  -5.613  1.00  0.00     0.077 C 
HETATM    8  O2  UNL     1      46.264   5.209  -5.670  1.00  0.00    -0.292 OA
HETATM    9  C17 UNL     1      46.263   4.195  -4.847  1.00  0.00     0.198 A 
HETATM   10  C18 UNL     1      46.381   4.734  -3.564  1.00  0.00     0.083 A 
HETATM   11  C19 UNL     1      46.451   4.152  -2.232  1.00  0.00     0.209 C 
HETATM   12  O4  UNL     1      45.909   3.085  -1.973  1.00  0.00    -0.288 OA
HETATM   13  C20 UNL     1      47.210   4.878  -1.142  1.00  0.00     0.209 C 
HETATM   14  C23 UNL     1      46.354   4.563   0.089  1.00  0.00     0.056 C 
HETATM   15  N2  UNL     1      46.605   3.645   0.871  1.00  0.00    -0.401 N 
ATOM     16  H21 UNL     1      47.322   2.924   0.951  1.00  0.00     0.155 HD
ATOM     17  H22 UNL     1      46.036   3.436   1.691  1.00  0.00     0.155 HD
ENDROOT
BRANCH   3  18
HETATM   18  C7  UNL     1      48.296   7.154  -0.739  1.00  0.00     0.045 C 
BRANCH  18  19
HETATM   19  C8  UNL     1      47.995   7.762   0.583  1.00  0.00     0.004 C 
BRANCH  19  20
HETATM   20  C9  UNL     1      48.507   9.139   0.800  1.00  0.00     0.004 C 
BRANCH  20  21
HETATM   21  C10 UNL     1      47.603  10.302   0.740  1.00  0.00    -0.023 C 
HETATM   22  C11 UNL     1      47.603  11.149  -0.486  1.00  0.00     0.009 C 
HETATM   23  C12 UNL     1      48.017  11.213   1.924  1.00  0.00     0.009 C 
ENDBRANCH  20  21
ENDBRANCH  19  20
ENDBRANCH  18  19
ENDBRANCH   3  18
BRANCH   4  24
HETATM   24  N1  UNL     1      47.241   8.193  -2.752  1.00  0.00    -0.068 N 
ATOM     25  H13 UNL     1      47.351   8.738  -1.897  1.00  0.00     0.275 HD
ATOM     26  H12 UNL     1      48.228   8.067  -2.974  1.00  0.00     0.275 HD
ATOM     27  H11 UNL     1      46.745   8.709  -3.479  1.00  0.00     0.275 HD
ENDBRANCH   4  24
BRANCH  13  28
HETATM   28  O5  UNL     1      48.439   4.282  -0.938  1.00  0.00    -0.292 OA
BRANCH  28  29
HETATM   29  C21 UNL     1      49.682   4.580  -1.358  1.00  0.00     0.256 C 
HETATM   30  C22 UNL     1      50.057   4.771  -2.806  1.00  0.00     0.126 C 
HETATM   31  O6  UNL     1      50.597   4.714  -0.550  1.00  0.00    -0.266 OA
ENDBRANCH  28  29
ENDBRANCH  13  28
BRANCH   1  32
HETATM   32  C4  UNL     1      44.571   5.901   1.252  1.00  0.00     0.038 C 
BRANCH  32  33
HETATM   33  C3  UNL     1      43.138   5.513   1.278  1.00  0.00     0.002 C 
BRANCH  33  34
HETATM   34  C2  UNL     1      42.338   6.733   1.734  1.00  0.00    -0.004 C 
HETATM   35  C1  UNL     1      42.182   6.748   3.232  1.00  0.00     0.005 C 
ENDBRANCH  33  34
ENDBRANCH  32  33
ENDBRANCH   1  32
BRANCH   9  36
HETATM   36  O3  UNL     1      46.170   2.828  -5.063  1.00  0.00    -0.340 OA
ATOM     37  H3  UNL     1      45.988   2.105  -4.474  1.00  0.00     0.220 HD
ENDBRANCH   9  36
TORSDOF 11
ENDMDL
