MODEL 1
REMARK VINA RESULT: -7.410200270      0.000      0.000
REMARK  14 active torsions:
REMARK  status: ('A' for Active; 'I' for Inactive)
REMARK    1  A    between atoms: O1_2  and  C2_3 
REMARK    2  A    between atoms: C2_3  and  C3_5 
REMARK    3  A    between atoms: C3_5  and  C4_6 
REMARK    4  A    between atoms: C4_6  and  C5_7 
REMARK    5  A    between atoms: C5_7  and  C6_8 
REMARK    6  A    between atoms: C6_8  and  C7_9 
REMARK    7  A    between atoms: C7_9  and  O3_10 
REMARK    8  A    between atoms: C7_9  and  C8_12 
REMARK    9  A    between atoms: C8_12  and  C9_13 
REMARK   10  A    between atoms: C9_13  and  C10_14 
REMARK   11  A    between atoms: C10_14  and  O4_15 
REMARK   12  A    between atoms: C10_14  and  C11_17 
REMARK   13  A    between atoms: C12_18  and  C13_19 
REMARK   14  A    between atoms: C16_23  and  O6_24 
ROOT
HETATM    1  C11 UNL     1      47.890   9.092  -1.076  1.00  0.00     0.020 C 
HETATM    2  C12 UNL     1      48.875   8.491  -0.163  1.00  0.00    -0.025 C 
HETATM    3  C17 UNL     1      50.142   9.219   0.011  1.00  0.00     0.048 C 
HETATM    4  C18 UNL     1      50.887   8.822   1.273  1.00  0.00     0.018 C 
HETATM    5  C19 UNL     1      49.914  10.705   0.164  1.00  0.00     0.168 C 
HETATM    6  C20 UNL     1      48.941  11.123   1.194  1.00  0.00     0.039 C 
HETATM    7  C21 UNL     1      47.525  10.824   0.748  1.00  0.00     0.049 C 
HETATM    8  C22 UNL     1      47.524  10.516  -0.728  1.00  0.00     0.123 C 
HETATM    9  C23 UNL     1      46.182  10.980  -1.235  1.00  0.00     0.055 C 
HETATM   10  O7  UNL     1      48.412  11.422  -1.318  1.00  0.00    -0.225 OA
HETATM   11  O8  UNL     1      49.657  11.209  -1.104  1.00  0.00    -0.234 OA
ENDROOT
BRANCH   1  12
HETATM   12  C10 UNL     1      46.790   8.355  -1.695  1.00  0.00     0.075 C 
BRANCH  12  13
HETATM   13  C9  UNL     1      46.844   7.741  -2.989  1.00  0.00     0.035 C 
BRANCH  13  14
HETATM   14  C8  UNL     1      46.294   6.568  -3.340  1.00  0.00     0.007 C 
BRANCH  14  15
HETATM   15  C7  UNL     1      45.589   6.345  -4.601  1.00  0.00     0.141 C 
BRANCH  15  16
HETATM   16  C6  UNL     1      45.328   7.558  -5.458  1.00  0.00     0.036 C 
BRANCH  16  17
HETATM   17  C5  UNL     1      45.677   7.346  -6.911  1.00  0.00     0.003 C 
BRANCH  17  18
HETATM   18  C4  UNL     1      46.325   8.597  -7.506  1.00  0.00     0.010 C 
BRANCH  18  19
HETATM   19  C3  UNL     1      46.944   9.374  -6.332  1.00  0.00     0.111 C 
BRANCH  19  20
HETATM   20  C2  UNL     1      47.648  10.591  -6.874  1.00  0.00     0.258 C 
HETATM   21  O2  UNL     1      47.302  11.085  -7.947  1.00  0.00    -0.265 OA
BRANCH  20  22
HETATM   22  O1  UNL     1      48.682  11.137  -6.152  1.00  0.00    -0.326 OA
HETATM   23  C1  UNL     1      48.882  11.187  -4.801  1.00  0.00     0.213 C 
ENDBRANCH  20  22
ENDBRANCH  19  20
ENDBRANCH  18  19
ENDBRANCH  17  18
ENDBRANCH  16  17
ENDBRANCH  15  16
BRANCH  15  24
HETATM   24  O3  UNL     1      46.447   5.567  -5.453  1.00  0.00    -0.392 OA
ATOM     25  H3  UNL     1      47.279   5.636  -5.000  1.00  0.00     0.210 HD
ENDBRANCH  15  24
ENDBRANCH  14  15
ENDBRANCH  13  14
ENDBRANCH  12  13
BRANCH  12  26
HETATM   26  O4  UNL     1      46.190   7.506  -0.682  1.00  0.00    -0.360 OA
ATOM     27  H4  UNL     1      45.551   7.959  -0.143  1.00  0.00     0.217 HD
ENDBRANCH  12  26
ENDBRANCH   1  12
BRANCH   2  28
HETATM   28  C13 UNL     1      49.119   7.027  -0.273  1.00  0.00     0.031 A 
HETATM   29  C14 UNL     1      49.520   6.300  -1.370  1.00  0.00     0.041 A 
HETATM   30  C15 UNL     1      49.394   4.938  -1.075  1.00  0.00     0.146 A 
HETATM   31  O5  UNL     1      48.948   4.836   0.120  1.00  0.00    -0.300 OA
HETATM   32  C16 UNL     1      48.768   6.023   0.640  1.00  0.00     0.193 A 
BRANCH  32  33
HETATM   33  O6  UNL     1      48.301   6.162   1.928  1.00  0.00    -0.340 OA
ATOM     34  H6  UNL     1      48.136   5.484   2.572  1.00  0.00     0.220 HD
ENDBRANCH  32  33
ENDBRANCH   2  28
TORSDOF 14
ENDMDL
MODEL 2
REMARK VINA RESULT: -7.357490130      1.568      4.858
REMARK  14 active torsions:
REMARK  status: ('A' for Active; 'I' for Inactive)
REMARK    1  A    between atoms: O1_2  and  C2_3 
REMARK    2  A    between atoms: C2_3  and  C3_5 
REMARK    3  A    between atoms: C3_5  and  C4_6 
REMARK    4  A    between atoms: C4_6  and  C5_7 
REMARK    5  A    between atoms: C5_7  and  C6_8 
REMARK    6  A    between atoms: C6_8  and  C7_9 
REMARK    7  A    between atoms: C7_9  and  O3_10 
REMARK    8  A    between atoms: C7_9  and  C8_12 
REMARK    9  A    between atoms: C8_12  and  C9_13 
REMARK   10  A    between atoms: C9_13  and  C10_14 
REMARK   11  A    between atoms: C10_14  and  O4_15 
REMARK   12  A    between atoms: C10_14  and  C11_17 
REMARK   13  A    between atoms: C12_18  and  C13_19 
REMARK   14  A    between atoms: C16_23  and  O6_24 
ROOT
HETATM    1  C11 UNL     1      47.119   7.500  -2.104  1.00  0.00     0.020 C 
HETATM    2  C12 UNL     1      47.825   8.310  -1.098  1.00  0.00    -0.025 C 
HETATM    3  C17 UNL     1      47.920   7.740   0.256  1.00  0.00     0.048 C 
HETATM    4  C18 UNL     1      49.024   8.369   1.088  1.00  0.00     0.018 C 
HETATM    5  C19 UNL     1      48.271   6.271   0.219  1.00  0.00     0.168 C 
HETATM    6  C20 UNL     1      49.456   5.893  -0.576  1.00  0.00     0.039 C 
HETATM    7  C21 UNL     1      49.161   5.988  -2.058  1.00  0.00     0.049 C 
HETATM    8  C22 UNL     1      47.671   6.103  -2.261  1.00  0.00     0.123 C 
HETATM    9  C23 UNL     1      47.395   5.445  -3.590  1.00  0.00     0.055 C 
HETATM   10  O7  UNL     1      47.082   5.223  -1.348  1.00  0.00    -0.225 OA
HETATM   11  O8  UNL     1      47.111   5.586  -0.119  1.00  0.00    -0.234 OA
ENDROOT
BRANCH   1  12
HETATM   12  C10 UNL     1      46.563   8.037  -3.345  1.00  0.00     0.075 C 
BRANCH  12  13
HETATM   13  C9  UNL     1      47.340   8.571  -4.424  1.00  0.00     0.035 C 
BRANCH  13  14
HETATM   14  C8  UNL     1      47.363   9.847  -4.837  1.00  0.00     0.007 C 
BRANCH  14  15
HETATM   15  C7  UNL     1      47.933  10.280  -6.113  1.00  0.00     0.141 C 
BRANCH  15  16
HETATM   16  C6  UNL     1      47.012  11.013  -7.055  1.00  0.00     0.036 C 
BRANCH  16  17
HETATM   17  C5  UNL     1      46.622  10.195  -8.262  1.00  0.00     0.003 C 
BRANCH  17  18
HETATM   18  C4  UNL     1      46.875   8.707  -8.019  1.00  0.00     0.010 C 
BRANCH  18  19
HETATM   19  C3  UNL     1      45.498   8.023  -8.003  1.00  0.00     0.111 C 
BRANCH  19  20
HETATM   20  C2  UNL     1      45.579   6.790  -7.139  1.00  0.00     0.258 C 
HETATM   21  O2  UNL     1      46.644   6.184  -7.018  1.00  0.00    -0.265 OA
BRANCH  20  22
HETATM   22  O1  UNL     1      44.447   6.353  -6.495  1.00  0.00    -0.326 OA
HETATM   23  C1  UNL     1      44.035   5.083  -6.204  1.00  0.00     0.213 C 
ENDBRANCH  20  22
ENDBRANCH  19  20
ENDBRANCH  18  19
ENDBRANCH  17  18
ENDBRANCH  16  17
ENDBRANCH  15  16
BRANCH  15  24
HETATM   24  O3  UNL     1      48.922  11.286  -5.833  1.00  0.00    -0.392 OA
ATOM     25  H3  UNL     1      49.608  10.772  -5.424  1.00  0.00     0.210 HD
ENDBRANCH  15  24
ENDBRANCH  14  15
ENDBRANCH  13  14
ENDBRANCH  12  13
BRANCH  12  26
HETATM   26  O4  UNL     1      45.504   7.149  -3.786  1.00  0.00    -0.360 OA
ATOM     27  H4  UNL     1      44.635   7.453  -3.548  1.00  0.00     0.217 HD
ENDBRANCH  12  26
ENDBRANCH   1  12
BRANCH   2  28
HETATM   28  C13 UNL     1      47.517   9.764  -1.039  1.00  0.00     0.031 A 
HETATM   29  C14 UNL     1      46.311  10.381  -0.801  1.00  0.00     0.041 A 
HETATM   30  C15 UNL     1      46.447  11.748  -1.068  1.00  0.00     0.146 A 
HETATM   31  O5  UNL     1      47.652  11.955  -1.443  1.00  0.00    -0.300 OA
HETATM   32  C16 UNL     1      48.327  10.834  -1.445  1.00  0.00     0.193 A 
BRANCH  32  33
HETATM   33  O6  UNL     1      49.655  10.814  -1.805  1.00  0.00    -0.340 OA
ATOM     34  H6  UNL     1      50.253  11.547  -1.898  1.00  0.00     0.220 HD
ENDBRANCH  32  33
ENDBRANCH   2  28
TORSDOF 14
ENDMDL
MODEL 3
REMARK VINA RESULT: -7.314884708      3.572      6.545
REMARK  14 active torsions:
REMARK  status: ('A' for Active; 'I' for Inactive)
REMARK    1  A    between atoms: O1_2  and  C2_3 
REMARK    2  A    between atoms: C2_3  and  C3_5 
REMARK    3  A    between atoms: C3_5  and  C4_6 
REMARK    4  A    between atoms: C4_6  and  C5_7 
REMARK    5  A    between atoms: C5_7  and  C6_8 
REMARK    6  A    between atoms: C6_8  and  C7_9 
REMARK    7  A    between atoms: C7_9  and  O3_10 
REMARK    8  A    between atoms: C7_9  and  C8_12 
REMARK    9  A    between atoms: C8_12  and  C9_13 
REMARK   10  A    between atoms: C9_13  and  C10_14 
REMARK   11  A    between atoms: C10_14  and  O4_15 
REMARK   12  A    between atoms: C10_14  and  C11_17 
REMARK   13  A    between atoms: C12_18  and  C13_19 
REMARK   14  A    between atoms: C16_23  and  O6_24 
ROOT
HETATM    1  C11 UNL     1      47.941   7.718  -0.270  1.00  0.00     0.020 C 
HETATM    2  C12 UNL     1      47.806   7.602  -1.731  1.00  0.00    -0.025 C 
HETATM    3  C17 UNL     1      46.957   8.605  -2.395  1.00  0.00     0.048 C 
HETATM    4  C18 UNL     1      47.231   8.722  -3.884  1.00  0.00     0.018 C 
HETATM    5  C19 UNL     1      47.211   9.994  -1.858  1.00  0.00     0.168 C 
HETATM    6  C20 UNL     1      48.615  10.450  -1.838  1.00  0.00     0.039 C 
HETATM    7  C21 UNL     1      49.392   9.749  -0.744  1.00  0.00     0.049 C 
HETATM    8  C22 UNL     1      48.426   9.071   0.194  1.00  0.00     0.123 C 
HETATM    9  C23 UNL     1      49.099   9.087   1.544  1.00  0.00     0.055 C 
HETATM   10  O7  UNL     1      47.358   9.958   0.366  1.00  0.00    -0.225 OA
HETATM   11  O8  UNL     1      46.563  10.079  -0.632  1.00  0.00    -0.234 OA
ENDROOT
BRANCH   1  12
HETATM   12  C10 UNL     1      48.372   6.626   0.601  1.00  0.00     0.075 C 
BRANCH  12  13
HETATM   13  C9  UNL     1      47.553   5.514   0.984  1.00  0.00     0.035 C 
BRANCH  13  14
HETATM   14  C8  UNL     1      46.221   5.522   1.147  1.00  0.00     0.007 C 
BRANCH  14  15
HETATM   15  C7  UNL     1      45.472   4.436   1.778  1.00  0.00     0.141 C 
BRANCH  15  16
HETATM   16  C6  UNL     1      44.267   3.920   1.034  1.00  0.00     0.036 C 
BRANCH  16  17
HETATM   17  C5  UNL     1      43.638   4.953   0.131  1.00  0.00     0.003 C 
BRANCH  17  18
HETATM   18  C4  UNL     1      42.241   5.333   0.624  1.00  0.00     0.010 C 
BRANCH  18  19
HETATM   19  C3  UNL     1      42.411   6.579   1.509  1.00  0.00     0.111 C 
BRANCH  19  20
HETATM   20  C2  UNL     1      41.941   6.252   2.904  1.00  0.00     0.258 C 
HETATM   21  O2  UNL     1      41.559   5.115   3.181  1.00  0.00    -0.265 OA
BRANCH  20  22
HETATM   22  O1  UNL     1      41.943   7.242   3.856  1.00  0.00    -0.326 OA
HETATM   23  C1  UNL     1      42.629   7.327   5.036  1.00  0.00     0.213 C 
ENDBRANCH  20  22
ENDBRANCH  19  20
ENDBRANCH  18  19
ENDBRANCH  17  18
ENDBRANCH  16  17
ENDBRANCH  15  16
BRANCH  15  24
HETATM   24  O3  UNL     1      46.319   3.273   1.800  1.00  0.00    -0.392 OA
ATOM     25  H3  UNL     1      47.127   3.632   2.148  1.00  0.00     0.210 HD
ENDBRANCH  15  24
ENDBRANCH  14  15
ENDBRANCH  13  14
ENDBRANCH  12  13
BRANCH  12  26
HETATM   26  O4  UNL     1      49.716   6.241   0.209  1.00  0.00    -0.360 OA
ATOM     27  H4  UNL     1      50.034   5.471   0.666  1.00  0.00     0.217 HD
ENDBRANCH  12  26
ENDBRANCH   1  12
BRANCH   2  28
HETATM   28  C13 UNL     1      47.569   6.249  -2.301  1.00  0.00     0.031 A 
HETATM   29  C14 UNL     1      46.380   5.573  -2.452  1.00  0.00     0.041 A 
HETATM   30  C15 UNL     1      46.660   4.250  -2.813  1.00  0.00     0.146 A 
HETATM   31  O5  UNL     1      47.931   4.124  -2.881  1.00  0.00    -0.300 OA
HETATM   32  C16 UNL     1      48.516   5.258  -2.593  1.00  0.00     0.193 A 
BRANCH  32  33
HETATM   33  O6  UNL     1      49.889   5.364  -2.612  1.00  0.00    -0.340 OA
ATOM     34  H6  UNL     1      50.528   4.714  -2.878  1.00  0.00     0.220 HD
ENDBRANCH  32  33
ENDBRANCH   2  28
TORSDOF 14
ENDMDL
MODEL 4
REMARK VINA RESULT: -7.168586313      1.449      3.183
REMARK  14 active torsions:
REMARK  status: ('A' for Active; 'I' for Inactive)
REMARK    1  A    between atoms: O1_2  and  C2_3 
REMARK    2  A    between atoms: C2_3  and  C3_5 
REMARK    3  A    between atoms: C3_5  and  C4_6 
REMARK    4  A    between atoms: C4_6  and  C5_7 
REMARK    5  A    between atoms: C5_7  and  C6_8 
REMARK    6  A    between atoms: C6_8  and  C7_9 
REMARK    7  A    between atoms: C7_9  and  O3_10 
REMARK    8  A    between atoms: C7_9  and  C8_12 
REMARK    9  A    between atoms: C8_12  and  C9_13 
REMARK   10  A    between atoms: C9_13  and  C10_14 
REMARK   11  A    between atoms: C10_14  and  O4_15 
REMARK   12  A    between atoms: C10_14  and  C11_17 
REMARK   13  A    between atoms: C12_18  and  C13_19 
REMARK   14  A    between atoms: C16_23  and  O6_24 
ROOT
HETATM    1  C11 UNL     1      47.871   9.132  -1.819  1.00  0.00     0.020 C 
HETATM    2  C12 UNL     1      48.224   8.034  -0.905  1.00  0.00    -0.025 C 
HETATM    3  C17 UNL     1      49.386   8.256  -0.028  1.00  0.00     0.048 C 
HETATM    4  C18 UNL     1      49.408   7.327   1.174  1.00  0.00     0.018 C 
HETATM    5  C19 UNL     1      49.376   9.642   0.571  1.00  0.00     0.168 C 
HETATM    6  C20 UNL     1      48.136  10.060   1.255  1.00  0.00     0.039 C 
HETATM    7  C21 UNL     1      47.040  10.349   0.251  1.00  0.00     0.049 C 
HETATM    8  C22 UNL     1      47.644  10.455  -1.126  1.00  0.00     0.123 C 
HETATM    9  C23 UNL     1      46.772  11.433  -1.873  1.00  0.00     0.055 C 
HETATM   10  O7  UNL     1      48.844  11.158  -0.975  1.00  0.00    -0.225 OA
HETATM   11  O8  UNL     1      49.805  10.516  -0.421  1.00  0.00    -0.234 OA
ENDROOT
BRANCH   1  12
HETATM   12  C10 UNL     1      47.053   8.968  -3.019  1.00  0.00     0.075 C 
BRANCH  12  13
HETATM   13  C9  UNL     1      47.554   9.011  -4.361  1.00  0.00     0.035 C 
BRANCH  13  14
HETATM   14  C8  UNL     1      47.395  10.012  -5.240  1.00  0.00     0.007 C 
BRANCH  14  15
HETATM   15  C7  UNL     1      48.053  10.062  -6.545  1.00  0.00     0.141 C 
BRANCH  15  16
HETATM   16  C6  UNL     1      47.618   9.041  -7.565  1.00  0.00     0.036 C 
BRANCH  16  17
HETATM   17  C5  UNL     1      46.130   9.056  -7.825  1.00  0.00     0.003 C 
BRANCH  17  18
HETATM   18  C4  UNL     1      45.572   7.633  -7.888  1.00  0.00     0.010 C 
BRANCH  18  19
HETATM   19  C3  UNL     1      45.107   7.278  -6.466  1.00  0.00     0.111 C 
BRANCH  19  20
HETATM   20  C2  UNL     1      45.920   6.111  -5.967  1.00  0.00     0.258 C 
HETATM   21  O2  UNL     1      46.772   5.593  -6.687  1.00  0.00    -0.265 OA
BRANCH  20  22
HETATM   22  O1  UNL     1      45.691   5.636  -4.698  1.00  0.00    -0.326 OA
HETATM   23  C1  UNL     1      44.576   5.050  -4.166  1.00  0.00     0.213 C 
ENDBRANCH  20  22
ENDBRANCH  19  20
ENDBRANCH  18  19
ENDBRANCH  17  18
ENDBRANCH  16  17
ENDBRANCH  15  16
BRANCH  15  24
HETATM   24  O3  UNL     1      47.670  11.292  -7.184  1.00  0.00    -0.392 OA
ATOM     25  H3  UNL     1      46.980  11.599  -6.609  1.00  0.00     0.210 HD
ENDBRANCH  15  24
ENDBRANCH  14  15
ENDBRANCH  13  14
ENDBRANCH  12  13
BRANCH  12  26
HETATM   26  O4  UNL     1      46.129   7.873  -2.787  1.00  0.00    -0.360 OA
ATOM     27  H4  UNL     1      45.244   8.162  -2.597  1.00  0.00     0.217 HD
ENDBRANCH  12  26
ENDBRANCH   1  12
BRANCH   2  28
HETATM   28  C13 UNL     1      48.233   6.651  -1.453  1.00  0.00     0.031 A 
HETATM   29  C14 UNL     1      49.108   6.084  -2.350  1.00  0.00     0.041 A 
HETATM   30  C15 UNL     1      48.598   4.845  -2.752  1.00  0.00     0.146 A 
HETATM   31  O5  UNL     1      47.487   4.664  -2.144  1.00  0.00    -0.300 OA
HETATM   32  C16 UNL     1      47.221   5.684  -1.370  1.00  0.00     0.193 A 
BRANCH  32  33
HETATM   33  O6  UNL     1      46.077   5.706  -0.605  1.00  0.00    -0.340 OA
ATOM     34  H6  UNL     1      45.272   6.187  -0.761  1.00  0.00     0.220 HD
ENDBRANCH  32  33
ENDBRANCH   2  28
TORSDOF 14
ENDMDL
MODEL 5
REMARK VINA RESULT: -7.142975097      1.274      2.012
REMARK  14 active torsions:
REMARK  status: ('A' for Active; 'I' for Inactive)
REMARK    1  A    between atoms: O1_2  and  C2_3 
REMARK    2  A    between atoms: C2_3  and  C3_5 
REMARK    3  A    between atoms: C3_5  and  C4_6 
REMARK    4  A    between atoms: C4_6  and  C5_7 
REMARK    5  A    between atoms: C5_7  and  C6_8 
REMARK    6  A    between atoms: C6_8  and  C7_9 
REMARK    7  A    between atoms: C7_9  and  O3_10 
REMARK    8  A    between atoms: C7_9  and  C8_12 
REMARK    9  A    between atoms: C8_12  and  C9_13 
REMARK   10  A    between atoms: C9_13  and  C10_14 
REMARK   11  A    between atoms: C10_14  and  O4_15 
REMARK   12  A    between atoms: C10_14  and  C11_17 
REMARK   13  A    between atoms: C12_18  and  C13_19 
REMARK   14  A    between atoms: C16_23  and  O6_24 
ROOT
HETATM    1  C11 UNL     1      47.929   8.930  -1.051  1.00  0.00     0.020 C 
HETATM    2  C12 UNL     1      48.922   8.392  -0.108  1.00  0.00    -0.025 C 
HETATM    3  C17 UNL     1      50.166   9.165   0.050  1.00  0.00     0.048 C 
HETATM    4  C18 UNL     1      50.910   8.837   1.332  1.00  0.00     0.018 C 
HETATM    5  C19 UNL     1      49.892  10.647   0.145  1.00  0.00     0.168 C 
HETATM    6  C20 UNL     1      48.897  11.074   1.150  1.00  0.00     0.039 C 
HETATM    7  C21 UNL     1      47.496  10.717   0.703  1.00  0.00     0.049 C 
HETATM    8  C22 UNL     1      47.518  10.355  -0.760  1.00  0.00     0.123 C 
HETATM    9  C23 UNL     1      46.168  10.759  -1.296  1.00  0.00     0.055 C 
HETATM   10  O7  UNL     1      48.385  11.264  -1.376  1.00  0.00    -0.225 OA
HETATM   11  O8  UNL     1      49.633  11.096  -1.144  1.00  0.00    -0.234 OA
ENDROOT
BRANCH   1  12
HETATM   12  C10 UNL     1      46.857   8.138  -1.652  1.00  0.00     0.075 C 
BRANCH  12  13
HETATM   13  C9  UNL     1      46.981   7.382  -2.863  1.00  0.00     0.035 C 
BRANCH  13  14
HETATM   14  C8  UNL     1      45.996   7.095  -3.729  1.00  0.00     0.007 C 
BRANCH  14  15
HETATM   15  C7  UNL     1      45.774   7.820  -4.979  1.00  0.00     0.141 C 
BRANCH  15  16
HETATM   16  C6  UNL     1      46.932   8.621  -5.516  1.00  0.00     0.036 C 
BRANCH  16  17
HETATM   17  C5  UNL     1      46.613  10.086  -5.690  1.00  0.00     0.003 C 
BRANCH  17  18
HETATM   18  C4  UNL     1      46.984  10.563  -7.095  1.00  0.00     0.010 C 
BRANCH  18  19
HETATM   19  C3  UNL     1      47.244   9.301  -7.935  1.00  0.00     0.111 C 
BRANCH  19  20
HETATM   20  C2  UNL     1      46.116   9.134  -8.921  1.00  0.00     0.258 C 
HETATM   21  O2  UNL     1      46.093   9.797  -9.958  1.00  0.00    -0.265 OA
BRANCH  20  22
HETATM   22  O1  UNL     1      45.116   8.234  -8.642  1.00  0.00    -0.326 OA
HETATM   23  C1  UNL     1      44.604   7.223  -9.406  1.00  0.00     0.213 C 
ENDBRANCH  20  22
ENDBRANCH  19  20
ENDBRANCH  18  19
ENDBRANCH  17  18
ENDBRANCH  16  17
ENDBRANCH  15  16
BRANCH  15  24
HETATM   24  O3  UNL     1      45.585   6.848  -6.022  1.00  0.00    -0.392 OA
ATOM     25  H3  UNL     1      45.270   6.099  -5.531  1.00  0.00     0.210 HD
ENDBRANCH  15  24
ENDBRANCH  14  15
ENDBRANCH  13  14
ENDBRANCH  12  13
BRANCH  12  26
HETATM   26  O4  UNL     1      46.184   7.413  -0.590  1.00  0.00    -0.360 OA
ATOM     27  H4  UNL     1      45.271   7.657  -0.488  1.00  0.00     0.217 HD
ENDBRANCH  12  26
ENDBRANCH   1  12
BRANCH   2  28
HETATM   28  C13 UNL     1      49.211   6.934  -0.161  1.00  0.00     0.031 A 
HETATM   29  C14 UNL     1      49.824   6.212  -1.159  1.00  0.00     0.041 A 
HETATM   30  C15 UNL     1      49.671   4.848  -0.883  1.00  0.00     0.146 A 
HETATM   31  O5  UNL     1      49.011   4.741   0.207  1.00  0.00    -0.300 OA
HETATM   32  C16 UNL     1      48.715   5.926   0.677  1.00  0.00     0.193 A 
BRANCH  32  33
HETATM   33  O6  UNL     1      48.012   6.059   1.853  1.00  0.00    -0.340 OA
ATOM     34  H6  UNL     1      48.342   6.034   2.744  1.00  0.00     0.220 HD
ENDBRANCH  32  33
ENDBRANCH   2  28
TORSDOF 14
ENDMDL
