MODEL 1
REMARK VINA RESULT: -8.239061008      0.000      0.000
REMARK  15 active torsions:
REMARK  status: ('A' for Active; 'I' for Inactive)
REMARK    1  A    between atoms: O1_2  and  C2_3 
REMARK    2  A    between atoms: C2_3  and  O2_5 
REMARK    3  A    between atoms: C2_3  and  C4_7 
REMARK    4  A    between atoms: C4_7  and  O4_9 
REMARK    5  A    between atoms: O4_9  and  C5_10 
REMARK    6  A    between atoms: C7_12  and  O5_13 
REMARK    7  A    between atoms: C8_15  and  O6_16 
REMARK    8  A    between atoms: C10_19  and  C11_20 
REMARK    9  A    between atoms: C12_21  and  C13_22 
REMARK   10  A    between atoms: C13_22  and  O8_24 
REMARK   11  A    between atoms: O8_24  and  C14_25 
REMARK   12  A    between atoms: C14_25  and  C15_26 
REMARK   13  A    between atoms: C16_27  and  C18_29 
REMARK   14  A    between atoms: C18_29  and  C19_30 
REMARK   15  A    between atoms: C19_30  and  C20_31 
ROOT
HETATM    1  C5  UNL     1      48.317   7.498  -1.450  1.00  0.00     0.092 A 
HETATM    2  C6  UNL     1      48.637   6.551  -2.373  1.00  0.00     0.077 A 
HETATM    3  C7  UNL     1      47.687   5.776  -3.009  1.00  0.00     0.101 A 
HETATM    4  C8  UNL     1      46.367   5.967  -2.699  1.00  0.00     0.099 A 
HETATM    5  C9  UNL     1      46.012   6.942  -1.747  1.00  0.00     0.053 A 
HETATM    6  C10 UNL     1      46.951   7.711  -1.112  1.00  0.00     0.001 A 
ENDROOT
BRANCH   6   7
HETATM    7  C11 UNL     1      46.633   8.772  -0.195  1.00  0.00     0.020 C 
HETATM    8  C12 UNL     1      46.567  10.029  -0.289  1.00  0.00     0.083 C 
BRANCH   8   9
HETATM    9  C13 UNL     1      46.740  11.064  -1.274  1.00  0.00     0.283 C 
HETATM   10  O7  UNL     1      45.909  11.928  -1.624  1.00  0.00    -0.260 OA
BRANCH   9  11
HETATM   11  O8  UNL     1      47.959  11.182  -1.971  1.00  0.00    -0.314 OA
BRANCH  11  12
HETATM   12  C14 UNL     1      48.248  10.785  -3.258  1.00  0.00     0.206 C 
BRANCH  12  13
HETATM   13  C15 UNL     1      47.315   9.885  -3.932  1.00  0.00     0.002 C 
HETATM   14  C16 UNL     1      47.198   9.796  -5.230  1.00  0.00    -0.085 C 
HETATM   15  C17 UNL     1      48.045  10.629  -6.119  1.00  0.00     0.043 C 
BRANCH  14  16
HETATM   16  C18 UNL     1      46.195   8.837  -5.791  1.00  0.00     0.037 C 
BRANCH  16  17
HETATM   17  C19 UNL     1      46.634   8.254  -7.100  1.00  0.00     0.031 C 
BRANCH  17  18
HETATM   18  C20 UNL     1      45.485   7.490  -7.659  1.00  0.00    -0.024 C 
HETATM   19  C21 UNL     1      45.034   7.709  -8.893  1.00  0.00    -0.091 C 
HETATM   20  C22 UNL     1      43.896   6.967  -9.473  1.00  0.00     0.042 C 
HETATM   21  C23 UNL     1      45.715   8.757  -9.724  1.00  0.00     0.042 C 
ENDBRANCH  17  18
ENDBRANCH  16  17
ENDBRANCH  14  16
ENDBRANCH  12  13
ENDBRANCH  11  12
ENDBRANCH   9  11
ENDBRANCH   8   9
ENDBRANCH   6   7
BRANCH   1  22
HETATM   22  O4  UNL     1      49.305   8.247  -0.841  1.00  0.00    -0.274 OA
BRANCH  22  23
HETATM   23  C4  UNL     1      49.616   8.082   0.525  1.00  0.00     0.327 C 
HETATM   24  O3  UNL     1      49.557   6.898   0.936  1.00  0.00    -0.259 OA
BRANCH  23  25
HETATM   25  C2  UNL     1      49.975   9.236   1.347  1.00  0.00     0.249 C 
HETATM   26  C3  UNL     1      50.343  10.394   0.447  1.00  0.00     0.090 C 
BRANCH  25  27
HETATM   27  O1  UNL     1      49.035   9.560   2.273  1.00  0.00    -0.352 OA
HETATM   28  C1  UNL     1      48.826  10.865   2.580  1.00  0.00     0.206 C 
ENDBRANCH  25  27
BRANCH  25  29
HETATM   29  O2  UNL     1      51.169   8.925   2.064  1.00  0.00    -0.358 OA
ATOM     30  H2  UNL     1      51.157   9.448   2.858  1.00  0.00     0.213 HD
ENDBRANCH  25  29
ENDBRANCH  23  25
ENDBRANCH  22  23
ENDBRANCH   1  22
BRANCH   4  31
HETATM   31  O6  UNL     1      45.386   5.205  -3.320  1.00  0.00    -0.358 OA
ATOM     32  H6  UNL     1      44.502   5.190  -2.975  1.00  0.00     0.217 HD
ENDBRANCH   4  31
BRANCH   3  33
HETATM   33  O5  UNL     1      48.043   4.819  -3.944  1.00  0.00    -0.358 OA
ATOM     34  H5  UNL     1      48.138   5.034  -4.864  1.00  0.00     0.217 HD
ENDBRANCH   3  33
TORSDOF 15
ENDMDL
MODEL 2
REMARK VINA RESULT: -7.940146165      2.548      7.460
REMARK  15 active torsions:
REMARK  status: ('A' for Active; 'I' for Inactive)
REMARK    1  A    between atoms: O1_2  and  C2_3 
REMARK    2  A    between atoms: C2_3  and  O2_5 
REMARK    3  A    between atoms: C2_3  and  C4_7 
REMARK    4  A    between atoms: C4_7  and  O4_9 
REMARK    5  A    between atoms: O4_9  and  C5_10 
REMARK    6  A    between atoms: C7_12  and  O5_13 
REMARK    7  A    between atoms: C8_15  and  O6_16 
REMARK    8  A    between atoms: C10_19  and  C11_20 
REMARK    9  A    between atoms: C12_21  and  C13_22 
REMARK   10  A    between atoms: C13_22  and  O8_24 
REMARK   11  A    between atoms: O8_24  and  C14_25 
REMARK   12  A    between atoms: C14_25  and  C15_26 
REMARK   13  A    between atoms: C16_27  and  C18_29 
REMARK   14  A    between atoms: C18_29  and  C19_30 
REMARK   15  A    between atoms: C19_30  and  C20_31 
ROOT
HETATM    1  C5  UNL     1      46.155   7.678  -6.057  1.00  0.00     0.092 A 
HETATM    2  C6  UNL     1      46.052   7.903  -7.394  1.00  0.00     0.077 A 
HETATM    3  C7  UNL     1      46.557   9.035  -8.002  1.00  0.00     0.101 A 
HETATM    4  C8  UNL     1      47.188   9.973  -7.228  1.00  0.00     0.099 A 
HETATM    5  C9  UNL     1      47.306   9.759  -5.840  1.00  0.00     0.053 A 
HETATM    6  C10 UNL     1      46.805   8.639  -5.233  1.00  0.00     0.001 A 
ENDROOT
BRANCH   6   7
HETATM    7  C11 UNL     1      46.972   8.340  -3.838  1.00  0.00     0.020 C 
HETATM    8  C12 UNL     1      47.316   9.012  -2.826  1.00  0.00     0.083 C 
BRANCH   8   9
HETATM    9  C13 UNL     1      47.703  10.355  -2.484  1.00  0.00     0.283 C 
HETATM   10  O7  UNL     1      48.559  11.067  -3.049  1.00  0.00    -0.260 OA
BRANCH   9  11
HETATM   11  O8  UNL     1      47.094  11.013  -1.396  1.00  0.00    -0.314 OA
BRANCH  11  12
HETATM   12  C14 UNL     1      47.559  11.134  -0.105  1.00  0.00     0.206 C 
BRANCH  12  13
HETATM   13  C15 UNL     1      47.924   9.918   0.618  1.00  0.00     0.002 C 
HETATM   14  C16 UNL     1      49.147   9.470   0.716  1.00  0.00    -0.085 C 
HETATM   15  C17 UNL     1      50.270  10.204   0.081  1.00  0.00     0.043 C 
BRANCH  14  16
HETATM   16  C18 UNL     1      49.383   8.204   1.479  1.00  0.00     0.037 C 
BRANCH  16  17
HETATM   17  C19 UNL     1      48.607   7.050   0.922  1.00  0.00     0.031 C 
BRANCH  17  18
HETATM   18  C20 UNL     1      49.351   6.538  -0.261  1.00  0.00    -0.024 C 
HETATM   19  C21 UNL     1      48.733   5.897  -1.253  1.00  0.00    -0.091 C 
HETATM   20  C22 UNL     1      49.445   5.378  -2.438  1.00  0.00     0.042 C 
HETATM   21  C23 UNL     1      47.249   5.697  -1.153  1.00  0.00     0.042 C 
ENDBRANCH  17  18
ENDBRANCH  16  17
ENDBRANCH  14  16
ENDBRANCH  12  13
ENDBRANCH  11  12
ENDBRANCH   9  11
ENDBRANCH   8   9
ENDBRANCH   6   7
BRANCH   1  22
HETATM   22  O4  UNL     1      45.632   6.528  -5.497  1.00  0.00    -0.274 OA
BRANCH  22  23
HETATM   23  C4  UNL     1      46.192   5.261  -5.762  1.00  0.00     0.327 C 
HETATM   24  O3  UNL     1      47.230   4.999  -5.108  1.00  0.00    -0.259 OA
BRANCH  23  25
HETATM   25  C2  UNL     1      45.566   4.364  -6.733  1.00  0.00     0.249 C 
HETATM   26  C3  UNL     1      44.078   4.630  -6.771  1.00  0.00     0.090 C 
BRANCH  25  27
HETATM   27  O1  UNL     1      46.144   4.401  -7.962  1.00  0.00    -0.352 OA
HETATM   28  C1  UNL     1      45.358   4.454  -9.066  1.00  0.00     0.206 C 
ENDBRANCH  25  27
BRANCH  25  29
HETATM   29  O2  UNL     1      45.695   3.024  -6.257  1.00  0.00    -0.358 OA
ATOM     30  H2  UNL     1      45.956   3.081  -5.345  1.00  0.00     0.213 HD
ENDBRANCH  25  29
ENDBRANCH  23  25
ENDBRANCH  22  23
ENDBRANCH   1  22
BRANCH   4  31
HETATM   31  O6  UNL     1      47.707  11.123  -7.807  1.00  0.00    -0.358 OA
ATOM     32  H6  UNL     1      47.837  11.905  -7.284  1.00  0.00     0.217 HD
ENDBRANCH   4  31
BRANCH   3  33
HETATM   33  O5  UNL     1      46.437   9.238  -9.367  1.00  0.00    -0.358 OA
ATOM     34  H5  UNL     1      46.903   9.939  -9.808  1.00  0.00     0.217 HD
ENDBRANCH   3  33
TORSDOF 15
ENDMDL
MODEL 3
REMARK VINA RESULT: -7.911561240      1.309      1.747
REMARK  15 active torsions:
REMARK  status: ('A' for Active; 'I' for Inactive)
REMARK    1  A    between atoms: O1_2  and  C2_3 
REMARK    2  A    between atoms: C2_3  and  O2_5 
REMARK    3  A    between atoms: C2_3  and  C4_7 
REMARK    4  A    between atoms: C4_7  and  O4_9 
REMARK    5  A    between atoms: O4_9  and  C5_10 
REMARK    6  A    between atoms: C7_12  and  O5_13 
REMARK    7  A    between atoms: C8_15  and  O6_16 
REMARK    8  A    between atoms: C10_19  and  C11_20 
REMARK    9  A    between atoms: C12_21  and  C13_22 
REMARK   10  A    between atoms: C13_22  and  O8_24 
REMARK   11  A    between atoms: O8_24  and  C14_25 
REMARK   12  A    between atoms: C14_25  and  C15_26 
REMARK   13  A    between atoms: C16_27  and  C18_29 
REMARK   14  A    between atoms: C18_29  and  C19_30 
REMARK   15  A    between atoms: C19_30  and  C20_31 
ROOT
HETATM    1  C5  UNL     1      48.582   7.386  -1.330  1.00  0.00     0.092 A 
HETATM    2  C6  UNL     1      49.136   6.395  -2.079  1.00  0.00     0.077 A 
HETATM    3  C7  UNL     1      48.382   5.428  -2.715  1.00  0.00     0.101 A 
HETATM    4  C8  UNL     1      47.019   5.467  -2.588  1.00  0.00     0.099 A 
HETATM    5  C9  UNL     1      46.424   6.485  -1.818  1.00  0.00     0.053 A 
HETATM    6  C10 UNL     1      47.167   7.444  -1.184  1.00  0.00     0.001 A 
ENDROOT
BRANCH   6   7
HETATM    7  C11 UNL     1      46.602   8.546  -0.455  1.00  0.00     0.020 C 
HETATM    8  C12 UNL     1      46.623   9.801  -0.596  1.00  0.00     0.083 C 
BRANCH   8   9
HETATM    9  C13 UNL     1      47.161  10.793  -1.489  1.00  0.00     0.283 C 
HETATM   10  O7  UNL     1      47.823  11.808  -1.188  1.00  0.00    -0.260 OA
BRANCH   9  11
HETATM   11  O8  UNL     1      46.960  10.679  -2.879  1.00  0.00    -0.314 OA
BRANCH  11  12
HETATM   12  C14 UNL     1      47.718   9.982  -3.796  1.00  0.00     0.206 C 
BRANCH  12  13
HETATM   13  C15 UNL     1      47.031   9.096  -4.733  1.00  0.00     0.002 C 
HETATM   14  C16 UNL     1      47.115   9.204  -6.031  1.00  0.00    -0.085 C 
HETATM   15  C17 UNL     1      47.951  10.266  -6.645  1.00  0.00     0.043 C 
BRANCH  14  16
HETATM   16  C18 UNL     1      46.351   8.235  -6.879  1.00  0.00     0.037 C 
BRANCH  16  17
HETATM   17  C19 UNL     1      45.075   7.793  -6.229  1.00  0.00     0.031 C 
BRANCH  17  18
HETATM   18  C20 UNL     1      44.828   6.383  -6.638  1.00  0.00    -0.024 C 
HETATM   19  C21 UNL     1      44.096   5.556  -5.893  1.00  0.00    -0.091 C 
HETATM   20  C22 UNL     1      43.835   4.153  -6.273  1.00  0.00     0.042 C 
HETATM   21  C23 UNL     1      43.517   6.080  -4.611  1.00  0.00     0.042 C 
ENDBRANCH  17  18
ENDBRANCH  16  17
ENDBRANCH  14  16
ENDBRANCH  12  13
ENDBRANCH  11  12
ENDBRANCH   9  11
ENDBRANCH   8   9
ENDBRANCH   6   7
BRANCH   1  22
HETATM   22  O4  UNL     1      49.380   8.329  -0.713  1.00  0.00    -0.274 OA
BRANCH  22  23
HETATM   23  C4  UNL     1      49.695   8.241   0.660  1.00  0.00     0.327 C 
HETATM   24  O3  UNL     1      49.531   7.104   1.163  1.00  0.00    -0.259 OA
BRANCH  23  25
HETATM   25  C2  UNL     1      50.171   9.417   1.387  1.00  0.00     0.249 C 
HETATM   26  C3  UNL     1      50.632  10.462   0.397  1.00  0.00     0.090 C 
BRANCH  25  27
HETATM   27  O1  UNL     1      49.279   9.898   2.291  1.00  0.00    -0.352 OA
HETATM   28  C1  UNL     1      48.844  11.178   2.181  1.00  0.00     0.206 C 
ENDBRANCH  25  27
BRANCH  25  29
HETATM   29  O2  UNL     1      51.342   9.051   2.117  1.00  0.00    -0.358 OA
ATOM     30  H2  UNL     1      51.307   8.109   2.237  1.00  0.00     0.213 HD
ENDBRANCH  25  29
ENDBRANCH  23  25
ENDBRANCH  22  23
ENDBRANCH   1  22
BRANCH   4  31
HETATM   31  O6  UNL     1      46.232   4.511  -3.215  1.00  0.00    -0.358 OA
ATOM     32  H6  UNL     1      45.441   4.768  -3.673  1.00  0.00     0.217 HD
ENDBRANCH   4  31
BRANCH   3  33
HETATM   33  O5  UNL     1      48.975   4.430  -3.471  1.00  0.00    -0.358 OA
ATOM     34  H5  UNL     1      48.457   3.770  -3.916  1.00  0.00     0.217 HD
ENDBRANCH   3  33
TORSDOF 15
ENDMDL
MODEL 4
REMARK VINA RESULT: -7.667098148      2.666      7.470
REMARK  15 active torsions:
REMARK  status: ('A' for Active; 'I' for Inactive)
REMARK    1  A    between atoms: O1_2  and  C2_3 
REMARK    2  A    between atoms: C2_3  and  O2_5 
REMARK    3  A    between atoms: C2_3  and  C4_7 
REMARK    4  A    between atoms: C4_7  and  O4_9 
REMARK    5  A    between atoms: O4_9  and  C5_10 
REMARK    6  A    between atoms: C7_12  and  O5_13 
REMARK    7  A    between atoms: C8_15  and  O6_16 
REMARK    8  A    between atoms: C10_19  and  C11_20 
REMARK    9  A    between atoms: C12_21  and  C13_22 
REMARK   10  A    between atoms: C13_22  and  O8_24 
REMARK   11  A    between atoms: O8_24  and  C14_25 
REMARK   12  A    between atoms: C14_25  and  C15_26 
REMARK   13  A    between atoms: C16_27  and  C18_29 
REMARK   14  A    between atoms: C18_29  and  C19_30 
REMARK   15  A    between atoms: C19_30  and  C20_31 
ROOT
HETATM    1  C5  UNL     1      46.270   7.709  -6.011  1.00  0.00     0.092 A 
HETATM    2  C6  UNL     1      46.171   7.919  -7.350  1.00  0.00     0.077 A 
HETATM    3  C7  UNL     1      46.626   9.071  -7.962  1.00  0.00     0.101 A 
HETATM    4  C8  UNL     1      47.201  10.044  -7.189  1.00  0.00     0.099 A 
HETATM    5  C9  UNL     1      47.315   9.847  -5.799  1.00  0.00     0.053 A 
HETATM    6  C10 UNL     1      46.864   8.708  -5.188  1.00  0.00     0.001 A 
ENDROOT
BRANCH   6   7
HETATM    7  C11 UNL     1      47.030   8.427  -3.789  1.00  0.00     0.020 C 
HETATM    8  C12 UNL     1      47.381   9.111  -2.787  1.00  0.00     0.083 C 
BRANCH   8   9
HETATM    9  C13 UNL     1      47.778  10.456  -2.465  1.00  0.00     0.283 C 
HETATM   10  O7  UNL     1      48.635  11.156  -3.045  1.00  0.00    -0.260 OA
BRANCH   9  11
HETATM   11  O8  UNL     1      47.180  11.131  -1.382  1.00  0.00    -0.314 OA
BRANCH  11  12
HETATM   12  C14 UNL     1      47.614  11.203  -0.076  1.00  0.00     0.206 C 
BRANCH  12  13
HETATM   13  C15 UNL     1      47.956   9.959   0.610  1.00  0.00     0.002 C 
HETATM   14  C16 UNL     1      49.174   9.500   0.719  1.00  0.00    -0.085 C 
HETATM   15  C17 UNL     1      50.315  10.250   0.138  1.00  0.00     0.043 C 
BRANCH  14  16
HETATM   16  C18 UNL     1      49.386   8.206   1.441  1.00  0.00     0.037 C 
BRANCH  16  17
HETATM   17  C19 UNL     1      48.551   7.096   0.878  1.00  0.00     0.031 C 
BRANCH  17  18
HETATM   18  C20 UNL     1      49.247   6.583  -0.334  1.00  0.00    -0.024 C 
HETATM   19  C21 UNL     1      48.590   5.935  -1.296  1.00  0.00    -0.091 C 
HETATM   20  C22 UNL     1      49.254   5.414  -2.508  1.00  0.00     0.042 C 
HETATM   21  C23 UNL     1      47.113   5.729  -1.132  1.00  0.00     0.042 C 
ENDBRANCH  17  18
ENDBRANCH  16  17
ENDBRANCH  14  16
ENDBRANCH  12  13
ENDBRANCH  11  12
ENDBRANCH   9  11
ENDBRANCH   8   9
ENDBRANCH   6   7
BRANCH   1  22
HETATM   22  O4  UNL     1      45.800   6.539  -5.447  1.00  0.00    -0.274 OA
BRANCH  22  23
HETATM   23  C4  UNL     1      44.473   6.107  -5.650  1.00  0.00     0.327 C 
HETATM   24  O3  UNL     1      43.602   6.798  -5.069  1.00  0.00    -0.259 OA
BRANCH  23  25
HETATM   25  C2  UNL     1      44.194   4.939  -6.484  1.00  0.00     0.249 C 
HETATM   26  C3  UNL     1      45.488   4.214  -6.775  1.00  0.00     0.090 C 
BRANCH  25  27
HETATM   27  O1  UNL     1      43.231   4.125  -5.980  1.00  0.00    -0.352 OA
HETATM   28  C1  UNL     1      43.587   2.950  -5.402  1.00  0.00     0.206 C 
ENDBRANCH  25  27
BRANCH  25  29
HETATM   29  O2  UNL     1      43.726   5.393  -7.754  1.00  0.00    -0.358 OA
ATOM     30  H2  UNL     1      44.343   6.050  -8.055  1.00  0.00     0.213 HD
ENDBRANCH  25  29
ENDBRANCH  23  25
ENDBRANCH  22  23
ENDBRANCH   1  22
BRANCH   4  31
HETATM   31  O6  UNL     1      47.668  11.214  -7.772  1.00  0.00    -0.358 OA
ATOM     32  H6  UNL     1      48.591  11.434  -7.729  1.00  0.00     0.217 HD
ENDBRANCH   4  31
BRANCH   3  33
HETATM   33  O5  UNL     1      46.510   9.258  -9.330  1.00  0.00    -0.358 OA
ATOM     34  H5  UNL     1      47.137   8.883  -9.937  1.00  0.00     0.217 HD
ENDBRANCH   3  33
TORSDOF 15
ENDMDL
MODEL 5
REMARK VINA RESULT: -7.577446395      1.926      4.837
REMARK  15 active torsions:
REMARK  status: ('A' for Active; 'I' for Inactive)
REMARK    1  A    between atoms: O1_2  and  C2_3 
REMARK    2  A    between atoms: C2_3  and  O2_5 
REMARK    3  A    between atoms: C2_3  and  C4_7 
REMARK    4  A    between atoms: C4_7  and  O4_9 
REMARK    5  A    between atoms: O4_9  and  C5_10 
REMARK    6  A    between atoms: C7_12  and  O5_13 
REMARK    7  A    between atoms: C8_15  and  O6_16 
REMARK    8  A    between atoms: C10_19  and  C11_20 
REMARK    9  A    between atoms: C12_21  and  C13_22 
REMARK   10  A    between atoms: C13_22  and  O8_24 
REMARK   11  A    between atoms: O8_24  and  C14_25 
REMARK   12  A    between atoms: C14_25  and  C15_26 
REMARK   13  A    between atoms: C16_27  and  C18_29 
REMARK   14  A    between atoms: C18_29  and  C19_30 
REMARK   15  A    between atoms: C19_30  and  C20_31 
ROOT
HETATM    1  C5  UNL     1      48.408   9.560  -1.119  1.00  0.00     0.092 A 
HETATM    2  C6  UNL     1      48.578  10.193   0.072  1.00  0.00     0.077 A 
HETATM    3  C7  UNL     1      47.948  11.381   0.385  1.00  0.00     0.101 A 
HETATM    4  C8  UNL     1      47.116  11.948  -0.543  1.00  0.00     0.099 A 
HETATM    5  C9  UNL     1      46.924  11.309  -1.784  1.00  0.00     0.053 A 
HETATM    6  C10 UNL     1      47.549  10.133  -2.098  1.00  0.00     0.001 A 
ENDROOT
BRANCH   6   7
HETATM    7  C11 UNL     1      47.323   9.404  -3.316  1.00  0.00     0.020 C 
HETATM    8  C12 UNL     1      47.621   9.595  -4.528  1.00  0.00     0.083 C 
BRANCH   8   9
HETATM    9  C13 UNL     1      48.309  10.559  -5.347  1.00  0.00     0.283 C 
HETATM   10  O7  UNL     1      48.967  11.549  -4.965  1.00  0.00    -0.260 OA
BRANCH   9  11
HETATM   11  O8  UNL     1      48.284  10.442  -6.750  1.00  0.00    -0.314 OA
BRANCH  11  12
HETATM   12  C14 UNL     1      47.186  10.405  -7.583  1.00  0.00     0.206 C 
BRANCH  12  13
HETATM   13  C15 UNL     1      46.429   9.159  -7.677  1.00  0.00     0.002 C 
HETATM   14  C16 UNL     1      45.810   8.763  -8.757  1.00  0.00    -0.085 C 
HETATM   15  C17 UNL     1      45.853   9.585  -9.992  1.00  0.00     0.043 C 
BRANCH  14  16
HETATM   16  C18 UNL     1      45.061   7.468  -8.715  1.00  0.00     0.037 C 
BRANCH  16  17
HETATM   17  C19 UNL     1      45.540   6.568  -7.617  1.00  0.00     0.031 C 
BRANCH  17  18
HETATM   18  C20 UNL     1      44.386   6.314  -6.711  1.00  0.00    -0.024 C 
HETATM   19  C21 UNL     1      44.548   6.166  -5.397  1.00  0.00    -0.091 C 
HETATM   20  C22 UNL     1      43.422   5.912  -4.475  1.00  0.00     0.042 C 
HETATM   21  C23 UNL     1      45.936   6.263  -4.836  1.00  0.00     0.042 C 
ENDBRANCH  17  18
ENDBRANCH  16  17
ENDBRANCH  14  16
ENDBRANCH  12  13
ENDBRANCH  11  12
ENDBRANCH   9  11
ENDBRANCH   8   9
ENDBRANCH   6   7
BRANCH   1  22
HETATM   22  O4  UNL     1      49.063   8.373  -1.383  1.00  0.00    -0.274 OA
BRANCH  22  23
HETATM   23  C4  UNL     1      48.858   7.227  -0.586  1.00  0.00     0.327 C 
HETATM   24  O3  UNL     1      49.461   7.240   0.514  1.00  0.00    -0.259 OA
BRANCH  23  25
HETATM   25  C2  UNL     1      47.999   6.142  -1.056  1.00  0.00     0.249 C 
HETATM   26  C3  UNL     1      46.553   6.576  -0.966  1.00  0.00     0.090 C 
BRANCH  25  27
HETATM   27  O1  UNL     1      48.337   5.670  -2.284  1.00  0.00    -0.352 OA
HETATM   28  C1  UNL     1      49.520   5.028  -2.449  1.00  0.00     0.206 C 
ENDBRANCH  25  27
BRANCH  25  29
HETATM   29  O2  UNL     1      48.118   5.047  -0.148  1.00  0.00    -0.358 OA
ATOM     30  H2  UNL     1      47.238   4.723   0.008  1.00  0.00     0.213 HD
ENDBRANCH  25  29
ENDBRANCH  23  25
ENDBRANCH  22  23
ENDBRANCH   1  22
BRANCH   4  31
HETATM   31  O6  UNL     1      46.466  13.142  -0.262  1.00  0.00    -0.358 OA
ATOM     32  H6  UNL     1      45.518  13.192  -0.302  1.00  0.00     0.217 HD
ENDBRANCH   4  31
BRANCH   3  33
HETATM   33  O5  UNL     1      48.141  12.004   1.607  1.00  0.00    -0.358 OA
ATOM     34  H5  UNL     1      47.409  12.256   2.157  1.00  0.00     0.217 HD
ENDBRANCH   3  33
TORSDOF 15
ENDMDL
