MODEL 1
REMARK VINA RESULT: -7.019443459      0.000      0.000
REMARK  12 active torsions:
REMARK  status: ('A' for Active; 'I' for Inactive)
REMARK    1  A    between atoms: O1_2  and  C2_3 
REMARK    2  A    between atoms: C2_3  and  C3_4 
REMARK    3  A    between atoms: C3_4  and  O2_5 
REMARK    4  A    between atoms: C3_4  and  C4_7 
REMARK    5  A    between atoms: C3_4  and  C21_31 
REMARK    6  A    between atoms: C4_7  and  C5_8 
REMARK    7  A    between atoms: C5_8  and  C7_10 
REMARK    8  A    between atoms: C7_10  and  C8_11 
REMARK    9  A    between atoms: C8_11  and  C9_13 
REMARK   10  A    between atoms: C10_14  and  O4_15 
REMARK   11  A    between atoms: C13_19  and  O5_20 
REMARK   12  A    between atoms: C15_22  and  O6_23 
ROOT
HETATM    1  C21 UNL     1      48.374  10.458  -0.528  1.00  0.00     0.125 C 
HETATM    2  C22 UNL     1      49.346  10.689  -1.633  1.00  0.00     0.028 C 
HETATM    3  C23 UNL     1      47.107  11.125  -0.892  1.00  0.00     0.066 C 
HETATM    4  N1  UNL     1      46.105  11.632  -1.172  1.00  0.00    -0.197 NA
ENDROOT
BRANCH   1   5
HETATM    5  C3  UNL     1      48.123   8.980  -0.229  1.00  0.00     0.095 C 
BRANCH   5   6
HETATM    6  C2  UNL     1      48.845   8.647   1.037  1.00  0.00     0.206 C 
BRANCH   6   7
HETATM    7  O1  UNL     1      50.171   8.422   0.962  1.00  0.00    -0.393 OA
HETATM    8  C1  UNL     1      51.050   9.334   1.433  1.00  0.00     0.201 C 
ENDBRANCH   6   7
ENDBRANCH   5   6
BRANCH   5   9
HETATM    9  O2  UNL     1      46.760   8.869  -0.065  1.00  0.00    -0.386 OA
ATOM     10  H2  UNL     1      46.431   8.072  -0.465  1.00  0.00     0.210 HD
ENDBRANCH   5   9
BRANCH   5  11
HETATM   11  C4  UNL     1      48.681   8.140  -1.359  1.00  0.00     0.046 C 
BRANCH  11  12
HETATM   12  C5  UNL     1      47.690   7.403  -2.169  1.00  0.00    -0.008 C 
HETATM   13  C6  UNL     1      47.217   8.182  -3.345  1.00  0.00     0.010 C 
BRANCH  12  14
HETATM   14  C7  UNL     1      48.090   5.977  -2.534  1.00  0.00     0.088 C 
BRANCH  14  15
HETATM   15  C8  UNL     1      47.330   4.928  -1.909  1.00  0.00     0.165 C 
HETATM   16  O3  UNL     1      47.432   3.770  -2.468  1.00  0.00    -0.292 OA
BRANCH  15  17
HETATM   17  C9  UNL     1      46.475   4.985  -0.753  1.00  0.00     0.080 A 
HETATM   18  C10 UNL     1      45.070   5.046  -0.945  1.00  0.00     0.095 A 
HETATM   19  C11 UNL     1      44.165   5.099   0.074  1.00  0.00     0.034 A 
HETATM   20  C12 UNL     1      44.670   5.092   1.365  1.00  0.00     0.119 A 
HETATM   21  C20 UNL     1      42.726   5.160  -0.098  1.00  0.00     0.016 A 
HETATM   22  C13 UNL     1      46.029   5.034   1.574  1.00  0.00     0.137 A 
HETATM   23  O7  UNL     1      43.757   5.146   2.399  1.00  0.00    -0.333 OA
HETATM   24  C15 UNL     1      46.947   4.980   0.532  1.00  0.00     0.118 A 
HETATM   25  C16 UNL     1      42.374   5.205   2.297  1.00  0.00     0.078 A 
HETATM   26  C17 UNL     1      41.920   6.502   2.979  1.00  0.00     0.051 C 
HETATM   27  C18 UNL     1      41.695   4.026   3.002  1.00  0.00     0.051 C 
HETATM   28  C19 UNL     1      41.874   5.210   0.911  1.00  0.00     0.012 A 
BRANCH  18  29
HETATM   29  O4  UNL     1      44.591   5.050  -2.243  1.00  0.00    -0.359 OA
ATOM     30  H4  UNL     1      43.675   5.264  -2.379  1.00  0.00     0.217 HD
ENDBRANCH  18  29
BRANCH  22  31
HETATM   31  O5  UNL     1      46.534   5.028   2.865  1.00  0.00    -0.351 OA
HETATM   32  C14 UNL     1      46.068   4.227   3.907  1.00  0.00     0.210 C 
ENDBRANCH  22  31
BRANCH  24  33
HETATM   33  O6  UNL     1      48.307   4.922   0.843  1.00  0.00    -0.357 OA
ATOM     34  H6  UNL     1      48.660   5.209   1.676  1.00  0.00     0.217 HD
ENDBRANCH  24  33
ENDBRANCH  15  17
ENDBRANCH  14  15
ENDBRANCH  12  14
ENDBRANCH  11  12
ENDBRANCH   5  11
ENDBRANCH   1   5
TORSDOF 12
ENDMDL
MODEL 2
REMARK VINA RESULT: -6.951129550      1.138      2.611
REMARK  12 active torsions:
REMARK  status: ('A' for Active; 'I' for Inactive)
REMARK    1  A    between atoms: O1_2  and  C2_3 
REMARK    2  A    between atoms: C2_3  and  C3_4 
REMARK    3  A    between atoms: C3_4  and  O2_5 
REMARK    4  A    between atoms: C3_4  and  C4_7 
REMARK    5  A    between atoms: C3_4  and  C21_31 
REMARK    6  A    between atoms: C4_7  and  C5_8 
REMARK    7  A    between atoms: C5_8  and  C7_10 
REMARK    8  A    between atoms: C7_10  and  C8_11 
REMARK    9  A    between atoms: C8_11  and  C9_13 
REMARK   10  A    between atoms: C10_14  and  O4_15 
REMARK   11  A    between atoms: C13_19  and  O5_20 
REMARK   12  A    between atoms: C15_22  and  O6_23 
ROOT
HETATM    1  C21 UNL     1      48.437  10.751  -0.708  1.00  0.00     0.125 C 
HETATM    2  C22 UNL     1      49.281  10.833  -1.933  1.00  0.00     0.028 C 
HETATM    3  C23 UNL     1      47.118  11.333  -1.026  1.00  0.00     0.066 C 
HETATM    4  N1  UNL     1      46.075  11.775  -1.267  1.00  0.00    -0.197 NA
ENDROOT
BRANCH   1   5
HETATM    5  C3  UNL     1      48.269   9.328  -0.173  1.00  0.00     0.095 C 
BRANCH   5   6
HETATM    6  C2  UNL     1      49.027   9.237   1.112  1.00  0.00     0.206 C 
BRANCH   6   7
HETATM    7  O1  UNL     1      48.468   9.783   2.209  1.00  0.00    -0.393 OA
HETATM    8  C1  UNL     1      48.960  10.927   2.734  1.00  0.00     0.201 C 
ENDBRANCH   6   7
ENDBRANCH   5   6
BRANCH   5   9
HETATM    9  O2  UNL     1      46.915   9.178   0.040  1.00  0.00    -0.386 OA
ATOM     10  H2  UNL     1      46.442   9.147  -0.783  1.00  0.00     0.210 HD
ENDBRANCH   5   9
BRANCH   5  11
HETATM   11  C4  UNL     1      48.852   8.348  -1.169  1.00  0.00     0.046 C 
BRANCH  11  12
HETATM   12  C5  UNL     1      47.890   7.429  -1.813  1.00  0.00    -0.008 C 
HETATM   13  C6  UNL     1      47.174   8.057  -2.955  1.00  0.00     0.010 C 
BRANCH  12  14
HETATM   14  C7  UNL     1      48.448   6.052  -2.157  1.00  0.00     0.088 C 
BRANCH  14  15
HETATM   15  C8  UNL     1      47.801   4.933  -1.526  1.00  0.00     0.165 C 
HETATM   16  O3  UNL     1      48.450   3.819  -1.588  1.00  0.00    -0.292 OA
BRANCH  15  17
HETATM   17  C9  UNL     1      46.539   4.877  -0.839  1.00  0.00     0.080 A 
HETATM   18  C10 UNL     1      46.535   4.814   0.580  1.00  0.00     0.095 A 
HETATM   19  C11 UNL     1      45.402   4.763   1.335  1.00  0.00     0.034 A 
HETATM   20  C12 UNL     1      44.193   4.774   0.658  1.00  0.00     0.119 A 
HETATM   21  C20 UNL     1      45.374   4.698   2.785  1.00  0.00     0.016 A 
HETATM   22  C13 UNL     1      44.172   4.834  -0.717  1.00  0.00     0.137 A 
HETATM   23  O7  UNL     1      43.042   4.721   1.419  1.00  0.00    -0.333 OA
HETATM   24  C15 UNL     1      45.331   4.886  -1.483  1.00  0.00     0.118 A 
HETATM   25  C16 UNL     1      42.953   4.659   2.803  1.00  0.00     0.078 A 
HETATM   26  C17 UNL     1      42.212   3.364   3.157  1.00  0.00     0.051 C 
HETATM   27  C18 UNL     1      42.164   5.839   3.381  1.00  0.00     0.051 C 
HETATM   28  C19 UNL     1      44.257   4.650   3.490  1.00  0.00     0.012 A 
BRANCH  18  29
HETATM   29  O4  UNL     1      47.755   4.805   1.232  1.00  0.00    -0.359 OA
ATOM     30  H4  UNL     1      48.154   3.964   1.419  1.00  0.00     0.217 HD
ENDBRANCH  18  29
BRANCH  22  31
HETATM   31  O5  UNL     1      42.962   4.844  -1.395  1.00  0.00    -0.351 OA
HETATM   32  C14 UNL     1      42.284   3.713  -1.845  1.00  0.00     0.210 C 
ENDBRANCH  22  31
BRANCH  24  33
HETATM   33  O6  UNL     1      45.210   4.948  -2.873  1.00  0.00    -0.357 OA
ATOM     34  H6  UNL     1      44.551   4.464  -3.356  1.00  0.00     0.217 HD
ENDBRANCH  24  33
ENDBRANCH  15  17
ENDBRANCH  14  15
ENDBRANCH  12  14
ENDBRANCH  11  12
ENDBRANCH   5  11
ENDBRANCH   1   5
TORSDOF 12
ENDMDL
MODEL 3
REMARK VINA RESULT: -6.917771065      4.966      8.238
REMARK  12 active torsions:
REMARK  status: ('A' for Active; 'I' for Inactive)
REMARK    1  A    between atoms: O1_2  and  C2_3 
REMARK    2  A    between atoms: C2_3  and  C3_4 
REMARK    3  A    between atoms: C3_4  and  O2_5 
REMARK    4  A    between atoms: C3_4  and  C4_7 
REMARK    5  A    between atoms: C3_4  and  C21_31 
REMARK    6  A    between atoms: C4_7  and  C5_8 
REMARK    7  A    between atoms: C5_8  and  C7_10 
REMARK    8  A    between atoms: C7_10  and  C8_11 
REMARK    9  A    between atoms: C8_11  and  C9_13 
REMARK   10  A    between atoms: C10_14  and  O4_15 
REMARK   11  A    between atoms: C13_19  and  O5_20 
REMARK   12  A    between atoms: C15_22  and  O6_23 
ROOT
HETATM    1  C21 UNL     1      48.140  11.668   0.302  1.00  0.00     0.125 C 
HETATM    2  C22 UNL     1      46.940  12.520   0.067  1.00  0.00     0.028 C 
HETATM    3  C23 UNL     1      48.109  11.219   1.709  1.00  0.00     0.066 C 
HETATM    4  N1  UNL     1      48.090  10.850   2.806  1.00  0.00    -0.197 NA
ENDROOT
BRANCH   1   5
HETATM    5  C3  UNL     1      48.229  10.461  -0.633  1.00  0.00     0.095 C 
BRANCH   5   6
HETATM    6  C2  UNL     1      49.638  10.373  -1.124  1.00  0.00     0.206 C 
BRANCH   6   7
HETATM    7  O1  UNL     1      50.465   9.512  -0.501  1.00  0.00    -0.393 OA
HETATM    8  C1  UNL     1      51.351   9.952   0.419  1.00  0.00     0.201 C 
ENDBRANCH   6   7
ENDBRANCH   5   6
BRANCH   5   9
HETATM    9  O2  UNL     1      47.908   9.372   0.148  1.00  0.00    -0.386 OA
ATOM     10  H2  UNL     1      48.311   9.437   1.006  1.00  0.00     0.210 HD
ENDBRANCH   5   9
BRANCH   5  11
HETATM   11  C4  UNL     1      47.301  10.673  -1.811  1.00  0.00     0.046 C 
BRANCH  11  12
HETATM   12  C5  UNL     1      47.565   9.841  -3.003  1.00  0.00    -0.008 C 
HETATM   13  C6  UNL     1      47.403   8.387  -2.733  1.00  0.00     0.010 C 
BRANCH  12  14
HETATM   14  C7  UNL     1      46.844  10.286  -4.271  1.00  0.00     0.088 C 
BRANCH  14  15
HETATM   15  C8  UNL     1      47.369   9.775  -5.508  1.00  0.00     0.165 C 
HETATM   16  O3  UNL     1      48.615  10.032  -5.722  1.00  0.00    -0.292 OA
BRANCH  15  17
HETATM   17  C9  UNL     1      46.707   9.020  -6.539  1.00  0.00     0.080 A 
HETATM   18  C10 UNL     1      46.612   9.577  -7.841  1.00  0.00     0.095 A 
HETATM   19  C11 UNL     1      46.012   8.952  -8.893  1.00  0.00     0.034 A 
HETATM   20  C12 UNL     1      45.469   7.699  -8.655  1.00  0.00     0.119 A 
HETATM   21  C20 UNL     1      45.905   9.501 -10.232  1.00  0.00     0.016 A 
HETATM   22  C13 UNL     1      45.549   7.140  -7.400  1.00  0.00     0.137 A 
HETATM   23  O7  UNL     1      44.860   7.063  -9.718  1.00  0.00    -0.333 OA
HETATM   24  C15 UNL     1      46.161   7.782  -6.330  1.00  0.00     0.118 A 
HETATM   25  C16 UNL     1      44.728   7.536 -11.016  1.00  0.00     0.078 A 
HETATM   26  C17 UNL     1      43.227   7.616 -11.324  1.00  0.00     0.051 C 
HETATM   27  C18 UNL     1      45.380   6.599 -12.039  1.00  0.00     0.051 C 
HETATM   28  C19 UNL     1      45.317   8.869 -11.233  1.00  0.00     0.012 A 
BRANCH  18  29
HETATM   29  O4  UNL     1      47.163  10.828  -8.053  1.00  0.00    -0.359 OA
ATOM     30  H4  UNL     1      46.583  11.531  -8.323  1.00  0.00     0.217 HD
ENDBRANCH  18  29
BRANCH  22  31
HETATM   31  O5  UNL     1      45.004   5.887  -7.161  1.00  0.00    -0.351 OA
HETATM   32  C14 UNL     1      45.612   4.673  -7.476  1.00  0.00     0.210 C 
ENDBRANCH  22  31
BRANCH  24  33
HETATM   33  O6  UNL     1      46.194   7.134  -5.094  1.00  0.00    -0.357 OA
ATOM     34  H6  UNL     1      47.002   6.893  -4.657  1.00  0.00     0.217 HD
ENDBRANCH  24  33
ENDBRANCH  15  17
ENDBRANCH  14  15
ENDBRANCH  12  14
ENDBRANCH  11  12
ENDBRANCH   5  11
ENDBRANCH   1   5
TORSDOF 12
ENDMDL
MODEL 4
REMARK VINA RESULT: -6.735597304      1.528      2.846
REMARK  12 active torsions:
REMARK  status: ('A' for Active; 'I' for Inactive)
REMARK    1  A    between atoms: O1_2  and  C2_3 
REMARK    2  A    between atoms: C2_3  and  C3_4 
REMARK    3  A    between atoms: C3_4  and  O2_5 
REMARK    4  A    between atoms: C3_4  and  C4_7 
REMARK    5  A    between atoms: C3_4  and  C21_31 
REMARK    6  A    between atoms: C4_7  and  C5_8 
REMARK    7  A    between atoms: C5_8  and  C7_10 
REMARK    8  A    between atoms: C7_10  and  C8_11 
REMARK    9  A    between atoms: C8_11  and  C9_13 
REMARK   10  A    between atoms: C10_14  and  O4_15 
REMARK   11  A    between atoms: C13_19  and  O5_20 
REMARK   12  A    between atoms: C15_22  and  O6_23 
ROOT
HETATM    1  C21 UNL     1      48.037  10.777  -1.495  1.00  0.00     0.125 C 
HETATM    2  C22 UNL     1      47.451  10.318  -2.785  1.00  0.00     0.028 C 
HETATM    3  C23 UNL     1      47.180  11.857  -0.966  1.00  0.00     0.066 C 
HETATM    4  N1  UNL     1      46.509  12.697  -0.535  1.00  0.00    -0.197 NA
ENDROOT
BRANCH   1   5
HETATM    5  C3  UNL     1      48.182   9.665  -0.455  1.00  0.00     0.095 C 
BRANCH   5   6
HETATM    6  C2  UNL     1      48.911  10.236   0.718  1.00  0.00     0.206 C 
BRANCH   6   7
HETATM    7  O1  UNL     1      48.357  10.079   1.936  1.00  0.00    -0.393 OA
HETATM    8  C1  UNL     1      48.330  11.104   2.816  1.00  0.00     0.201 C 
ENDBRANCH   6   7
ENDBRANCH   5   6
BRANCH   5   9
HETATM    9  O2  UNL     1      46.893   9.316  -0.115  1.00  0.00    -0.386 OA
ATOM     10  H2  UNL     1      46.273   9.621  -0.767  1.00  0.00     0.210 HD
ENDBRANCH   5   9
BRANCH   5  11
HETATM   11  C4  UNL     1      48.995   8.531  -1.047  1.00  0.00     0.046 C 
BRANCH  11  12
HETATM   12  C5  UNL     1      48.347   7.204  -1.051  1.00  0.00    -0.008 C 
HETATM   13  C6  UNL     1      48.402   6.544  -2.383  1.00  0.00     0.010 C 
BRANCH  12  14
HETATM   14  C7  UNL     1      48.777   6.275   0.080  1.00  0.00     0.088 C 
BRANCH  14  15
HETATM   15  C8  UNL     1      48.193   4.961   0.075  1.00  0.00     0.165 C 
HETATM   16  O3  UNL     1      48.996   4.006  -0.252  1.00  0.00    -0.292 OA
BRANCH  15  17
HETATM   17  C9  UNL     1      46.845   4.560   0.381  1.00  0.00     0.080 A 
HETATM   18  C10 UNL     1      46.362   4.739   1.704  1.00  0.00     0.095 A 
HETATM   19  C11 UNL     1      45.105   4.400   2.106  1.00  0.00     0.034 A 
HETATM   20  C12 UNL     1      44.264   3.851   1.151  1.00  0.00     0.119 A 
HETATM   21  C20 UNL     1      44.589   4.575   3.452  1.00  0.00     0.016 A 
HETATM   22  C13 UNL     1      44.712   3.668  -0.138  1.00  0.00     0.137 A 
HETATM   23  O7  UNL     1      42.990   3.506   1.554  1.00  0.00    -0.333 OA
HETATM   24  C15 UNL     1      45.995   4.014  -0.543  1.00  0.00     0.118 A 
HETATM   25  C16 UNL     1      42.443   3.649   2.822  1.00  0.00     0.078 A 
HETATM   26  C17 UNL     1      42.041   2.251   3.308  1.00  0.00     0.051 C 
HETATM   27  C18 UNL     1      41.191   4.534   2.811  1.00  0.00     0.051 C 
HETATM   28  C19 UNL     1      43.363   4.237   3.811  1.00  0.00     0.012 A 
BRANCH  18  29
HETATM   29  O4  UNL     1      47.220   5.291   2.639  1.00  0.00    -0.359 OA
ATOM     30  H4  UNL     1      46.902   5.395   3.528  1.00  0.00     0.217 HD
ENDBRANCH  18  29
BRANCH  22  31
HETATM   31  O5  UNL     1      43.871   3.117  -1.094  1.00  0.00    -0.351 OA
HETATM   32  C14 UNL     1      42.913   3.819  -1.823  1.00  0.00     0.210 C 
ENDBRANCH  22  31
BRANCH  24  33
HETATM   33  O6  UNL     1      46.358   3.792  -1.873  1.00  0.00    -0.357 OA
ATOM     34  H6  UNL     1      47.213   4.014  -2.220  1.00  0.00     0.217 HD
ENDBRANCH  24  33
ENDBRANCH  15  17
ENDBRANCH  14  15
ENDBRANCH  12  14
ENDBRANCH  11  12
ENDBRANCH   5  11
ENDBRANCH   1   5
TORSDOF 12
ENDMDL
MODEL 5
REMARK VINA RESULT: -6.717807182      1.528      2.814
REMARK  12 active torsions:
REMARK  status: ('A' for Active; 'I' for Inactive)
REMARK    1  A    between atoms: O1_2  and  C2_3 
REMARK    2  A    between atoms: C2_3  and  C3_4 
REMARK    3  A    between atoms: C3_4  and  O2_5 
REMARK    4  A    between atoms: C3_4  and  C4_7 
REMARK    5  A    between atoms: C3_4  and  C21_31 
REMARK    6  A    between atoms: C4_7  and  C5_8 
REMARK    7  A    between atoms: C5_8  and  C7_10 
REMARK    8  A    between atoms: C7_10  and  C8_11 
REMARK    9  A    between atoms: C8_11  and  C9_13 
REMARK   10  A    between atoms: C10_14  and  O4_15 
REMARK   11  A    between atoms: C13_19  and  O5_20 
REMARK   12  A    between atoms: C15_22  and  O6_23 
ROOT
HETATM    1  C21 UNL     1      48.023  10.629  -0.148  1.00  0.00     0.125 C 
HETATM    2  C22 UNL     1      46.657  10.867  -0.693  1.00  0.00     0.028 C 
HETATM    3  C23 UNL     1      47.998  10.948   1.294  1.00  0.00     0.066 C 
HETATM    4  N1  UNL     1      47.987  11.182   2.428  1.00  0.00    -0.197 NA
ENDROOT
BRANCH   1   5
HETATM    5  C3  UNL     1      48.529   9.202  -0.362  1.00  0.00     0.095 C 
BRANCH   5   6
HETATM    6  C2  UNL     1      50.019   9.229  -0.240  1.00  0.00     0.206 C 
BRANCH   6   7
HETATM    7  O1  UNL     1      50.565   8.731   0.886  1.00  0.00    -0.393 OA
HETATM    8  C1  UNL     1      51.470   9.447   1.587  1.00  0.00     0.201 C 
ENDBRANCH   6   7
ENDBRANCH   5   6
BRANCH   5   9
HETATM    9  O2  UNL     1      47.964   8.460   0.653  1.00  0.00    -0.386 OA
ATOM     10  H2  UNL     1      47.364   7.810   0.306  1.00  0.00     0.210 HD
ENDBRANCH   5   9
BRANCH   5  11
HETATM   11  C4  UNL     1      48.148   8.741  -1.753  1.00  0.00     0.046 C 
BRANCH  11  12
HETATM   12  C5  UNL     1      47.506   7.414  -1.842  1.00  0.00    -0.008 C 
HETATM   13  C6  UNL     1      46.502   7.335  -2.938  1.00  0.00     0.010 C 
BRANCH  12  14
HETATM   14  C7  UNL     1      48.469   6.232  -1.845  1.00  0.00     0.088 C 
BRANCH  14  15
HETATM   15  C8  UNL     1      48.209   5.203  -0.874  1.00  0.00     0.165 C 
HETATM   16  O3  UNL     1      49.257   4.624  -0.394  1.00  0.00    -0.292 OA
BRANCH  15  17
HETATM   17  C9  UNL     1      46.950   4.728  -0.363  1.00  0.00     0.080 A 
HETATM   18  C10 UNL     1      46.646   4.937   1.007  1.00  0.00     0.095 A 
HETATM   19  C11 UNL     1      45.485   4.535   1.599  1.00  0.00     0.034 A 
HETATM   20  C12 UNL     1      44.562   3.885   0.795  1.00  0.00     0.119 A 
HETATM   21  C20 UNL     1      45.152   4.739   2.996  1.00  0.00     0.016 A 
HETATM   22  C13 UNL     1      44.836   3.671  -0.537  1.00  0.00     0.137 A 
HETATM   23  O7  UNL     1      43.385   3.475   1.390  1.00  0.00    -0.333 OA
HETATM   24  C15 UNL     1      46.021   4.083  -1.134  1.00  0.00     0.118 A 
HETATM   25  C16 UNL     1      43.012   3.643   2.716  1.00  0.00     0.078 A 
HETATM   26  C17 UNL     1      42.785   2.246   3.308  1.00  0.00     0.051 C 
HETATM   27  C18 UNL     1      41.710   4.440   2.851  1.00  0.00     0.051 C 
HETATM   28  C19 UNL     1      44.017   4.338   3.540  1.00  0.00     0.012 A 
BRANCH  18  29
HETATM   29  O4  UNL     1      47.583   5.589   1.788  1.00  0.00    -0.359 OA
ATOM     30  H4  UNL     1      47.916   6.424   1.480  1.00  0.00     0.217 HD
ENDBRANCH  18  29
BRANCH  22  31
HETATM   31  O5  UNL     1      43.913   3.019  -1.341  1.00  0.00    -0.351 OA
HETATM   32  C14 UNL     1      42.805   3.617  -1.940  1.00  0.00     0.210 C 
ENDBRANCH  22  31
BRANCH  24  33
HETATM   33  O6  UNL     1      46.209   3.821  -2.493  1.00  0.00    -0.357 OA
ATOM     34  H6  UNL     1      46.891   3.248  -2.820  1.00  0.00     0.217 HD
ENDBRANCH  24  33
ENDBRANCH  15  17
ENDBRANCH  14  15
ENDBRANCH  12  14
ENDBRANCH  11  12
ENDBRANCH   5  11
ENDBRANCH   1   5
TORSDOF 12
ENDMDL
