MODEL 1
REMARK VINA RESULT: -7.043120632      0.000      0.000
REMARK  9 active torsions:
REMARK  status: ('A' for Active; 'I' for Inactive)
REMARK    1  A    between atoms: N1_1  and  C1_4 
REMARK    2  A    between atoms: C2_7  and  N3_8 
REMARK    3  A    between atoms: N3_8  and  N4_10 
REMARK    4  A    between atoms: C3_15  and  N6_16 
REMARK    5  A    between atoms: N6_16  and  N7_18 
REMARK    6  A    between atoms: N8_20  and  C4_22 
REMARK    7  A    between atoms: N10_25  and  O1_26 
REMARK    8  A    between atoms: O1_26  and  C5_27 
REMARK    9  A    between atoms: C5_27  and  C6_28 
ROOT
HETATM    1  C1  UNL     1      -2.098   0.693  10.682  1.00  0.00     0.732 A 
HETATM    2  N2  UNL     1      -2.460  -0.594  10.568  1.00  0.00    -0.018 N 
ATOM      3  H2  UNL     1      -2.042  -1.176   9.844  1.00  0.00     0.203 HD
HETATM    4  C2  UNL     1      -3.363  -1.114  11.400  1.00  0.00     0.725 A 
HETATM    5  N5  UNL     1      -3.908  -0.317  12.361  1.00  0.00    -0.016 N 
ATOM      6  H5  UNL     1      -4.601  -0.697  13.006  1.00  0.00     0.203 HD
HETATM    7  C3  UNL     1      -3.532   0.970  12.459  1.00  0.00     0.754 A 
HETATM    8  N10 UNL     1      -2.608   1.513  11.614  1.00  0.00     0.131 N 
ENDROOT
BRANCH   7   9
HETATM    9  N6  UNL     1      -4.056   1.691  13.366  1.00  0.00    -0.114 N 
ATOM     10  H6  UNL     1      -5.022   1.986  13.216  1.00  0.00     0.207 HD
BRANCH   9  11
HETATM   11  N7  UNL     1      -3.455   2.114  14.523  1.00  0.00    -0.226 N 
HETATM   12  N8  UNL     1      -3.752   1.806  15.693  1.00  0.00    -0.264 N 
ATOM     13  H8  UNL     1      -3.192   2.220  16.438  1.00  0.00     0.190 HD
ATOM     14  H7  UNL     1      -2.671   2.756  14.413  1.00  0.00     0.209 HD
BRANCH  12  15
HETATM   15  C4  UNL     1      -4.798   0.935  16.079  1.00  0.00     0.200 C 
HETATM   16  N9  UNL     1      -4.847  -0.352  15.482  1.00  0.00    -0.068 NA
HETATM   17  S1  UNL     1      -5.952   1.314  17.166  1.00  0.00    -0.043 SA
ENDBRANCH  12  15
ENDBRANCH   9  11
ENDBRANCH   7   9
BRANCH   8  18
HETATM   18  O1  UNL     1      -2.273   2.814  11.762  1.00  0.00    -0.243 OA
BRANCH  18  19
HETATM   19  C5  UNL     1      -2.769   3.927  11.102  1.00  0.00     0.247 C 
BRANCH  19  20
HETATM   20  C6  UNL     1      -2.831   5.156  11.972  1.00  0.00     0.273 C 
HETATM   21  N11 UNL     1      -2.036   4.989  13.185  1.00  0.00    -0.059 N 
HETATM   22  C7  UNL     1      -2.410   6.103  14.033  1.00  0.00     0.244 C 
ATOM     23 2H11 UNL     1      -2.145   4.077  13.629  1.00  0.00     0.278 HD
ATOM     24 1H11 UNL     1      -1.033   4.917  13.015  1.00  0.00     0.278 HD
HETATM   25  C8  UNL     1      -3.884   5.873  14.397  1.00  0.00     0.103 C 
HETATM   26  S2  UNL     1      -4.491   5.333  12.743  1.00  0.00    -0.132 SA
ENDBRANCH  19  20
ENDBRANCH  18  19
ENDBRANCH   8  18
BRANCH   4  27
HETATM   27  N3  UNL     1      -3.744  -2.359  11.327  1.00  0.00    -0.138 N 
ATOM     28  H3  UNL     1      -4.732  -2.608  11.293  1.00  0.00     0.205 HD
BRANCH  27  29
HETATM   29  N4  UNL     1      -2.750  -3.342  11.296  1.00  0.00    -0.331 N 
ATOM     30  H42 UNL     1      -1.765  -3.077  11.325  1.00  0.00     0.177 HD
ATOM     31  H41 UNL     1      -3.047  -4.316  11.244  1.00  0.00     0.177 HD
ENDBRANCH  27  29
ENDBRANCH   4  27
BRANCH   1  32
HETATM   32  N1  UNL     1      -1.229   1.123   9.853  1.00  0.00    -0.231 N 
ATOM     33  H12 UNL     1      -1.338   0.947   8.854  1.00  0.00     0.174 HD
ATOM     34  H11 UNL     1      -0.440   1.642  10.239  1.00  0.00     0.174 HD
ENDBRANCH   1  32
TORSDOF 9
ENDMDL
MODEL 2
REMARK VINA RESULT: -6.892314966      1.917      2.230
REMARK  9 active torsions:
REMARK  status: ('A' for Active; 'I' for Inactive)
REMARK    1  A    between atoms: N1_1  and  C1_4 
REMARK    2  A    between atoms: C2_7  and  N3_8 
REMARK    3  A    between atoms: N3_8  and  N4_10 
REMARK    4  A    between atoms: C3_15  and  N6_16 
REMARK    5  A    between atoms: N6_16  and  N7_18 
REMARK    6  A    between atoms: N8_20  and  C4_22 
REMARK    7  A    between atoms: N10_25  and  O1_26 
REMARK    8  A    between atoms: O1_26  and  C5_27 
REMARK    9  A    between atoms: C5_27  and  C6_28 
ROOT
HETATM    1  C1  UNL     1      -2.318   0.916  10.715  1.00  0.00     0.732 A 
HETATM    2  N2  UNL     1      -2.564  -0.402  10.681  1.00  0.00    -0.018 N 
ATOM      3  H2  UNL     1      -2.097  -0.988   9.990  1.00  0.00     0.203 HD
HETATM    4  C2  UNL     1      -3.419  -0.949  11.547  1.00  0.00     0.725 A 
HETATM    5  N5  UNL     1      -4.031  -0.146  12.461  1.00  0.00    -0.016 N 
ATOM      6  H5  UNL     1      -4.688  -0.546  13.132  1.00  0.00     0.203 HD
HETATM    7  C3  UNL     1      -3.770   1.172  12.481  1.00  0.00     0.754 A 
HETATM    8  N10 UNL     1      -2.898   1.743  11.600  1.00  0.00     0.131 N 
ENDROOT
BRANCH   7   9
HETATM    9  N6  UNL     1      -4.356   1.898  13.345  1.00  0.00    -0.114 N 
ATOM     10  H6  UNL     1      -5.316   2.175  13.137  1.00  0.00     0.207 HD
BRANCH   9  11
HETATM   11  N7  UNL     1      -3.829   2.345  14.528  1.00  0.00    -0.226 N 
HETATM   12  N8  UNL     1      -4.094   1.951  15.680  1.00  0.00    -0.264 N 
ATOM     13  H8  UNL     1      -3.601   2.402  16.450  1.00  0.00     0.190 HD
ATOM     14  H7  UNL     1      -3.135   3.090  14.458  1.00  0.00     0.209 HD
BRANCH  12  15
HETATM   15  C4  UNL     1      -5.019   0.933  16.013  1.00  0.00     0.200 C 
HETATM   16  N9  UNL     1      -4.840  -0.347  15.426  1.00  0.00    -0.068 NA
HETATM   17  S1  UNL     1      -6.279   1.136  17.027  1.00  0.00    -0.043 SA
ENDBRANCH  12  15
ENDBRANCH   9  11
ENDBRANCH   7   9
BRANCH   8  18
HETATM   18  O1  UNL     1      -2.678   3.075  11.668  1.00  0.00    -0.243 OA
BRANCH  18  19
HETATM   19  C5  UNL     1      -1.666   3.763  12.318  1.00  0.00     0.247 C 
BRANCH  19  20
HETATM   20  C6  UNL     1      -0.631   4.326  11.377  1.00  0.00     0.273 C 
HETATM   21  N11 UNL     1       0.665   3.684  11.568  1.00  0.00    -0.059 N 
HETATM   22  C7  UNL     1       1.600   4.501  10.819  1.00  0.00     0.244 C 
ATOM     23 2H11 UNL     1       0.923   3.554  12.546  1.00  0.00     0.278 HD
ATOM     24 1H11 UNL     1       0.680   2.697  11.310  1.00  0.00     0.278 HD
HETATM   25  C8  UNL     1       1.633   5.859  11.535  1.00  0.00     0.103 C 
HETATM   26  S2  UNL     1      -0.173   6.041  11.855  1.00  0.00    -0.132 SA
ENDBRANCH  19  20
ENDBRANCH  18  19
ENDBRANCH   8  18
BRANCH   4  27
HETATM   27  N3  UNL     1      -3.688  -2.225  11.550  1.00  0.00    -0.138 N 
ATOM     28  H3  UNL     1      -4.635  -2.564  11.718  1.00  0.00     0.205 HD
BRANCH  27  29
HETATM   29  N4  UNL     1      -2.633  -3.112  11.314  1.00  0.00    -0.331 N 
ATOM     30  H42 UNL     1      -2.606  -3.660  10.455  1.00  0.00     0.177 HD
ATOM     31  H41 UNL     1      -1.907  -3.185  12.026  1.00  0.00     0.177 HD
ENDBRANCH  27  29
ENDBRANCH   4  27
BRANCH   1  32
HETATM   32  N1  UNL     1      -1.490   1.371   9.857  1.00  0.00    -0.231 N 
ATOM     33  H12 UNL     1      -1.522   1.049   8.890  1.00  0.00     0.174 HD
ATOM     34  H11 UNL     1      -0.813   2.058  10.189  1.00  0.00     0.174 HD
ENDBRANCH   1  32
TORSDOF 9
ENDMDL
MODEL 3
REMARK VINA RESULT: -6.822190720      0.956      1.028
REMARK  9 active torsions:
REMARK  status: ('A' for Active; 'I' for Inactive)
REMARK    1  A    between atoms: N1_1  and  C1_4 
REMARK    2  A    between atoms: C2_7  and  N3_8 
REMARK    3  A    between atoms: N3_8  and  N4_10 
REMARK    4  A    between atoms: C3_15  and  N6_16 
REMARK    5  A    between atoms: N6_16  and  N7_18 
REMARK    6  A    between atoms: N8_20  and  C4_22 
REMARK    7  A    between atoms: N10_25  and  O1_26 
REMARK    8  A    between atoms: O1_26  and  C5_27 
REMARK    9  A    between atoms: C5_27  and  C6_28 
ROOT
HETATM    1  C1  UNL     1      -2.049   0.891  10.697  1.00  0.00     0.732 A 
HETATM    2  N2  UNL     1      -2.423  -0.388  10.544  1.00  0.00    -0.018 N 
ATOM      3  H2  UNL     1      -2.016  -0.950   9.797  1.00  0.00     0.203 HD
HETATM    4  C2  UNL     1      -3.325  -0.927  11.366  1.00  0.00     0.725 A 
HETATM    5  N5  UNL     1      -3.855  -0.157  12.357  1.00  0.00    -0.016 N 
ATOM      6  H5  UNL     1      -4.546  -0.552  12.995  1.00  0.00     0.203 HD
HETATM    7  C3  UNL     1      -3.466   1.123  12.494  1.00  0.00     0.754 A 
HETATM    8  N10 UNL     1      -2.545   1.685  11.659  1.00  0.00     0.131 N 
ENDROOT
BRANCH   7   9
HETATM    9  N6  UNL     1      -3.978   1.818  13.427  1.00  0.00    -0.114 N 
ATOM     10  H6  UNL     1      -4.923   2.169  13.273  1.00  0.00     0.207 HD
BRANCH   9  11
HETATM   11  N7  UNL     1      -3.386   2.145  14.620  1.00  0.00    -0.226 N 
HETATM   12  N8  UNL     1      -3.710   1.766  15.761  1.00  0.00    -0.264 N 
ATOM     13  H8  UNL     1      -3.153   2.113  16.542  1.00  0.00     0.190 HD
ATOM     14  H7  UNL     1      -2.585   2.773  14.567  1.00  0.00     0.209 HD
BRANCH  12  15
HETATM   15  C4  UNL     1      -4.784   0.898  16.071  1.00  0.00     0.200 C 
HETATM   16  N9  UNL     1      -4.842  -0.354  15.402  1.00  0.00    -0.068 NA
HETATM   17  S1  UNL     1      -5.960   1.242  17.145  1.00  0.00    -0.043 SA
ENDBRANCH  12  15
ENDBRANCH   9  11
ENDBRANCH   7   9
BRANCH   8  18
HETATM   18  O1  UNL     1      -2.196   2.978  11.847  1.00  0.00    -0.243 OA
BRANCH  18  19
HETATM   19  C5  UNL     1      -2.653   4.111  11.194  1.00  0.00     0.247 C 
BRANCH  19  20
HETATM   20  C6  UNL     1      -3.264   5.128  12.124  1.00  0.00     0.273 C 
HETATM   21  N11 UNL     1      -3.290   6.455  11.518  1.00  0.00    -0.059 N 
HETATM   22  C7  UNL     1      -3.630   7.354  12.602  1.00  0.00     0.244 C 
ATOM     23 2H11 UNL     1      -2.430   6.704  11.029  1.00  0.00     0.278 HD
ATOM     24 1H11 UNL     1      -3.909   6.529  10.710  1.00  0.00     0.278 HD
HETATM   25  C8  UNL     1      -2.443   7.300  13.575  1.00  0.00     0.103 C 
HETATM   26  S2  UNL     1      -2.143   5.483  13.538  1.00  0.00    -0.132 SA
ENDBRANCH  19  20
ENDBRANCH  18  19
ENDBRANCH   8  18
BRANCH   4  27
HETATM   27  N3  UNL     1      -3.717  -2.166  11.255  1.00  0.00    -0.138 N 
ATOM     28  H3  UNL     1      -4.701  -2.398  11.119  1.00  0.00     0.205 HD
BRANCH  27  29
HETATM   29  N4  UNL     1      -2.742  -3.165  11.327  1.00  0.00    -0.331 N 
ATOM     30  H42 UNL     1      -1.771  -2.952  11.100  1.00  0.00     0.177 HD
ATOM     31  H41 UNL     1      -3.040  -4.098  11.612  1.00  0.00     0.177 HD
ENDBRANCH  27  29
ENDBRANCH   4  27
BRANCH   1  32
HETATM   32  N1  UNL     1      -1.182   1.341   9.876  1.00  0.00    -0.231 N 
ATOM     33  H12 UNL     1      -0.186   1.227  10.065  1.00  0.00     0.174 HD
ATOM     34  H11 UNL     1      -1.536   1.807   9.040  1.00  0.00     0.174 HD
ENDBRANCH   1  32
TORSDOF 9
ENDMDL
MODEL 4
REMARK VINA RESULT: -6.776739460      1.128      1.234
REMARK  9 active torsions:
REMARK  status: ('A' for Active; 'I' for Inactive)
REMARK    1  A    between atoms: N1_1  and  C1_4 
REMARK    2  A    between atoms: C2_7  and  N3_8 
REMARK    3  A    between atoms: N3_8  and  N4_10 
REMARK    4  A    between atoms: C3_15  and  N6_16 
REMARK    5  A    between atoms: N6_16  and  N7_18 
REMARK    6  A    between atoms: N8_20  and  C4_22 
REMARK    7  A    between atoms: N10_25  and  O1_26 
REMARK    8  A    between atoms: O1_26  and  C5_27 
REMARK    9  A    between atoms: C5_27  and  C6_28 
ROOT
HETATM    1  C1  UNL     1      -2.057   0.892  10.693  1.00  0.00     0.732 A 
HETATM    2  N2  UNL     1      -2.436  -0.386  10.547  1.00  0.00    -0.018 N 
ATOM      3  H2  UNL     1      -2.033  -0.953   9.802  1.00  0.00     0.203 HD
HETATM    4  C2  UNL     1      -3.338  -0.918  11.374  1.00  0.00     0.725 A 
HETATM    5  N5  UNL     1      -3.862  -0.142  12.363  1.00  0.00    -0.016 N 
ATOM      6  H5  UNL     1      -4.553  -0.531  13.004  1.00  0.00     0.203 HD
HETATM    7  C3  UNL     1      -3.468   1.137  12.493  1.00  0.00     0.754 A 
HETATM    8  N10 UNL     1      -2.547   1.692  11.654  1.00  0.00     0.131 N 
ENDROOT
BRANCH   7   9
HETATM    9  N6  UNL     1      -3.974   1.839  13.425  1.00  0.00    -0.114 N 
ATOM     10  H6  UNL     1      -4.916   2.198  13.269  1.00  0.00     0.207 HD
BRANCH   9  11
HETATM   11  N7  UNL     1      -3.381   2.162  14.618  1.00  0.00    -0.226 N 
HETATM   12  N8  UNL     1      -3.704   1.779  15.759  1.00  0.00    -0.264 N 
ATOM     13  H8  UNL     1      -3.145   2.124  16.539  1.00  0.00     0.190 HD
ATOM     14  H7  UNL     1      -2.580   2.790  14.566  1.00  0.00     0.209 HD
BRANCH  12  15
HETATM   15  C4  UNL     1      -4.777   0.910  16.067  1.00  0.00     0.200 C 
HETATM   16  N9  UNL     1      -4.835  -0.340  15.395  1.00  0.00    -0.068 NA
HETATM   17  S1  UNL     1      -5.952   1.251  17.143  1.00  0.00    -0.043 SA
ENDBRANCH  12  15
ENDBRANCH   9  11
ENDBRANCH   7   9
BRANCH   8  18
HETATM   18  O1  UNL     1      -2.193   2.984  11.835  1.00  0.00    -0.243 OA
BRANCH  18  19
HETATM   19  C5  UNL     1      -2.628   4.114  11.160  1.00  0.00     0.247 C 
BRANCH  19  20
HETATM   20  C6  UNL     1      -3.231   5.154  12.069  1.00  0.00     0.273 C 
HETATM   21  N11 UNL     1      -4.681   5.017  12.145  1.00  0.00    -0.059 N 
HETATM   22  C7  UNL     1      -5.137   6.223  12.806  1.00  0.00     0.244 C 
ATOM     23 2H11 UNL     1      -5.129   4.845  11.244  1.00  0.00     0.278 HD
ATOM     24 1H11 UNL     1      -4.992   4.156  12.595  1.00  0.00     0.278 HD
HETATM   25  C8  UNL     1      -4.819   7.373  11.838  1.00  0.00     0.103 C 
HETATM   26  S2  UNL     1      -3.143   6.825  11.306  1.00  0.00    -0.132 SA
ENDBRANCH  19  20
ENDBRANCH  18  19
ENDBRANCH   8  18
BRANCH   4  27
HETATM   27  N3  UNL     1      -3.735  -2.156  11.269  1.00  0.00    -0.138 N 
ATOM     28  H3  UNL     1      -4.722  -2.386  11.158  1.00  0.00     0.205 HD
BRANCH  27  29
HETATM   29  N4  UNL     1      -2.760  -3.157  11.315  1.00  0.00    -0.331 N 
ATOM     30  H42 UNL     1      -2.366  -3.530  10.451  1.00  0.00     0.177 HD
ATOM     31  H41 UNL     1      -2.466  -3.492  12.232  1.00  0.00     0.177 HD
ENDBRANCH  27  29
ENDBRANCH   4  27
BRANCH   1  32
HETATM   32  N1  UNL     1      -1.190   1.335   9.868  1.00  0.00    -0.231 N 
ATOM     33  H12 UNL     1      -0.523   0.698   9.431  1.00  0.00     0.174 HD
ATOM     34  H11 UNL     1      -1.206   2.336   9.675  1.00  0.00     0.174 HD
ENDBRANCH   1  32
TORSDOF 9
ENDMDL
MODEL 5
REMARK VINA RESULT: -6.702927490      1.683      2.226
REMARK  9 active torsions:
REMARK  status: ('A' for Active; 'I' for Inactive)
REMARK    1  A    between atoms: N1_1  and  C1_4 
REMARK    2  A    between atoms: C2_7  and  N3_8 
REMARK    3  A    between atoms: N3_8  and  N4_10 
REMARK    4  A    between atoms: C3_15  and  N6_16 
REMARK    5  A    between atoms: N6_16  and  N7_18 
REMARK    6  A    between atoms: N8_20  and  C4_22 
REMARK    7  A    between atoms: N10_25  and  O1_26 
REMARK    8  A    between atoms: O1_26  and  C5_27 
REMARK    9  A    between atoms: C5_27  and  C6_28 
ROOT
HETATM    1  C1  UNL     1      -2.255   0.829  10.724  1.00  0.00     0.732 A 
HETATM    2  N2  UNL     1      -2.520  -0.482  10.616  1.00  0.00    -0.018 N 
ATOM      3  H2  UNL     1      -2.039  -1.041   9.912  1.00  0.00     0.203 HD
HETATM    4  C2  UNL     1      -3.409  -1.057  11.427  1.00  0.00     0.725 A 
HETATM    5  N5  UNL     1      -4.039  -0.291  12.361  1.00  0.00    -0.016 N 
ATOM      6  H5  UNL     1      -4.722  -0.713  12.990  1.00  0.00     0.203 HD
HETATM    7  C3  UNL     1      -3.759   1.021  12.454  1.00  0.00     0.754 A 
HETATM    8  N10 UNL     1      -2.852   1.620  11.630  1.00  0.00     0.131 N 
ENDROOT
BRANCH   7   9
HETATM    9  N6  UNL     1      -4.362   1.712  13.335  1.00  0.00    -0.114 N 
ATOM     10  H6  UNL     1      -5.356   1.883  13.182  1.00  0.00     0.207 HD
BRANCH   9  11
HETATM   11  N7  UNL     1      -3.811   2.251  14.468  1.00  0.00    -0.226 N 
HETATM   12  N8  UNL     1      -4.046   1.943  15.652  1.00  0.00    -0.264 N 
ATOM     13  H8  UNL     1      -3.539   2.454  16.374  1.00  0.00     0.190 HD
ATOM     14  H7  UNL     1      -3.126   2.993  14.325  1.00  0.00     0.209 HD
BRANCH  12  15
HETATM   15  C4  UNL     1      -4.954   0.947  16.082  1.00  0.00     0.200 C 
HETATM   16  N9  UNL     1      -4.861  -0.341  15.490  1.00  0.00    -0.068 NA
HETATM   17  S1  UNL     1      -6.102   1.181  17.215  1.00  0.00    -0.043 SA
ENDBRANCH  12  15
ENDBRANCH   9  11
ENDBRANCH   7   9
BRANCH   8  18
HETATM   18  O1  UNL     1      -2.615   2.943  11.771  1.00  0.00    -0.243 OA
BRANCH  18  19
HETATM   19  C5  UNL     1      -3.163   4.010  11.075  1.00  0.00     0.247 C 
BRANCH  19  20
HETATM   20  C6  UNL     1      -2.129   4.982  10.568  1.00  0.00     0.273 C 
HETATM   21  N11 UNL     1      -1.779   4.708   9.178  1.00  0.00    -0.059 N 
HETATM   22  C7  UNL     1      -0.604   5.516   8.922  1.00  0.00     0.244 C 
ATOM     23 2H11 UNL     1      -1.653   3.717   8.970  1.00  0.00     0.278 HD
ATOM     24 1H11 UNL     1      -2.542   4.868   8.520  1.00  0.00     0.278 HD
HETATM   25  C8  UNL     1       0.503   4.934   9.814  1.00  0.00     0.103 C 
HETATM   26  S2  UNL     1      -0.491   4.665  11.341  1.00  0.00    -0.132 SA
ENDBRANCH  19  20
ENDBRANCH  18  19
ENDBRANCH   8  18
BRANCH   4  27
HETATM   27  N3  UNL     1      -3.697  -2.327  11.358  1.00  0.00    -0.138 N 
ATOM     28  H3  UNL     1      -4.664  -2.648  11.327  1.00  0.00     0.205 HD
BRANCH  27  29
HETATM   29  N4  UNL     1      -2.633  -3.234  11.329  1.00  0.00    -0.331 N 
ATOM     30  H42 UNL     1      -2.672  -4.090  11.882  1.00  0.00     0.177 HD
ATOM     31  H41 UNL     1      -1.831  -3.005  10.742  1.00  0.00     0.177 HD
ENDBRANCH  27  29
ENDBRANCH   4  27
BRANCH   1  32
HETATM   32  N1  UNL     1      -1.394   1.312   9.916  1.00  0.00    -0.231 N 
ATOM     33  H12 UNL     1      -1.684   1.950   9.176  1.00  0.00     0.174 HD
ATOM     34  H11 UNL     1      -0.423   1.029  10.054  1.00  0.00     0.174 HD
ENDBRANCH   1  32
TORSDOF 9
ENDMDL
