MODEL 1
REMARK VINA RESULT: -8.741605094      0.000      0.000
REMARK  4 active torsions:
REMARK  status: ('A' for Active; 'I' for Inactive)
REMARK    1  A    between atoms: C2_2  and  N1_3 
REMARK    2  A    between atoms: N4_14  and  C7_16 
REMARK    3  A    between atoms: C8_21  and  C9_22 
REMARK    4  A    between atoms: C9_22  and  C10_23 
ROOT
HETATM    1  N1  UNL     1       1.392   4.422  10.306  1.00  0.00    -0.283 N 
HETATM    2  C3  UNL     1       1.501   3.669   9.205  1.00  0.00     0.328 A 
HETATM    3  O1  UNL     1       2.401   3.744   8.328  1.00  0.00    -0.246 OA
HETATM    4  N2  UNL     1       0.490   2.784   9.143  1.00  0.00    -0.301 N 
ATOM      5  H2  UNL     1       0.345   2.097   8.403  1.00  0.00     0.171 HD
HETATM    6  C4  UNL     1      -0.295   2.954  10.216  1.00  0.00     0.150 A 
HETATM    7  C5  UNL     1      -1.458   2.332  10.665  1.00  0.00     0.290 A 
HETATM    8  O2  UNL     1      -1.966   1.405  10.002  1.00  0.00    -0.265 OA
HETATM    9  N3  UNL     1      -1.973   2.793  11.825  1.00  0.00    -0.153 N 
ATOM     10  H3  UNL     1      -2.825   2.358  12.179  1.00  0.00     0.187 HD
HETATM   11  C6  UNL     1      -1.433   3.785  12.535  1.00  0.00     0.701 A 
HETATM   12  N4  UNL     1      -1.923   4.229  13.646  1.00  0.00    -0.020 N 
ATOM     13  H4  UNL     1      -1.442   4.992  14.122  1.00  0.00     0.203 HD
HETATM   14  N10 UNL     1      -0.303   4.362  12.064  1.00  0.00    -0.173 N 
ATOM     15  H10 UNL     1       0.118   5.121  12.599  1.00  0.00     0.186 HD
HETATM   16  C12 UNL     1       0.279   3.981  10.936  1.00  0.00     0.160 A 
ENDROOT
BRANCH  12  17
HETATM   17  C7  UNL     1      -3.097   3.701  14.228  1.00  0.00     0.714 A 
HETATM   18  N5  UNL     1      -3.016   2.809  15.217  1.00  0.00    -0.131 N 
HETATM   19  N6  UNL     1      -4.104   2.302  15.775  1.00  0.00    -0.285 N 
ATOM     20  H5  UNL     1      -2.099   2.512  15.549  1.00  0.00     0.205 HD
HETATM   21  C8  UNL     1      -5.314   2.690  15.343  1.00  0.00     0.101 A 
ATOM     22  H6  UNL     1      -4.023   1.621  16.529  1.00  0.00     0.187 HD
HETATM   23  C11 UNL     1      -5.440   3.603  14.330  1.00  0.00     0.284 A 
HETATM   24  O3  UNL     1      -6.575   3.935  13.959  1.00  0.00    -0.265 OA
HETATM   25  N9  UNL     1      -4.298   4.089  13.795  1.00  0.00    -0.152 N 
ATOM     26  H9  UNL     1      -4.357   4.771  13.039  1.00  0.00     0.187 HD
BRANCH  21  27
HETATM   27  C9  UNL     1      -6.516   2.102  15.990  1.00  0.00     0.137 C 
BRANCH  27  28
HETATM   28  C10 UNL     1      -6.196   1.361  17.219  1.00  0.00     0.092 C 
HETATM   29  N7  UNL     1      -6.305   1.943  18.359  1.00  0.00    -0.391 N 
ATOM     30  H72 UNL     1      -6.615   2.915  18.385  1.00  0.00     0.157 HD
ATOM     31  H71 UNL     1      -6.082   1.428  19.211  1.00  0.00     0.157 HD
HETATM   32  N8  UNL     1      -5.765   0.010  17.183  1.00  0.00    -0.088 NA
ENDBRANCH  27  28
ENDBRANCH  21  27
ENDBRANCH  12  17
BRANCH   1  33
HETATM   33  C2  UNL     1       2.283   5.500  10.750  1.00  0.00     0.131 C 
HETATM   34  C1  UNL     1       3.227   4.905  11.774  1.00  0.00     0.027 C 
ENDBRANCH   1  33
TORSDOF 4
ENDMDL
MODEL 2
REMARK VINA RESULT: -8.502522180      0.832      1.072
REMARK  4 active torsions:
REMARK  status: ('A' for Active; 'I' for Inactive)
REMARK    1  A    between atoms: C2_2  and  N1_3 
REMARK    2  A    between atoms: N4_14  and  C7_16 
REMARK    3  A    between atoms: C8_21  and  C9_22 
REMARK    4  A    between atoms: C9_22  and  C10_23 
ROOT
HETATM    1  N1  UNL     1       1.709   4.825  10.057  1.00  0.00    -0.283 N 
HETATM    2  C3  UNL     1       1.959   3.956   9.070  1.00  0.00     0.328 A 
HETATM    3  O1  UNL     1       2.860   4.050   8.195  1.00  0.00    -0.246 OA
HETATM    4  N2  UNL     1       1.096   2.926   9.125  1.00  0.00    -0.301 N 
ATOM      5  H2  UNL     1       1.076   2.131   8.485  1.00  0.00     0.171 HD
HETATM    6  C4  UNL     1       0.267   3.116  10.161  1.00  0.00     0.150 A 
HETATM    7  C5  UNL     1      -0.800   2.389  10.685  1.00  0.00     0.290 A 
HETATM    8  O2  UNL     1      -1.144   1.314  10.153  1.00  0.00    -0.265 OA
HETATM    9  N3  UNL     1      -1.408   2.917  11.768  1.00  0.00    -0.153 N 
ATOM     10  H3  UNL     1      -2.193   2.408  12.175  1.00  0.00     0.187 HD
HETATM   11  C6  UNL     1      -1.043   4.067  12.339  1.00  0.00     0.701 A 
HETATM   12  N4  UNL     1      -1.623   4.576  13.376  1.00  0.00    -0.020 N 
ATOM     13  H4  UNL     1      -1.276   5.461  13.746  1.00  0.00     0.203 HD
HETATM   14  N10 UNL     1      -0.002   4.742  11.798  1.00  0.00    -0.173 N 
ATOM     15  H10 UNL     1       0.285   5.622  12.226  1.00  0.00     0.186 HD
HETATM   16  C12 UNL     1       0.660   4.307  10.736  1.00  0.00     0.160 A 
ENDROOT
BRANCH  12  17
HETATM   17  C7  UNL     1      -2.718   3.957  14.019  1.00  0.00     0.714 A 
HETATM   18  N5  UNL     1      -2.520   3.168  15.077  1.00  0.00    -0.131 N 
HETATM   19  N6  UNL     1      -3.532   2.579  15.693  1.00  0.00    -0.285 N 
ATOM     20  H5  UNL     1      -1.571   3.016  15.416  1.00  0.00     0.205 HD
HETATM   21  C8  UNL     1      -4.784   2.776  15.251  1.00  0.00     0.101 A 
ATOM     22  H6  UNL     1      -3.361   1.978  16.499  1.00  0.00     0.187 HD
HETATM   23  C11 UNL     1      -5.030   3.579  14.169  1.00  0.00     0.284 A 
HETATM   24  O3  UNL     1      -6.200   3.735  13.791  1.00  0.00    -0.265 OA
HETATM   25  N9  UNL     1      -3.961   4.155  13.577  1.00  0.00    -0.152 N 
ATOM     26  H9  UNL     1      -4.110   4.760  12.768  1.00  0.00     0.187 HD
BRANCH  21  27
HETATM   27  C9  UNL     1      -5.899   2.100  15.964  1.00  0.00     0.137 C 
BRANCH  27  28
HETATM   28  C10 UNL     1      -5.593   0.702  16.302  1.00  0.00     0.092 C 
HETATM   29  N7  UNL     1      -5.935   0.235  17.449  1.00  0.00    -0.391 N 
ATOM     30  H72 UNL     1      -6.416   0.852  18.105  1.00  0.00     0.157 HD
ATOM     31  H71 UNL     1      -5.723  -0.735  17.683  1.00  0.00     0.157 HD
HETATM   32  N8  UNL     1      -4.926  -0.156  15.391  1.00  0.00    -0.088 NA
ENDBRANCH  27  28
ENDBRANCH  21  27
ENDBRANCH  12  17
BRANCH   1  33
HETATM   33  C2  UNL     1       2.414   6.077  10.353  1.00  0.00     0.131 C 
HETATM   34  C1  UNL     1       1.651   7.191   9.667  1.00  0.00     0.027 C 
ENDBRANCH   1  33
TORSDOF 4
ENDMDL
MODEL 3
REMARK VINA RESULT: -8.110076518      2.380      2.708
REMARK  4 active torsions:
REMARK  status: ('A' for Active; 'I' for Inactive)
REMARK    1  A    between atoms: C2_2  and  N1_3 
REMARK    2  A    between atoms: N4_14  and  C7_16 
REMARK    3  A    between atoms: C8_21  and  C9_22 
REMARK    4  A    between atoms: C9_22  and  C10_23 
ROOT
HETATM    1  N1  UNL     1      -1.175   3.979   8.523  1.00  0.00    -0.283 N 
HETATM    2  C3  UNL     1      -0.457   2.955   8.045  1.00  0.00     0.328 A 
HETATM    3  O1  UNL     1       0.200   2.932   6.971  1.00  0.00    -0.246 OA
HETATM    4  N2  UNL     1      -0.524   1.906   8.885  1.00  0.00    -0.301 N 
ATOM      5  H2  UNL     1      -0.065   1.005   8.750  1.00  0.00     0.171 HD
HETATM    6  C4  UNL     1      -1.294   2.242   9.929  1.00  0.00     0.150 A 
HETATM    7  C5  UNL     1      -1.704   1.568  11.078  1.00  0.00     0.290 A 
HETATM    8  O2  UNL     1      -1.333   0.394  11.279  1.00  0.00    -0.265 OA
HETATM    9  N3  UNL     1      -2.501   2.256  11.923  1.00  0.00    -0.153 N 
ATOM     10  H3  UNL     1      -2.818   1.789  12.773  1.00  0.00     0.187 HD
HETATM   11  C6  UNL     1      -2.900   3.512  11.711  1.00  0.00     0.701 A 
HETATM   12  N4  UNL     1      -3.663   4.175  12.517  1.00  0.00    -0.020 N 
ATOM     13  H4  UNL     1      -3.917   5.132  12.273  1.00  0.00     0.203 HD
HETATM   14  N10 UNL     1      -2.479   4.131  10.582  1.00  0.00    -0.173 N 
ATOM     15  H10 UNL     1      -2.778   5.090  10.410  1.00  0.00     0.186 HD
HETATM   16  C12 UNL     1      -1.695   3.540   9.692  1.00  0.00     0.160 A 
ENDROOT
BRANCH  12  17
HETATM   17  C7  UNL     1      -4.159   3.628  13.721  1.00  0.00     0.714 A 
HETATM   18  N5  UNL     1      -5.364   3.979  14.174  1.00  0.00    -0.131 N 
HETATM   19  N6  UNL     1      -5.847   3.479  15.300  1.00  0.00    -0.285 N 
ATOM     20  H5  UNL     1      -5.923   4.646  13.643  1.00  0.00     0.205 HD
HETATM   21  C8  UNL     1      -5.116   2.600  16.003  1.00  0.00     0.101 A 
ATOM     22  H6  UNL     1      -6.769   3.759  15.631  1.00  0.00     0.187 HD
HETATM   23  C11 UNL     1      -3.875   2.213  15.572  1.00  0.00     0.284 A 
HETATM   24  O3  UNL     1      -3.230   1.399  16.250  1.00  0.00    -0.265 OA
HETATM   25  N9  UNL     1      -3.429   2.754  14.417  1.00  0.00    -0.152 N 
ATOM     26  H9  UNL     1      -2.508   2.487  14.068  1.00  0.00     0.187 HD
BRANCH  21  27
HETATM   27  C9  UNL     1      -5.686   2.056  17.264  1.00  0.00     0.137 C 
BRANCH  27  28
HETATM   28  C10 UNL     1      -6.551   0.888  17.039  1.00  0.00     0.092 C 
HETATM   29  N7  UNL     1      -7.784   1.062  16.722  1.00  0.00    -0.391 N 
ATOM     30  H72 UNL     1      -8.136   2.015  16.634  1.00  0.00     0.157 HD
ATOM     31  H71 UNL     1      -8.384   0.252  16.567  1.00  0.00     0.157 HD
HETATM   32  N8  UNL     1      -6.061  -0.437  17.162  1.00  0.00    -0.088 NA
ENDBRANCH  27  28
ENDBRANCH  21  27
ENDBRANCH  12  17
BRANCH   1  33
HETATM   33  C2  UNL     1      -1.365   5.303   7.919  1.00  0.00     0.131 C 
HETATM   34  C1  UNL     1      -2.631   5.236   7.091  1.00  0.00     0.027 C 
ENDBRANCH   1  33
TORSDOF 4
ENDMDL
MODEL 4
REMARK VINA RESULT: -8.090456156      1.029      1.152
REMARK  4 active torsions:
REMARK  status: ('A' for Active; 'I' for Inactive)
REMARK    1  A    between atoms: C2_2  and  N1_3 
REMARK    2  A    between atoms: N4_14  and  C7_16 
REMARK    3  A    between atoms: C8_21  and  C9_22 
REMARK    4  A    between atoms: C9_22  and  C10_23 
ROOT
HETATM    1  N1  UNL     1       0.666   4.593   8.992  1.00  0.00    -0.283 N 
HETATM    2  C3  UNL     1       0.800   3.667   8.035  1.00  0.00     0.328 A 
HETATM    3  O1  UNL     1       1.562   3.723   7.034  1.00  0.00    -0.246 OA
HETATM    4  N2  UNL     1      -0.011   2.622   8.281  1.00  0.00    -0.301 N 
ATOM      5  H2  UNL     1      -0.097   1.786   7.702  1.00  0.00     0.171 HD
HETATM    6  C4  UNL     1      -0.687   2.862   9.412  1.00  0.00     0.150 A 
HETATM    7  C5  UNL     1      -1.643   2.146  10.132  1.00  0.00     0.290 A 
HETATM    8  O2  UNL     1      -2.024   1.030   9.725  1.00  0.00    -0.265 OA
HETATM    9  N3  UNL     1      -2.106   2.731  11.257  1.00  0.00    -0.153 N 
ATOM     10  H3  UNL     1      -2.807   2.231  11.805  1.00  0.00     0.187 HD
HETATM   11  C6  UNL     1      -1.701   3.925  11.695  1.00  0.00     0.701 A 
HETATM   12  N4  UNL     1      -2.142   4.488  12.771  1.00  0.00    -0.020 N 
ATOM     13  H4  UNL     1      -1.774   5.404  13.030  1.00  0.00     0.203 HD
HETATM   14  N10 UNL     1      -0.772   4.587  10.966  1.00  0.00    -0.173 N 
ATOM     15  H10 UNL     1      -0.456   5.500  11.292  1.00  0.00     0.186 HD
HETATM   16  C12 UNL     1      -0.256   4.097   9.849  1.00  0.00     0.160 A 
ENDROOT
BRANCH  12  17
HETATM   17  C7  UNL     1      -3.111   3.888  13.605  1.00  0.00     0.714 A 
HETATM   18  N5  UNL     1      -2.736   3.143  14.647  1.00  0.00    -0.131 N 
HETATM   19  N6  UNL     1      -3.628   2.572  15.440  1.00  0.00    -0.285 N 
ATOM     20  H5  UNL     1      -1.742   3.012  14.836  1.00  0.00     0.205 HD
HETATM   21  C8  UNL     1      -4.937   2.742  15.197  1.00  0.00     0.101 A 
ATOM     22  H6  UNL     1      -3.323   2.006  16.231  1.00  0.00     0.187 HD
HETATM   23  C11 UNL     1      -5.364   3.499  14.139  1.00  0.00     0.284 A 
HETATM   24  O3  UNL     1      -6.582   3.631  13.947  1.00  0.00    -0.265 OA
HETATM   25  N9  UNL     1      -4.412   4.059  13.361  1.00  0.00    -0.152 N 
ATOM     26  H9  UNL     1      -4.696   4.629  12.564  1.00  0.00     0.187 HD
BRANCH  21  27
HETATM   27  C9  UNL     1      -5.914   2.087  16.106  1.00  0.00     0.137 C 
BRANCH  27  28
HETATM   28  C10 UNL     1      -5.575   0.685  16.391  1.00  0.00     0.092 C 
HETATM   29  N7  UNL     1      -5.835   0.191  17.548  1.00  0.00    -0.391 N 
ATOM     30  H72 UNL     1      -6.275   0.789  18.248  1.00  0.00     0.157 HD
ATOM     31  H71 UNL     1      -5.599  -0.781  17.746  1.00  0.00     0.157 HD
HETATM   32  N8  UNL     1      -4.963  -0.146  15.419  1.00  0.00    -0.088 NA
ENDBRANCH  27  28
ENDBRANCH  21  27
ENDBRANCH  12  17
BRANCH   1  33
HETATM   33  C2  UNL     1       1.365   5.879   9.103  1.00  0.00     0.131 C 
HETATM   34  C1  UNL     1       2.551   5.664  10.020  1.00  0.00     0.027 C 
ENDBRANCH   1  33
TORSDOF 4
ENDMDL
MODEL 5
REMARK VINA RESULT: -7.670499641      1.752      2.415
REMARK  4 active torsions:
REMARK  status: ('A' for Active; 'I' for Inactive)
REMARK    1  A    between atoms: C2_2  and  N1_3 
REMARK    2  A    between atoms: N4_14  and  C7_16 
REMARK    3  A    between atoms: C8_21  and  C9_22 
REMARK    4  A    between atoms: C9_22  and  C10_23 
ROOT
HETATM    1  N1  UNL     1       0.924   4.343   9.801  1.00  0.00    -0.283 N 
HETATM    2  C3  UNL     1       1.479   5.558   9.891  1.00  0.00     0.328 A 
HETATM    3  O1  UNL     1       2.443   5.997   9.210  1.00  0.00    -0.246 OA
HETATM    4  N2  UNL     1       0.858   6.286  10.837  1.00  0.00    -0.301 N 
ATOM      5  H2  UNL     1       1.091   7.243  11.100  1.00  0.00     0.171 HD
HETATM    6  C4  UNL     1      -0.118   5.543  11.376  1.00  0.00     0.150 A 
HETATM    7  C5  UNL     1      -1.063   5.774  12.375  1.00  0.00     0.290 A 
HETATM    8  O2  UNL     1      -1.096   6.876  12.959  1.00  0.00    -0.265 OA
HETATM    9  N3  UNL     1      -1.904   4.755  12.650  1.00  0.00    -0.153 N 
ATOM     10  H3  UNL     1      -2.606   4.894  13.376  1.00  0.00     0.187 HD
HETATM   11  C6  UNL     1      -1.870   3.575  12.027  1.00  0.00     0.701 A 
HETATM   12  N4  UNL     1      -2.674   2.597  12.287  1.00  0.00    -0.020 N 
ATOM     13  H4  UNL     1      -2.576   1.729  11.759  1.00  0.00     0.203 HD
HETATM   14  N10 UNL     1      -0.938   3.391  11.063  1.00  0.00    -0.173 N 
ATOM     15  H10 UNL     1      -0.903   2.493  10.581  1.00  0.00     0.186 HD
HETATM   16  C12 UNL     1      -0.068   4.330  10.721  1.00  0.00     0.160 A 
ENDROOT
BRANCH  12  17
HETATM   17  C7  UNL     1      -3.684   2.679  13.272  1.00  0.00     0.714 A 
HETATM   18  N5  UNL     1      -3.528   2.071  14.449  1.00  0.00    -0.131 N 
HETATM   19  N6  UNL     1      -4.461   2.136  15.384  1.00  0.00    -0.285 N 
ATOM     20  H5  UNL     1      -2.672   1.547  14.631  1.00  0.00     0.205 HD
HETATM   21  C8  UNL     1      -5.589   2.825  15.150  1.00  0.00     0.101 A 
ATOM     22  H6  UNL     1      -4.325   1.664  16.278  1.00  0.00     0.187 HD
HETATM   23  C11 UNL     1      -5.788   3.463  13.955  1.00  0.00     0.284 A 
HETATM   24  O3  UNL     1      -6.843   4.090  13.777  1.00  0.00    -0.265 OA
HETATM   25  N9  UNL     1      -4.804   3.366  13.035  1.00  0.00    -0.152 N 
ATOM     26  H9  UNL     1      -4.920   3.830  12.134  1.00  0.00     0.187 HD
BRANCH  21  27
HETATM   27  C9  UNL     1      -6.619   2.879  16.221  1.00  0.00     0.137 C 
BRANCH  27  28
HETATM   28  C10 UNL     1      -6.559   1.721  17.126  1.00  0.00     0.092 C 
HETATM   29  N7  UNL     1      -6.331   1.904  18.377  1.00  0.00    -0.391 N 
ATOM     30  H72 UNL     1      -6.196   2.857  18.716  1.00  0.00     0.157 HD
ATOM     31  H71 UNL     1      -6.289   1.101  19.005  1.00  0.00     0.157 HD
HETATM   32  N8  UNL     1      -6.746   0.397  16.655  1.00  0.00    -0.088 NA
ENDBRANCH  27  28
ENDBRANCH  21  27
ENDBRANCH  12  17
BRANCH   1  33
HETATM   33  C2  UNL     1       1.300   3.248   8.899  1.00  0.00     0.131 C 
HETATM   34  C1  UNL     1       0.376   3.320   7.701  1.00  0.00     0.027 C 
ENDBRANCH   1  33
TORSDOF 4
ENDMDL
