MODEL 1
REMARK VINA RESULT: -7.637369682      0.000      0.000
REMARK  5 active torsions:
REMARK  status: ('A' for Active; 'I' for Inactive)
REMARK    1  A    between atoms: C4_6  and  N2_7 
REMARK    2  A    between atoms: C7_14  and  C8_15 
REMARK    3  A    between atoms: C10_17  and  C11_18 
REMARK    4  A    between atoms: C11_18  and  N4_19 
REMARK    5  A    between atoms: C11_18  and  N5_23 
ROOT
HETATM    1  C8  UNL     1      -4.917   4.112  12.678  1.00  0.00     0.035 C 
HETATM    2  C9  UNL     1      -4.639   2.730  12.435  1.00  0.00     0.060 A 
HETATM    3  C10 UNL     1      -4.429   1.921  13.565  1.00  0.00     0.085 A 
HETATM    4  N6  UNL     1      -4.224   0.619  13.378  1.00  0.00    -0.307 N 
ATOM      5  H6  UNL     1      -4.072   0.024  14.193  1.00  0.00     0.170 HD
HETATM    6  C12 UNL     1      -4.210   0.056  12.160  1.00  0.00     0.327 A 
HETATM    7  O3  UNL     1      -4.009  -1.188  12.054  1.00  0.00    -0.247 OA
HETATM    8  N7  UNL     1      -4.412   0.839  11.087  1.00  0.00    -0.275 N 
ATOM      9  H7  UNL     1      -4.403   0.415  10.160  1.00  0.00     0.173 HD
HETATM   10  C13 UNL     1      -4.627   2.161  11.192  1.00  0.00     0.261 A 
HETATM   11  O4  UNL     1      -4.817   2.866  10.136  1.00  0.00    -0.267 OA
ENDROOT
BRANCH   1  12
HETATM   12  C7  UNL     1      -4.260   5.213  12.673  1.00  0.00     0.015 A 
HETATM   13  C3  UNL     1      -4.903   6.443  12.455  1.00  0.00     0.057 A 
HETATM   14  C2  UNL     1      -6.203   6.481  12.252  1.00  0.00    -0.000 C 
HETATM   15  N1  UNL     1      -4.213   7.622  12.446  1.00  0.00    -0.192 N 
HETATM   16  C1  UNL     1      -6.845   7.837  12.022  1.00  0.00     0.038 C 
HETATM   17  C4  UNL     1      -2.904   7.642  12.646  1.00  0.00     0.676 A 
ATOM     18  H1  UNL     1      -4.711   8.497  12.285  1.00  0.00     0.184 HD
HETATM   19  N3  UNL     1      -2.247   6.505  12.857  1.00  0.00    -0.195 N 
HETATM   20  C5  UNL     1      -2.912   5.297  12.872  1.00  0.00     0.035 A 
ATOM     21  H3  UNL     1      -1.239   6.527  13.010  1.00  0.00     0.184 HD
HETATM   22  C6  UNL     1      -2.050   4.146  13.105  1.00  0.00     0.070 C 
BRANCH  17  23
HETATM   23  N2  UNL     1      -2.220   8.765  12.642  1.00  0.00    -0.234 N 
ATOM     24  H22 UNL     1      -2.200   9.322  13.496  1.00  0.00     0.174 HD
ATOM     25  H21 UNL     1      -1.716   9.084  11.814  1.00  0.00     0.174 HD
ENDBRANCH  17  23
ENDBRANCH   1  12
BRANCH   3  26
HETATM   26  C11 UNL     1      -4.438   2.517  14.945  1.00  0.00     0.401 C 
BRANCH  26  27
HETATM   27  N4  UNL     1      -3.253   2.126  15.680  1.00  0.00    -0.047 N 
ATOM     28  H43 UNL     1      -2.729   1.400  15.193  1.00  0.00     0.277 HD
ATOM     29  H42 UNL     1      -2.544   2.859  15.671  1.00  0.00     0.277 HD
ATOM     30  H41 UNL     1      -3.494   1.845  16.630  1.00  0.00     0.277 HD
ENDBRANCH  26  27
BRANCH  26  31
HETATM   31  N5  UNL     1      -5.633   2.045  15.586  1.00  0.00    -0.117 N 
HETATM   32  O1  UNL     1      -6.556   2.821  15.858  1.00  0.00    -0.534 OA
HETATM   33  O2  UNL     1      -5.763   0.725  15.904  1.00  0.00    -0.534 OA
ENDBRANCH  26  31
ENDBRANCH   3  26
TORSDOF 5
ENDMDL
MODEL 2
REMARK VINA RESULT: -7.576118291      3.589      4.220
REMARK  5 active torsions:
REMARK  status: ('A' for Active; 'I' for Inactive)
REMARK    1  A    between atoms: C4_6  and  N2_7 
REMARK    2  A    between atoms: C7_14  and  C8_15 
REMARK    3  A    between atoms: C10_17  and  C11_18 
REMARK    4  A    between atoms: C11_18  and  N4_19 
REMARK    5  A    between atoms: C11_18  and  N5_23 
ROOT
HETATM    1  C8  UNL     1      -3.339   3.199  10.362  1.00  0.00     0.035 C 
HETATM    2  C9  UNL     1      -3.669   2.231  11.363  1.00  0.00     0.060 A 
HETATM    3  C10 UNL     1      -3.325   2.552  12.687  1.00  0.00     0.085 A 
HETATM    4  N6  UNL     1      -3.668   1.700  13.651  1.00  0.00    -0.307 N 
ATOM      5  H6  UNL     1      -3.423   1.926  14.616  1.00  0.00     0.170 HD
HETATM    6  C12 UNL     1      -4.323   0.554  13.405  1.00  0.00     0.327 A 
HETATM    7  O3  UNL     1      -4.617  -0.210  14.368  1.00  0.00    -0.247 OA
HETATM    8  N7  UNL     1      -4.646   0.258  12.135  1.00  0.00    -0.275 N 
ATOM      9  H7  UNL     1      -5.144  -0.612  11.945  1.00  0.00     0.173 HD
HETATM   10  C13 UNL     1      -4.337   1.066  11.107  1.00  0.00     0.261 A 
HETATM   11  O4  UNL     1      -4.670   0.738   9.912  1.00  0.00    -0.267 OA
ENDROOT
BRANCH   1  12
HETATM   12  C7  UNL     1      -2.404   3.375   9.504  1.00  0.00     0.015 A 
HETATM   13  C3  UNL     1      -2.413   4.477   8.631  1.00  0.00     0.057 A 
HETATM   14  C2  UNL     1      -3.395   5.352   8.686  1.00  0.00    -0.000 C 
HETATM   15  N1  UNL     1      -1.421   4.673   7.713  1.00  0.00    -0.192 N 
HETATM   16  C1  UNL     1      -3.355   6.522   7.720  1.00  0.00     0.038 C 
HETATM   17  C4  UNL     1      -0.410   3.824   7.616  1.00  0.00     0.676 A 
ATOM     18  H1  UNL     1      -1.460   5.484   7.095  1.00  0.00     0.184 HD
HETATM   19  N3  UNL     1      -0.353   2.765   8.418  1.00  0.00    -0.195 N 
HETATM   20  C5  UNL     1      -1.337   2.535   9.357  1.00  0.00     0.035 A 
ATOM     21  H3  UNL     1       0.429   2.114   8.338  1.00  0.00     0.184 HD
HETATM   22  C6  UNL     1      -1.134   1.329  10.148  1.00  0.00     0.070 C 
BRANCH  17  23
HETATM   23  N2  UNL     1       0.555   3.994   6.738  1.00  0.00    -0.234 N 
ATOM     24  H22 UNL     1       0.360   4.554   5.909  1.00  0.00     0.174 HD
ATOM     25  H21 UNL     1       1.479   3.583   6.871  1.00  0.00     0.174 HD
ENDBRANCH  17  23
ENDBRANCH   1  12
BRANCH   3  26
HETATM   26  C11 UNL     1      -2.592   3.826  13.000  1.00  0.00     0.401 C 
BRANCH  26  27
HETATM   27  N4  UNL     1      -1.173   3.674  12.758  1.00  0.00    -0.047 N 
ATOM     28  H43 UNL     1      -0.950   3.745  11.765  1.00  0.00     0.277 HD
ATOM     29  H42 UNL     1      -0.644   4.480  13.091  1.00  0.00     0.277 HD
ATOM     30  H41 UNL     1      -0.829   2.803  13.161  1.00  0.00     0.277 HD
ENDBRANCH  26  27
BRANCH  26  31
HETATM   31  N5  UNL     1      -2.860   4.124  14.380  1.00  0.00    -0.117 N 
HETATM   32  O1  UNL     1      -3.832   4.817  14.701  1.00  0.00    -0.534 OA
HETATM   33  O2  UNL     1      -2.039   3.641  15.355  1.00  0.00    -0.534 OA
ENDBRANCH  26  31
ENDBRANCH   3  26
TORSDOF 5
ENDMDL
MODEL 3
REMARK VINA RESULT: -7.498059966      0.933      2.430
REMARK  5 active torsions:
REMARK  status: ('A' for Active; 'I' for Inactive)
REMARK    1  A    between atoms: C4_6  and  N2_7 
REMARK    2  A    between atoms: C7_14  and  C8_15 
REMARK    3  A    between atoms: C10_17  and  C11_18 
REMARK    4  A    between atoms: C11_18  and  N4_19 
REMARK    5  A    between atoms: C11_18  and  N5_23 
ROOT
HETATM    1  C8  UNL     1      -4.830   3.617  12.533  1.00  0.00     0.035 C 
HETATM    2  C9  UNL     1      -4.540   2.236  12.292  1.00  0.00     0.060 A 
HETATM    3  C10 UNL     1      -4.325   1.432  13.424  1.00  0.00     0.085 A 
HETATM    4  N6  UNL     1      -4.108   0.131  13.240  1.00  0.00    -0.307 N 
ATOM      5  H6  UNL     1      -3.952  -0.461  14.056  1.00  0.00     0.170 HD
HETATM    6  C12 UNL     1      -4.086  -0.434  12.022  1.00  0.00     0.327 A 
HETATM    7  O3  UNL     1      -3.875  -1.676  11.918  1.00  0.00    -0.247 OA
HETATM    8  N7  UNL     1      -4.294   0.346  10.947  1.00  0.00    -0.275 N 
ATOM      9  H7  UNL     1      -4.279  -0.080  10.021  1.00  0.00     0.173 HD
HETATM   10  C13 UNL     1      -4.520   1.666  11.050  1.00  0.00     0.261 A 
HETATM   11  O4  UNL     1      -4.715   2.367   9.993  1.00  0.00    -0.267 OA
ENDROOT
BRANCH   1  12
HETATM   12  C7  UNL     1      -4.184   4.723  12.527  1.00  0.00     0.015 A 
HETATM   13  C3  UNL     1      -2.812   4.764  12.224  1.00  0.00     0.057 A 
HETATM   14  C2  UNL     1      -2.166   3.653  11.940  1.00  0.00    -0.000 C 
HETATM   15  N1  UNL     1      -2.113   5.938  12.216  1.00  0.00    -0.192 N 
HETATM   16  C1  UNL     1      -0.686   3.755  11.621  1.00  0.00     0.038 C 
HETATM   17  C4  UNL     1      -2.713   7.085  12.494  1.00  0.00     0.676 A 
ATOM     18  H1  UNL     1      -1.118   5.931  11.992  1.00  0.00     0.184 HD
HETATM   19  N3  UNL     1      -4.010   7.102  12.786  1.00  0.00    -0.195 N 
HETATM   20  C5  UNL     1      -4.746   5.936  12.805  1.00  0.00     0.035 A 
ATOM     21  H3  UNL     1      -4.467   7.989  13.000  1.00  0.00     0.184 HD
HETATM   22  C6  UNL     1      -6.148   6.123  13.154  1.00  0.00     0.070 C 
BRANCH  17  23
HETATM   23  N2  UNL     1      -2.060   8.226  12.491  1.00  0.00    -0.234 N 
ATOM     24  H22 UNL     1      -2.255   8.893  11.744  1.00  0.00     0.174 HD
ATOM     25  H21 UNL     1      -1.374   8.454  13.211  1.00  0.00     0.174 HD
ENDBRANCH  17  23
ENDBRANCH   1  12
BRANCH   3  26
HETATM   26  C11 UNL     1      -4.342   2.029  14.803  1.00  0.00     0.401 C 
BRANCH  26  27
HETATM   27  N4  UNL     1      -3.048   2.585  15.137  1.00  0.00    -0.047 N 
ATOM     28  H43 UNL     1      -2.311   1.881  15.093  1.00  0.00     0.277 HD
ATOM     29  H42 UNL     1      -2.706   3.211  14.408  1.00  0.00     0.277 HD
ATOM     30  H41 UNL     1      -3.076   3.044  16.047  1.00  0.00     0.277 HD
ENDBRANCH  26  27
BRANCH  26  31
HETATM   31  N5  UNL     1      -4.708   0.971  15.703  1.00  0.00    -0.117 N 
HETATM   32  O1  UNL     1      -3.846   0.337  16.320  1.00  0.00    -0.534 OA
HETATM   33  O2  UNL     1      -6.021   0.654  15.886  1.00  0.00    -0.534 OA
ENDBRANCH  26  31
ENDBRANCH   3  26
TORSDOF 5
ENDMDL
MODEL 4
REMARK VINA RESULT: -7.494845195      2.991      4.141
REMARK  5 active torsions:
REMARK  status: ('A' for Active; 'I' for Inactive)
REMARK    1  A    between atoms: C4_6  and  N2_7 
REMARK    2  A    between atoms: C7_14  and  C8_15 
REMARK    3  A    between atoms: C10_17  and  C11_18 
REMARK    4  A    between atoms: C11_18  and  N4_19 
REMARK    5  A    between atoms: C11_18  and  N5_23 
ROOT
HETATM    1  C8  UNL     1      -3.621   2.850  11.498  1.00  0.00     0.035 C 
HETATM    2  C9  UNL     1      -3.801   2.126  12.718  1.00  0.00     0.060 A 
HETATM    3  C10 UNL     1      -3.434   2.787  13.903  1.00  0.00     0.085 A 
HETATM    4  N6  UNL     1      -3.641   2.164  15.062  1.00  0.00    -0.307 N 
ATOM      5  H6  UNL     1      -3.378   2.637  15.926  1.00  0.00     0.170 HD
HETATM    6  C12 UNL     1      -4.181   0.937  15.137  1.00  0.00     0.327 A 
HETATM    7  O3  UNL     1      -4.350   0.403  16.271  1.00  0.00    -0.247 OA
HETATM    8  N7  UNL     1      -4.528   0.316  13.998  1.00  0.00    -0.275 N 
ATOM      9  H7  UNL     1      -4.939  -0.616  14.052  1.00  0.00     0.173 HD
HETATM   10  C13 UNL     1      -4.353   0.877  12.790  1.00  0.00     0.261 A 
HETATM   11  O4  UNL     1      -4.703   0.242  11.731  1.00  0.00    -0.267 OA
ENDROOT
BRANCH   1  12
HETATM   12  C7  UNL     1      -2.749   2.900  10.559  1.00  0.00     0.015 A 
HETATM   13  C3  UNL     1      -2.719   3.971   9.649  1.00  0.00     0.057 A 
HETATM   14  C2  UNL     1      -3.595   4.947   9.751  1.00  0.00    -0.000 C 
HETATM   15  N1  UNL     1      -1.794   4.033   8.646  1.00  0.00    -0.192 N 
HETATM   16  C1  UNL     1      -3.516   6.078   8.741  1.00  0.00     0.038 C 
HETATM   17  C4  UNL     1      -0.889   3.077   8.498  1.00  0.00     0.676 A 
ATOM     18  H1  UNL     1      -1.800   4.825   8.003  1.00  0.00     0.184 HD
HETATM   19  N3  UNL     1      -0.874   2.042   9.333  1.00  0.00    -0.195 N 
HETATM   20  C5  UNL     1      -1.793   1.947  10.357  1.00  0.00     0.035 A 
ATOM     21  H3  UNL     1      -0.174   1.310   9.214  1.00  0.00     0.184 HD
HETATM   22  C6  UNL     1      -1.650   0.749  11.174  1.00  0.00     0.070 C 
BRANCH  17  23
HETATM   23  N2  UNL     1       0.010   3.117   7.539  1.00  0.00    -0.234 N 
ATOM     24  H22 UNL     1       0.840   3.694   7.679  1.00  0.00     0.174 HD
ATOM     25  H21 UNL     1      -0.105   2.591   6.674  1.00  0.00     0.174 HD
ENDBRANCH  17  23
ENDBRANCH   1  12
BRANCH   3  26
HETATM   26  C11 UNL     1      -2.826   4.161  13.856  1.00  0.00     0.401 C 
BRANCH  26  27
HETATM   27  N4  UNL     1      -1.594   4.202  14.615  1.00  0.00    -0.047 N 
ATOM     28  H43 UNL     1      -0.835   3.727  14.128  1.00  0.00     0.277 HD
ATOM     29  H42 UNL     1      -1.197   5.141  14.640  1.00  0.00     0.277 HD
ATOM     30  H41 UNL     1      -1.735   3.826  15.553  1.00  0.00     0.277 HD
ENDBRANCH  26  27
BRANCH  26  31
HETATM   31  N5  UNL     1      -3.807   5.060  14.397  1.00  0.00    -0.117 N 
HETATM   32  O1  UNL     1      -3.564   6.266  14.515  1.00  0.00    -0.534 OA
HETATM   33  O2  UNL     1      -5.025   4.588  14.787  1.00  0.00    -0.534 OA
ENDBRANCH  26  31
ENDBRANCH   3  26
TORSDOF 5
ENDMDL
MODEL 5
REMARK VINA RESULT: -6.985629498      3.027      6.355
REMARK  5 active torsions:
REMARK  status: ('A' for Active; 'I' for Inactive)
REMARK    1  A    between atoms: C4_6  and  N2_7 
REMARK    2  A    between atoms: C7_14  and  C8_15 
REMARK    3  A    between atoms: C10_17  and  C11_18 
REMARK    4  A    between atoms: C11_18  and  N4_19 
REMARK    5  A    between atoms: C11_18  and  N5_23 
ROOT
HETATM    1  C8  UNL     1      -3.318   2.765  11.255  1.00  0.00     0.035 C 
HETATM    2  C9  UNL     1      -2.891   4.043  10.774  1.00  0.00     0.060 A 
HETATM    3  C10 UNL     1      -1.516   4.197  10.533  1.00  0.00     0.085 A 
HETATM    4  N6  UNL     1      -1.090   5.356  10.032  1.00  0.00    -0.307 N 
ATOM      5  H6  UNL     1      -0.093   5.476   9.853  1.00  0.00     0.170 HD
HETATM    6  C12 UNL     1      -1.922   6.372   9.753  1.00  0.00     0.327 A 
HETATM    7  O3  UNL     1      -1.451   7.446   9.278  1.00  0.00    -0.247 OA
HETATM    8  N7  UNL     1      -3.235   6.212   9.987  1.00  0.00    -0.275 N 
ATOM      9  H7  UNL     1      -3.869   6.982   9.776  1.00  0.00     0.173 HD
HETATM   10  C13 UNL     1      -3.742   5.075  10.491  1.00  0.00     0.261 A 
HETATM   11  O4  UNL     1      -5.005   4.971  10.695  1.00  0.00    -0.267 OA
ENDROOT
BRANCH   1  12
HETATM   12  C7  UNL     1      -3.612   2.242  12.388  1.00  0.00     0.015 A 
HETATM   13  C3  UNL     1      -3.938   0.879  12.499  1.00  0.00     0.057 A 
HETATM   14  C2  UNL     1      -3.946   0.114  11.428  1.00  0.00    -0.000 C 
HETATM   15  N1  UNL     1      -4.253   0.312  13.701  1.00  0.00    -0.192 N 
HETATM   16  C1  UNL     1      -4.306  -1.350  11.606  1.00  0.00     0.038 C 
HETATM   17  C4  UNL     1      -4.261   1.037  14.810  1.00  0.00     0.676 A 
ATOM     18  H1  UNL     1      -4.485  -0.680  13.745  1.00  0.00     0.184 HD
HETATM   19  N3  UNL     1      -3.959   2.331  14.760  1.00  0.00    -0.195 N 
HETATM   20  C5  UNL     1      -3.636   2.936  13.564  1.00  0.00     0.035 A 
ATOM     21  H3  UNL     1      -3.966   2.883  15.618  1.00  0.00     0.184 HD
HETATM   22  C6  UNL     1      -3.343   4.358  13.677  1.00  0.00     0.070 C 
BRANCH  17  23
HETATM   23  N2  UNL     1      -4.561   0.511  15.978  1.00  0.00    -0.234 N 
ATOM     24  H22 UNL     1      -5.496   0.125  16.107  1.00  0.00     0.174 HD
ATOM     25  H21 UNL     1      -3.888   0.483  16.743  1.00  0.00     0.174 HD
ENDBRANCH  17  23
ENDBRANCH   1  12
BRANCH   3  26
HETATM   26  C11 UNL     1      -0.555   3.081  10.834  1.00  0.00     0.401 C 
BRANCH  26  27
HETATM   27  N4  UNL     1       0.644   3.592  11.465  1.00  0.00    -0.047 N 
ATOM     28  H43 UNL     1       0.758   3.226  12.409  1.00  0.00     0.277 HD
ATOM     29  H42 UNL     1       1.487   3.201  11.045  1.00  0.00     0.277 HD
ATOM     30  H41 UNL     1       0.652   4.612  11.451  1.00  0.00     0.277 HD
ENDBRANCH  26  27
BRANCH  26  31
HETATM   31  N5  UNL     1      -0.259   2.447   9.579  1.00  0.00    -0.117 N 
HETATM   32  O1  UNL     1       0.667   2.851   8.868  1.00  0.00    -0.534 OA
HETATM   33  O2  UNL     1      -1.004   1.386   9.158  1.00  0.00    -0.534 OA
ENDBRANCH  26  31
ENDBRANCH   3  26
TORSDOF 5
ENDMDL
