MODEL 1
REMARK VINA RESULT: -6.453270070      0.000      0.000
REMARK  14 active torsions:
REMARK  status: ('A' for Active; 'I' for Inactive)
REMARK    1  A    between atoms: C2_2  and  O1_5 
REMARK    2  A    between atoms: O1_5  and  C5_6 
REMARK    3  A    between atoms: C5_6  and  O3_8 
REMARK    4  A    between atoms: O3_8  and  N1_9 
REMARK    5  A    between atoms: N1_9  and  C6_11 
REMARK    6  A    between atoms: C7_12  and  C8_13 
REMARK    7  A    between atoms: C8_13  and  O4_14 
REMARK    8  A    between atoms: C8_13  and  C9_16 
REMARK    9  A    between atoms: C9_16  and  O5_17 
REMARK   10  A    between atoms: C9_16  and  C10_19 
REMARK   11  A    between atoms: C10_19  and  O6_20 
REMARK   12  A    between atoms: C10_19  and  O7_22 
REMARK   13  A    between atoms: C13_30  and  O9_32 
REMARK   14  A    between atoms: N4_34  and  O10_35 
ROOT
HETATM    1  C6  UNL     1     112.344  55.445  13.824  1.00  0.00     0.149 A 
HETATM    2  C7  UNL     1     111.987  54.184  13.275  1.00  0.00     0.087 A 
HETATM    3  C11 UNL     1     112.893  53.664  12.392  1.00  0.00     0.260 A 
HETATM    4  O8  UNL     1     112.731  52.572  11.834  1.00  0.00    -0.267 OA
HETATM    5  N2  UNL     1     114.043  54.340  12.079  1.00  0.00    -0.294 N 
ATOM      6  H2  UNL     1     114.695  53.920  11.417  1.00  0.00     0.172 HD
HETATM    7  C12 UNL     1     114.340  55.520  12.610  1.00  0.00     0.191 A 
HETATM    8  N3  UNL     1     113.481  56.075  13.492  1.00  0.00    -0.249 N 
HETATM    9  C13 UNL     1     113.826  57.345  14.065  1.00  0.00     0.241 C 
HETATM   10  C14 UNL     1     114.242  57.076  15.523  1.00  0.00     0.100 C 
HETATM   11  N4  UNL     1     114.851  58.096  13.449  1.00  0.00    -0.224 N 
HETATM   12  C15 UNL     1     115.313  57.712  12.166  1.00  0.00     0.279 C 
HETATM   13  N5  UNL     1     115.511  56.249  12.234  1.00  0.00    -0.344 N 
ATOM     14  H5  UNL     1     116.404  55.799  12.031  1.00  0.00     0.164 HD
ENDROOT
BRANCH   2  15
HETATM   15  C8  UNL     1     110.673  53.621  13.607  1.00  0.00     0.194 C 
BRANCH  15  16
HETATM   16  O4  UNL     1     109.782  53.836  12.472  1.00  0.00    -0.388 OA
ATOM     17  H4  UNL     1     109.860  54.743  12.198  1.00  0.00     0.210 HD
ENDBRANCH  15  16
BRANCH  15  18
HETATM   18  C9  UNL     1     110.536  52.237  14.056  1.00  0.00     0.206 C 
BRANCH  18  19
HETATM   19  O5  UNL     1     109.784  51.338  13.362  1.00  0.00    -0.388 OA
ATOM     20  H5  UNL     1     108.850  51.463  13.243  1.00  0.00     0.210 HD
ENDBRANCH  18  19
BRANCH  18  21
HETATM   21  C10 UNL     1     110.031  52.307  15.528  1.00  0.00     0.285 C 
BRANCH  21  22
HETATM   22  O6  UNL     1     108.904  51.502  15.594  1.00  0.00    -0.369 OA
ATOM     23  H6  UNL     1     108.821  51.231  16.501  1.00  0.00     0.212 HD
ENDBRANCH  21  22
BRANCH  21  24
HETATM   24  O7  UNL     1     109.602  53.629  15.696  1.00  0.00    -0.369 OA
ATOM     25  H7  UNL     1     110.381  54.105  15.958  1.00  0.00     0.212 HD
ENDBRANCH  21  24
ENDBRANCH  18  21
ENDBRANCH  15  18
ENDBRANCH   2  15
BRANCH   1  26
HETATM   26  N1  UNL     1     111.413  55.947  14.822  1.00  0.00    -0.238 N 
ATOM     27  H1  UNL     1     111.688  56.040  15.799  1.00  0.00     0.196 HD
BRANCH  26  28
HETATM   28  O3  UNL     1     110.174  56.285  14.410  1.00  0.00    -0.173 OA
BRANCH  28  29
HETATM   29  C5  UNL     1     109.478  57.434  14.583  1.00  0.00     0.429 C 
HETATM   30  O2  UNL     1     110.112  58.464  14.883  1.00  0.00    -0.227 OA
BRANCH  29  31
HETATM   31  O1  UNL     1     108.093  57.487  14.434  1.00  0.00    -0.287 OA
BRANCH  31  32
HETATM   32  C2  UNL     1     107.452  58.058  13.325  1.00  0.00     0.062 C 
HETATM   33  C1  UNL     1     107.371  57.044  12.190  1.00  0.00     0.046 C 
HETATM   34  C3  UNL     1     108.131  59.298  12.797  1.00  0.00     0.046 C 
HETATM   35  C4  UNL     1     106.000  58.338  13.730  1.00  0.00     0.046 C 
ENDBRANCH  31  32
ENDBRANCH  29  31
ENDBRANCH  28  29
ENDBRANCH  26  28
ENDBRANCH   1  26
BRANCH   9  36
HETATM   36  O9  UNL     1     112.687  58.191  14.073  1.00  0.00    -0.352 OA
ATOM     37  H9  UNL     1     112.387  58.316  14.965  1.00  0.00     0.214 HD
ENDBRANCH   9  36
BRANCH  11  38
HETATM   38  O10 UNL     1     115.839  58.537  14.229  1.00  0.00    -0.286 OA
ATOM     39  H10 UNL     1     116.602  57.978  14.324  1.00  0.00     0.244 HD
ENDBRANCH  11  38
TORSDOF 14
ENDMDL
MODEL 2
REMARK VINA RESULT: -6.138828970      3.882      5.639
REMARK  14 active torsions:
REMARK  status: ('A' for Active; 'I' for Inactive)
REMARK    1  A    between atoms: C2_2  and  O1_5 
REMARK    2  A    between atoms: O1_5  and  C5_6 
REMARK    3  A    between atoms: C5_6  and  O3_8 
REMARK    4  A    between atoms: O3_8  and  N1_9 
REMARK    5  A    between atoms: N1_9  and  C6_11 
REMARK    6  A    between atoms: C7_12  and  C8_13 
REMARK    7  A    between atoms: C8_13  and  O4_14 
REMARK    8  A    between atoms: C8_13  and  C9_16 
REMARK    9  A    between atoms: C9_16  and  O5_17 
REMARK   10  A    between atoms: C9_16  and  C10_19 
REMARK   11  A    between atoms: C10_19  and  O6_20 
REMARK   12  A    between atoms: C10_19  and  O7_22 
REMARK   13  A    between atoms: C13_30  and  O9_32 
REMARK   14  A    between atoms: N4_34  and  O10_35 
ROOT
HETATM    1  C6  UNL     1     112.175  52.071  17.495  1.00  0.00     0.149 A 
HETATM    2  C7  UNL     1     112.222  50.826  18.179  1.00  0.00     0.087 A 
HETATM    3  C11 UNL     1     113.255  50.695  19.065  1.00  0.00     0.260 A 
HETATM    4  O8  UNL     1     113.429  49.676  19.742  1.00  0.00    -0.267 OA
HETATM    5  N2  UNL     1     114.161  51.707  19.249  1.00  0.00    -0.294 N 
ATOM      6  H2  UNL     1     114.918  51.573  19.919  1.00  0.00     0.172 HD
HETATM    7  C12 UNL     1     114.087  52.855  18.587  1.00  0.00     0.191 A 
HETATM    8  N3  UNL     1     113.082  53.038  17.704  1.00  0.00    -0.249 N 
HETATM    9  C13 UNL     1     113.011  54.291  17.008  1.00  0.00     0.241 C 
HETATM   10  C14 UNL     1     111.836  55.074  17.623  1.00  0.00     0.100 C 
HETATM   11  N4  UNL     1     114.149  55.126  17.024  1.00  0.00    -0.224 N 
HETATM   12  C15 UNL     1     115.383  54.603  17.484  1.00  0.00     0.279 C 
HETATM   13  N5  UNL     1     115.069  53.883  18.737  1.00  0.00    -0.344 N 
ATOM     14  H5  UNL     1     115.514  54.101  19.629  1.00  0.00     0.164 HD
ENDROOT
BRANCH   2  15
HETATM   15  C8  UNL     1     111.257  49.784  17.806  1.00  0.00     0.194 C 
BRANCH  15  16
HETATM   16  O4  UNL     1     111.997  48.627  17.318  1.00  0.00    -0.388 OA
ATOM     17  H4  UNL     1     112.740  48.483  17.893  1.00  0.00     0.210 HD
ENDBRANCH  15  16
BRANCH  15  18
HETATM   18  C9  UNL     1     110.238  49.327  18.749  1.00  0.00     0.206 C 
BRANCH  18  19
HETATM   19  O5  UNL     1     110.495  48.330  19.641  1.00  0.00    -0.388 OA
ATOM     20  H5  UNL     1     111.347  48.242  20.051  1.00  0.00     0.210 HD
ENDBRANCH  18  19
BRANCH  18  21
HETATM   21  C10 UNL     1     108.994  48.948  17.893  1.00  0.00     0.285 C 
BRANCH  21  22
HETATM   22  O6  UNL     1     109.094  47.589  17.636  1.00  0.00    -0.369 OA
ATOM     23  H6  UNL     1     108.205  47.264  17.562  1.00  0.00     0.212 HD
ENDBRANCH  21  22
BRANCH  21  24
HETATM   24  O7  UNL     1     109.183  49.612  16.675  1.00  0.00    -0.369 OA
ATOM     25  H7  UNL     1     108.888  50.500  16.834  1.00  0.00     0.212 HD
ENDBRANCH  21  24
ENDBRANCH  18  21
ENDBRANCH  15  18
ENDBRANCH   2  15
BRANCH   1  26
HETATM   26  N1  UNL     1     111.026  52.227  16.618  1.00  0.00    -0.238 N 
ATOM     27  H1  UNL     1     110.148  52.617  16.963  1.00  0.00     0.196 HD
BRANCH  26  28
HETATM   28  O3  UNL     1     111.160  51.840  15.334  1.00  0.00    -0.173 OA
BRANCH  28  29
HETATM   29  C5  UNL     1     110.273  51.878  14.311  1.00  0.00     0.429 C 
HETATM   30  O2  UNL     1     110.270  50.930  13.501  1.00  0.00    -0.227 OA
BRANCH  29  31
HETATM   31  O1  UNL     1     109.380  52.935  14.148  1.00  0.00    -0.287 OA
BRANCH  31  32
HETATM   32  C2  UNL     1     109.712  54.143  13.518  1.00  0.00     0.062 C 
HETATM   33  C1  UNL     1     108.632  54.521  12.511  1.00  0.00     0.046 C 
HETATM   34  C3  UNL     1     111.035  54.113  12.795  1.00  0.00     0.046 C 
HETATM   35  C4  UNL     1     109.677  55.242  14.588  1.00  0.00     0.046 C 
ENDBRANCH  31  32
ENDBRANCH  29  31
ENDBRANCH  28  29
ENDBRANCH  26  28
ENDBRANCH   1  26
BRANCH   9  36
HETATM   36  O9  UNL     1     112.727  54.062  15.637  1.00  0.00    -0.352 OA
ATOM     37  H9  UNL     1     113.534  53.884  15.168  1.00  0.00     0.214 HD
ENDBRANCH   9  36
BRANCH  11  38
HETATM   38  O10 UNL     1     113.971  56.395  17.393  1.00  0.00    -0.286 OA
ATOM     39  H10 UNL     1     113.087  56.740  17.357  1.00  0.00     0.244 HD
ENDBRANCH  11  38
TORSDOF 14
ENDMDL
MODEL 3
REMARK VINA RESULT: -6.134218073      4.296      5.996
REMARK  14 active torsions:
REMARK  status: ('A' for Active; 'I' for Inactive)
REMARK    1  A    between atoms: C2_2  and  O1_5 
REMARK    2  A    between atoms: O1_5  and  C5_6 
REMARK    3  A    between atoms: C5_6  and  O3_8 
REMARK    4  A    between atoms: O3_8  and  N1_9 
REMARK    5  A    between atoms: N1_9  and  C6_11 
REMARK    6  A    between atoms: C7_12  and  C8_13 
REMARK    7  A    between atoms: C8_13  and  O4_14 
REMARK    8  A    between atoms: C8_13  and  C9_16 
REMARK    9  A    between atoms: C9_16  and  O5_17 
REMARK   10  A    between atoms: C9_16  and  C10_19 
REMARK   11  A    between atoms: C10_19  and  O6_20 
REMARK   12  A    between atoms: C10_19  and  O7_22 
REMARK   13  A    between atoms: C13_30  and  O9_32 
REMARK   14  A    between atoms: N4_34  and  O10_35 
ROOT
HETATM    1  C6  UNL     1     112.718  51.289  17.419  1.00  0.00     0.149 A 
HETATM    2  C7  UNL     1     112.653  50.048  18.108  1.00  0.00     0.087 A 
HETATM    3  C11 UNL     1     113.763  49.741  18.846  1.00  0.00     0.260 A 
HETATM    4  O8  UNL     1     113.858  48.701  19.508  1.00  0.00    -0.267 OA
HETATM    5  N2  UNL     1     114.840  50.588  18.888  1.00  0.00    -0.294 N 
ATOM      6  H2  UNL     1     115.650  50.325  19.450  1.00  0.00     0.172 HD
HETATM    7  C12 UNL     1     114.866  51.738  18.226  1.00  0.00     0.191 A 
HETATM    8  N3  UNL     1     113.792  52.091  17.486  1.00  0.00    -0.249 N 
HETATM    9  C13 UNL     1     113.834  53.345  16.789  1.00  0.00     0.241 C 
HETATM   10  C14 UNL     1     112.901  54.306  17.548  1.00  0.00     0.100 C 
HETATM   11  N4  UNL     1     115.085  53.979  16.636  1.00  0.00    -0.224 N 
HETATM   12  C15 UNL     1     116.267  53.256  16.930  1.00  0.00     0.279 C 
HETATM   13  N5  UNL     1     116.015  52.587  18.224  1.00  0.00    -0.344 N 
ATOM     14  H5  UNL     1     116.609  52.721  19.043  1.00  0.00     0.164 HD
ENDROOT
BRANCH   2  15
HETATM   15  C8  UNL     1     111.487  49.184  17.887  1.00  0.00     0.194 C 
BRANCH  15  16
HETATM   16  O4  UNL     1     111.963  47.873  17.460  1.00  0.00    -0.388 OA
ATOM     17  H4  UNL     1     111.529  47.650  16.644  1.00  0.00     0.210 HD
ENDBRANCH  15  16
BRANCH  15  18
HETATM   18  C9  UNL     1     110.475  49.001  18.926  1.00  0.00     0.206 C 
BRANCH  18  19
HETATM   19  O5  UNL     1     110.608  48.041  19.883  1.00  0.00    -0.388 OA
ATOM     20  H5  UNL     1     110.684  48.268  20.802  1.00  0.00     0.210 HD
ENDBRANCH  18  19
BRANCH  18  21
HETATM   21  C10 UNL     1     109.121  48.807  18.182  1.00  0.00     0.285 C 
BRANCH  21  22
HETATM   22  O6  UNL     1     109.086  47.483  17.771  1.00  0.00    -0.369 OA
ATOM     23  H6  UNL     1     108.897  47.496  16.841  1.00  0.00     0.212 HD
ENDBRANCH  21  22
BRANCH  21  24
HETATM   24  O7  UNL     1     109.231  49.592  17.029  1.00  0.00    -0.369 OA
ATOM     25  H7  UNL     1     110.019  49.282  16.598  1.00  0.00     0.212 HD
ENDBRANCH  21  24
ENDBRANCH  18  21
ENDBRANCH  15  18
ENDBRANCH   2  15
BRANCH   1  26
HETATM   26  N1  UNL     1     111.501  51.641  16.706  1.00  0.00    -0.238 N 
ATOM     27  H1  UNL     1     110.761  52.178  17.158  1.00  0.00     0.196 HD
BRANCH  26  28
HETATM   28  O3  UNL     1     111.383  51.233  15.426  1.00  0.00    -0.173 OA
BRANCH  28  29
HETATM   29  C5  UNL     1     110.511  51.614  14.463  1.00  0.00     0.429 C 
HETATM   30  O2  UNL     1     109.458  50.960  14.334  1.00  0.00    -0.227 OA
BRANCH  29  31
HETATM   31  O1  UNL     1     110.762  52.701  13.628  1.00  0.00    -0.287 OA
BRANCH  31  32
HETATM   32  C2  UNL     1     110.251  53.987  13.853  1.00  0.00     0.062 C 
HETATM   33  C1  UNL     1     111.282  55.035  13.451  1.00  0.00     0.046 C 
HETATM   34  C3  UNL     1     109.855  54.247  15.285  1.00  0.00     0.046 C 
HETATM   35  C4  UNL     1     109.069  54.185  12.896  1.00  0.00     0.046 C 
ENDBRANCH  31  32
ENDBRANCH  29  31
ENDBRANCH  28  29
ENDBRANCH  26  28
ENDBRANCH   1  26
BRANCH   9  36
HETATM   36  O9  UNL     1     113.330  53.177  15.473  1.00  0.00    -0.352 OA
ATOM     37  H9  UNL     1     113.976  52.733  14.937  1.00  0.00     0.214 HD
ENDBRANCH   9  36
BRANCH  11  38
HETATM   38  O10 UNL     1     115.172  55.257  17.006  1.00  0.00    -0.286 OA
ATOM     39  H10 UNL     1     115.767  55.814  16.517  1.00  0.00     0.244 HD
ENDBRANCH  11  38
TORSDOF 14
ENDMDL
MODEL 4
REMARK VINA RESULT: -6.007309455      5.066      9.013
REMARK  14 active torsions:
REMARK  status: ('A' for Active; 'I' for Inactive)
REMARK    1  A    between atoms: C2_2  and  O1_5 
REMARK    2  A    between atoms: O1_5  and  C5_6 
REMARK    3  A    between atoms: C5_6  and  O3_8 
REMARK    4  A    between atoms: O3_8  and  N1_9 
REMARK    5  A    between atoms: N1_9  and  C6_11 
REMARK    6  A    between atoms: C7_12  and  C8_13 
REMARK    7  A    between atoms: C8_13  and  O4_14 
REMARK    8  A    between atoms: C8_13  and  C9_16 
REMARK    9  A    between atoms: C9_16  and  O5_17 
REMARK   10  A    between atoms: C9_16  and  C10_19 
REMARK   11  A    between atoms: C10_19  and  O6_20 
REMARK   12  A    between atoms: C10_19  and  O7_22 
REMARK   13  A    between atoms: C13_30  and  O9_32 
REMARK   14  A    between atoms: N4_34  and  O10_35 
ROOT
HETATM    1  C6  UNL     1     111.743  50.842  16.009  1.00  0.00     0.149 A 
HETATM    2  C7  UNL     1     111.146  51.547  14.929  1.00  0.00     0.087 A 
HETATM    3  C11 UNL     1     109.780  51.484  14.889  1.00  0.00     0.260 A 
HETATM    4  O8  UNL     1     109.111  52.051  14.016  1.00  0.00    -0.267 OA
HETATM    5  N2  UNL     1     109.076  50.781  15.830  1.00  0.00    -0.294 N 
ATOM      6  H2  UNL     1     108.058  50.757  15.767  1.00  0.00     0.172 HD
HETATM    7  C12 UNL     1     109.671  50.130  16.822  1.00  0.00     0.191 A 
HETATM    8  N3  UNL     1     111.018  50.164  16.912  1.00  0.00    -0.249 N 
HETATM    9  C13 UNL     1     111.643  49.465  17.999  1.00  0.00     0.241 C 
HETATM   10  C14 UNL     1     112.129  50.536  18.994  1.00  0.00     0.100 C 
HETATM   11  N4  UNL     1     110.872  48.522  18.713  1.00  0.00    -0.224 N 
HETATM   12  C15 UNL     1     109.625  48.108  18.185  1.00  0.00     0.279 C 
HETATM   13  N5  UNL     1     108.937  49.347  17.766  1.00  0.00    -0.344 N 
ATOM     14  H5  UNL     1     108.018  49.619  18.119  1.00  0.00     0.164 HD
ENDROOT
BRANCH   2  15
HETATM   15  C8  UNL     1     112.020  52.165  13.926  1.00  0.00     0.194 C 
BRANCH  15  16
HETATM   16  O4  UNL     1     111.517  51.817  12.602  1.00  0.00    -0.388 OA
ATOM     17  H4  UNL     1     111.408  50.874  12.562  1.00  0.00     0.210 HD
ENDBRANCH  15  16
BRANCH  15  18
HETATM   18  C9  UNL     1     112.309  53.598  13.956  1.00  0.00     0.206 C 
BRANCH  18  19
HETATM   19  O5  UNL     1     111.816  54.440  13.006  1.00  0.00    -0.388 OA
ATOM     20  H5  UNL     1     111.300  54.115  12.278  1.00  0.00     0.210 HD
ENDBRANCH  18  19
BRANCH  18  21
HETATM   21  C10 UNL     1     113.860  53.726  14.009  1.00  0.00     0.285 C 
BRANCH  21  22
HETATM   22  O6  UNL     1     114.368  52.514  13.567  1.00  0.00    -0.369 OA
ATOM     23  H6  UNL     1     115.279  52.671  13.345  1.00  0.00     0.212 HD
ENDBRANCH  21  22
BRANCH  21  24
HETATM   24  O7  UNL     1     114.164  53.828  15.371  1.00  0.00    -0.369 OA
ATOM     25  H7  UNL     1     114.641  53.032  15.573  1.00  0.00     0.212 HD
ENDBRANCH  21  24
ENDBRANCH  18  21
ENDBRANCH  15  18
ENDBRANCH   2  15
BRANCH   1  26
HETATM   26  N1  UNL     1     113.188  50.985  16.087  1.00  0.00    -0.238 N 
ATOM     27  H1  UNL     1     113.615  51.733  16.633  1.00  0.00     0.196 HD
BRANCH  26  28
HETATM   28  O3  UNL     1     113.944  50.094  15.413  1.00  0.00    -0.173 OA
BRANCH  28  29
HETATM   29  C5  UNL     1     115.265  49.811  15.517  1.00  0.00     0.429 C 
HETATM   30  O2  UNL     1     116.012  50.149  14.578  1.00  0.00    -0.227 OA
BRANCH  29  31
HETATM   31  O1  UNL     1     115.796  49.163  16.630  1.00  0.00    -0.287 OA
BRANCH  31  32
HETATM   32  C2  UNL     1     116.118  47.799  16.655  1.00  0.00     0.062 C 
HETATM   33  C1  UNL     1     117.586  47.604  16.293  1.00  0.00     0.046 C 
HETATM   34  C3  UNL     1     115.290  46.956  15.717  1.00  0.00     0.046 C 
HETATM   35  C4  UNL     1     115.987  47.323  18.107  1.00  0.00     0.046 C 
ENDBRANCH  31  32
ENDBRANCH  29  31
ENDBRANCH  28  29
ENDBRANCH  26  28
ENDBRANCH   1  26
BRANCH   9  36
HETATM   36  O9  UNL     1     112.772  48.751  17.523  1.00  0.00    -0.352 OA
ATOM     37  H9  UNL     1     112.572  47.823  17.486  1.00  0.00     0.214 HD
ENDBRANCH   9  36
BRANCH  11  38
HETATM   38  O10 UNL     1     110.844  48.636  20.041  1.00  0.00    -0.286 OA
ATOM     39  H10 UNL     1     110.426  49.409  20.404  1.00  0.00     0.244 HD
ENDBRANCH  11  38
TORSDOF 14
ENDMDL
MODEL 5
REMARK VINA RESULT: -5.933614510      5.076      8.996
REMARK  14 active torsions:
REMARK  status: ('A' for Active; 'I' for Inactive)
REMARK    1  A    between atoms: C2_2  and  O1_5 
REMARK    2  A    between atoms: O1_5  and  C5_6 
REMARK    3  A    between atoms: C5_6  and  O3_8 
REMARK    4  A    between atoms: O3_8  and  N1_9 
REMARK    5  A    between atoms: N1_9  and  C6_11 
REMARK    6  A    between atoms: C7_12  and  C8_13 
REMARK    7  A    between atoms: C8_13  and  O4_14 
REMARK    8  A    between atoms: C8_13  and  C9_16 
REMARK    9  A    between atoms: C9_16  and  O5_17 
REMARK   10  A    between atoms: C9_16  and  C10_19 
REMARK   11  A    between atoms: C10_19  and  O6_20 
REMARK   12  A    between atoms: C10_19  and  O7_22 
REMARK   13  A    between atoms: C13_30  and  O9_32 
REMARK   14  A    between atoms: N4_34  and  O10_35 
ROOT
HETATM    1  C6  UNL     1     111.730  50.767  16.041  1.00  0.00     0.149 A 
HETATM    2  C7  UNL     1     111.170  51.569  15.010  1.00  0.00     0.087 A 
HETATM    3  C11 UNL     1     109.803  51.601  14.986  1.00  0.00     0.260 A 
HETATM    4  O8  UNL     1     109.165  52.258  14.155  1.00  0.00    -0.267 OA
HETATM    5  N2  UNL     1     109.063  50.895  15.898  1.00  0.00    -0.294 N 
ATOM      6  H2  UNL     1     108.045  50.943  15.848  1.00  0.00     0.172 HD
HETATM    7  C12 UNL     1     109.623  50.151  16.844  1.00  0.00     0.191 A 
HETATM    8  N3  UNL     1     110.971  50.090  16.916  1.00  0.00    -0.249 N 
HETATM    9  C13 UNL     1     111.558  49.292  17.954  1.00  0.00     0.241 C 
HETATM   10  C14 UNL     1     112.125  50.271  18.999  1.00  0.00     0.100 C 
HETATM   11  N4  UNL     1     110.733  48.365  18.627  1.00  0.00    -0.224 N 
HETATM   12  C15 UNL     1     109.455  48.065  18.095  1.00  0.00     0.279 C 
HETATM   13  N5  UNL     1     108.847  49.368  17.754  1.00  0.00    -0.344 N 
ATOM     14  H5  UNL     1     107.954  49.681  18.134  1.00  0.00     0.164 HD
ENDROOT
BRANCH   2  15
HETATM   15  C8  UNL     1     112.074  52.182  14.029  1.00  0.00     0.194 C 
BRANCH  15  16
HETATM   16  O4  UNL     1     111.545  51.925  12.695  1.00  0.00    -0.388 OA
ATOM     17  H4  UNL     1     112.255  51.608  12.148  1.00  0.00     0.210 HD
ENDBRANCH  15  16
BRANCH  15  18
HETATM   18  C9  UNL     1     112.445  53.593  14.123  1.00  0.00     0.206 C 
BRANCH  18  19
HETATM   19  O5  UNL     1     112.010  54.502  13.207  1.00  0.00    -0.388 OA
ATOM     20  H5  UNL     1     112.608  54.903  12.587  1.00  0.00     0.210 HD
ENDBRANCH  18  19
BRANCH  18  21
HETATM   21  C10 UNL     1     114.000  53.629  14.191  1.00  0.00     0.285 C 
BRANCH  21  22
HETATM   22  O6  UNL     1     114.442  52.406  13.709  1.00  0.00    -0.369 OA
ATOM     23  H6  UNL     1     115.235  52.200  14.189  1.00  0.00     0.212 HD
ENDBRANCH  21  22
BRANCH  21  24
HETATM   24  O7  UNL     1     114.296  53.662  15.559  1.00  0.00    -0.369 OA
ATOM     25  H7  UNL     1     113.459  53.542  15.992  1.00  0.00     0.212 HD
ENDBRANCH  21  24
ENDBRANCH  18  21
ENDBRANCH  15  18
ENDBRANCH   2  15
BRANCH   1  26
HETATM   26  N1  UNL     1     113.182  50.808  16.106  1.00  0.00    -0.238 N 
ATOM     27  H1  UNL     1     113.665  51.507  16.670  1.00  0.00     0.196 HD
BRANCH  26  28
HETATM   28  O3  UNL     1     113.868  49.889  15.396  1.00  0.00    -0.173 OA
BRANCH  28  29
HETATM   29  C5  UNL     1     115.161  49.495  15.493  1.00  0.00     0.429 C 
HETATM   30  O2  UNL     1     116.001  50.056  14.763  1.00  0.00    -0.227 OA
BRANCH  29  31
HETATM   31  O1  UNL     1     115.562  48.493  16.374  1.00  0.00    -0.287 OA
BRANCH  31  32
HETATM   32  C2  UNL     1     116.227  48.743  17.583  1.00  0.00     0.062 C 
HETATM   33  C1  UNL     1     115.857  47.680  18.611  1.00  0.00     0.046 C 
HETATM   34  C3  UNL     1     115.926  50.095  18.180  1.00  0.00     0.046 C 
HETATM   35  C4  UNL     1     117.728  48.561  17.327  1.00  0.00     0.046 C 
ENDBRANCH  31  32
ENDBRANCH  29  31
ENDBRANCH  28  29
ENDBRANCH  26  28
ENDBRANCH   1  26
BRANCH   9  36
HETATM   36  O9  UNL     1     112.631  48.531  17.423  1.00  0.00    -0.352 OA
ATOM     37  H9  UNL     1     113.232  48.296  18.121  1.00  0.00     0.214 HD
ENDBRANCH   9  36
BRANCH  11  38
HETATM   38  O10 UNL     1     110.726  48.407  19.960  1.00  0.00    -0.286 OA
ATOM     39  H10 UNL     1     109.921  48.681  20.383  1.00  0.00     0.244 HD
ENDBRANCH  11  38
TORSDOF 14
ENDMDL
