MODEL 1
REMARK VINA RESULT: -7.955547891      0.000      0.000
REMARK  12 active torsions:
REMARK  status: ('A' for Active; 'I' for Inactive)
REMARK    1  A    between atoms: N1_1  and  C1_4 
REMARK    2  A    between atoms: C2_7  and  N3_8 
REMARK    3  A    between atoms: N3_8  and  C3_10 
REMARK    4  A    between atoms: C4_16  and  O2_17 
REMARK    5  A    between atoms: N9_26  and  C6_27 
REMARK    6  A    between atoms: C6_27  and  C7_28 
REMARK    7  A    between atoms: C9_30  and  N10_31 
REMARK       I    between atoms: N10_31  and  C10_33 
REMARK    8  A    between atoms: C10_33  and  C11_35 
REMARK    9  A    between atoms: C11_35  and  C12_36 
REMARK   10  A    between atoms: C12_36  and  O4_37 
REMARK   11  A    between atoms: C12_36  and  O5_39 
REMARK   12  A    between atoms: N12_43  and  O6_44 
ROOT
HETATM    1  C1  UNL     1     111.067  55.192  15.519  1.00  0.00     0.147 A 
HETATM    2  N2  UNL     1     110.590  56.444  15.432  1.00  0.00    -0.174 N 
ATOM      3  H2  UNL     1     110.886  57.128  16.129  1.00  0.00     0.186 HD
HETATM    4  C2  UNL     1     109.736  56.838  14.463  1.00  0.00     0.687 A 
HETATM    5  N6  UNL     1     109.329  55.971  13.535  1.00  0.00    -0.172 N 
ATOM      6  H6  UNL     1     108.684  56.274  12.805  1.00  0.00     0.186 HD
HETATM    7  C5  UNL     1     109.761  54.712  13.556  1.00  0.00     0.169 A 
HETATM    8  N7  UNL     1     109.520  53.651  12.750  1.00  0.00    -0.268 N 
ATOM      9  H7  UNL     1     108.915  53.640  11.929  1.00  0.00     0.190 HD
HETATM   10  N8  UNL     1     110.202  52.656  13.216  1.00  0.00    -0.238 N 
ATOM     11  H8  UNL     1     110.215  51.721  12.808  1.00  0.00     0.208 HD
HETATM   12  N9  UNL     1     110.893  53.023  14.316  1.00  0.00    -0.265 N 
HETATM   13  C13 UNL     1     110.642  54.286  14.550  1.00  0.00     0.142 A 
ENDROOT
BRANCH  12  14
HETATM   14  C6  UNL     1     111.682  52.071  15.009  1.00  0.00     0.212 C 
BRANCH  14  15
HETATM   15  C7  UNL     1     110.953  51.204  15.961  1.00  0.00     0.082 A 
HETATM   16  C8  UNL     1     111.567  50.856  17.174  1.00  0.00     0.081 A 
HETATM   17  C9  UNL     1     110.715  50.078  17.894  1.00  0.00     0.126 A 
HETATM   18  N11 UNL     1     109.606  49.952  17.142  1.00  0.00    -0.259 N 
HETATM   19  N12 UNL     1     109.772  50.632  15.995  1.00  0.00    -0.164 N 
ATOM     20  H11 UNL     1     108.773  49.424  17.402  1.00  0.00     0.191 HD
BRANCH  17  21
HETATM   21  N10 UNL     1     110.970  49.521  19.182  1.00  0.00    -0.312 N 
HETATM   22  C10 UNL     1     110.871  48.138  19.418  1.00  0.00     0.227 C 
HETATM   23  O3  UNL     1     110.554  47.382  18.475  1.00  0.00    -0.273 OA
ATOM     24  H10 UNL     1     111.231  50.140  19.950  1.00  0.00     0.170 HD
BRANCH  22  25
HETATM   25  C11 UNL     1     111.137  47.578  20.754  1.00  0.00     0.163 C 
BRANCH  25  26
HETATM   26  C12 UNL     1     112.632  47.554  20.979  1.00  0.00     0.262 C 
BRANCH  26  27
HETATM   27  O4  UNL     1     112.919  46.453  21.770  1.00  0.00    -0.371 OA
ATOM     28  H4  UNL     1     113.827  46.220  21.618  1.00  0.00     0.212 HD
ENDBRANCH  26  27
BRANCH  26  29
HETATM   29  O5  UNL     1     113.235  47.495  19.731  1.00  0.00    -0.371 OA
ATOM     30  H5  UNL     1     113.727  46.683  19.694  1.00  0.00     0.212 HD
ENDBRANCH  26  29
ENDBRANCH  25  26
ENDBRANCH  22  25
ENDBRANCH  17  21
BRANCH  19  31
HETATM   31  O6  UNL     1     108.813  50.710  15.026  1.00  0.00    -0.268 OA
ATOM     32  H6  UNL     1     108.102  51.338  14.993  1.00  0.00     0.247 HD
ENDBRANCH  19  31
ENDBRANCH  14  15
ENDBRANCH  12  14
BRANCH   1  33
HETATM   33  N1  UNL     1     111.890  54.824  16.430  1.00  0.00    -0.383 N 
ATOM     34  H12 UNL     1     111.545  54.467  17.320  1.00  0.00     0.157 HD
ATOM     35  H11 UNL     1     112.903  54.856  16.306  1.00  0.00     0.157 HD
ENDBRANCH   1  33
BRANCH   4  36
HETATM   36  N3  UNL     1     109.261  58.164  14.413  1.00  0.00    -0.170 N 
ATOM     37  H3  UNL     1     109.810  58.898  14.860  1.00  0.00     0.186 HD
BRANCH  36  38
HETATM   38  C3  UNL     1     108.173  58.481  13.832  1.00  0.00     0.195 A 
HETATM   39  N4  UNL     1     106.982  57.869  13.966  1.00  0.00    -0.221 N 
HETATM   40  O1  UNL     1     106.113  58.476  13.218  1.00  0.00    -0.153 OA
ATOM     41  H4  UNL     1     106.793  57.061  14.559  1.00  0.00     0.198 HD
HETATM   42  N5  UNL     1     106.635  59.465  12.582  1.00  0.00    -0.216 N 
HETATM   43  C4  UNL     1     107.942  59.513  12.935  1.00  0.00     0.209 A 
ATOM     44  H5  UNL     1     106.156  60.092  11.936  1.00  0.00     0.199 HD
BRANCH  43  45
HETATM   45  O2  UNL     1     108.858  60.432  12.473  1.00  0.00    -0.342 OA
ATOM     46  H2  UNL     1     109.109  60.586  11.569  1.00  0.00     0.219 HD
ENDBRANCH  43  45
ENDBRANCH  36  38
ENDBRANCH   4  36
TORSDOF 12
ENDMDL
MODEL 2
REMARK VINA RESULT: -7.923815972      2.152      3.662
REMARK  12 active torsions:
REMARK  status: ('A' for Active; 'I' for Inactive)
REMARK    1  A    between atoms: N1_1  and  C1_4 
REMARK    2  A    between atoms: C2_7  and  N3_8 
REMARK    3  A    between atoms: N3_8  and  C3_10 
REMARK    4  A    between atoms: C4_16  and  O2_17 
REMARK    5  A    between atoms: N9_26  and  C6_27 
REMARK    6  A    between atoms: C6_27  and  C7_28 
REMARK    7  A    between atoms: C9_30  and  N10_31 
REMARK       I    between atoms: N10_31  and  C10_33 
REMARK    8  A    between atoms: C10_33  and  C11_35 
REMARK    9  A    between atoms: C11_35  and  C12_36 
REMARK   10  A    between atoms: C12_36  and  O4_37 
REMARK   11  A    between atoms: C12_36  and  O5_39 
REMARK   12  A    between atoms: N12_43  and  O6_44 
ROOT
HETATM    1  C1  UNL     1     107.881  56.719  12.552  1.00  0.00     0.147 A 
HETATM    2  N2  UNL     1     107.620  58.036  12.550  1.00  0.00    -0.174 N 
ATOM      3  H2  UNL     1     106.933  58.395  11.887  1.00  0.00     0.186 HD
HETATM    4  C2  UNL     1     108.227  58.904  13.386  1.00  0.00     0.687 A 
HETATM    5  N6  UNL     1     109.129  58.470  14.267  1.00  0.00    -0.172 N 
ATOM      6  H6  UNL     1     109.585  59.131  14.896  1.00  0.00     0.186 HD
HETATM    7  C5  UNL     1     109.439  57.176  14.328  1.00  0.00     0.169 A 
HETATM    8  N7  UNL     1     110.293  56.479  15.113  1.00  0.00    -0.268 N 
ATOM      9  H7  UNL     1     110.893  56.861  15.844  1.00  0.00     0.190 HD
HETATM   10  N8  UNL     1     110.205  55.237  14.763  1.00  0.00    -0.238 N 
ATOM     11  H8  UNL     1     110.737  54.477  15.187  1.00  0.00     0.208 HD
HETATM   12  N9  UNL     1     109.314  55.085  13.760  1.00  0.00    -0.265 N 
HETATM   13  C13 UNL     1     108.824  56.263  13.471  1.00  0.00     0.142 A 
ENDROOT
BRANCH  12  14
HETATM   14  C6  UNL     1     109.089  53.803  13.199  1.00  0.00     0.212 C 
BRANCH  14  15
HETATM   15  C7  UNL     1     109.749  52.674  13.890  1.00  0.00     0.082 A 
HETATM   16  C8  UNL     1     109.167  52.154  15.057  1.00  0.00     0.081 A 
HETATM   17  C9  UNL     1     109.925  51.118  15.506  1.00  0.00     0.126 A 
HETATM   18  N11 UNL     1     110.947  51.006  14.638  1.00  0.00    -0.259 N 
HETATM   19  N12 UNL     1     110.820  51.944  13.684  1.00  0.00    -0.164 N 
ATOM     20  H11 UNL     1     111.699  50.318  14.695  1.00  0.00     0.191 HD
BRANCH  17  21
HETATM   21  N10 UNL     1     109.667  50.329  16.665  1.00  0.00    -0.312 N 
HETATM   22  C10 UNL     1     110.652  50.125  17.650  1.00  0.00     0.227 C 
HETATM   23  O3  UNL     1     111.776  50.650  17.503  1.00  0.00    -0.273 OA
ATOM     24  H10 UNL     1     108.748  49.903  16.784  1.00  0.00     0.170 HD
BRANCH  22  25
HETATM   25  C11 UNL     1     110.370  49.307  18.842  1.00  0.00     0.163 C 
BRANCH  25  26
HETATM   26  C12 UNL     1     110.531  47.849  18.476  1.00  0.00     0.262 C 
BRANCH  26  27
HETATM   27  O4  UNL     1     109.344  47.430  17.897  1.00  0.00    -0.371 OA
ATOM     28  H4  UNL     1     109.539  46.672  17.358  1.00  0.00     0.212 HD
ENDBRANCH  26  27
BRANCH  26  29
HETATM   29  O5  UNL     1     111.614  47.758  17.613  1.00  0.00    -0.371 OA
ATOM     30  H5  UNL     1     111.666  48.580  17.140  1.00  0.00     0.212 HD
ENDBRANCH  26  29
ENDBRANCH  25  26
ENDBRANCH  22  25
ENDBRANCH  17  21
BRANCH  19  31
HETATM   31  O6  UNL     1     111.697  52.078  12.645  1.00  0.00    -0.268 OA
ATOM     32  H6  UNL     1     111.467  52.219  11.735  1.00  0.00     0.247 HD
ENDBRANCH  19  31
ENDBRANCH  14  15
ENDBRANCH  12  14
BRANCH   1  33
HETATM   33  N1  UNL     1     107.292  55.892  11.770  1.00  0.00    -0.383 N 
ATOM     34  H12 UNL     1     106.273  55.872  11.717  1.00  0.00     0.157 HD
ATOM     35  H11 UNL     1     107.798  55.242  11.168  1.00  0.00     0.157 HD
ENDBRANCH   1  33
BRANCH   4  36
HETATM   36  N3  UNL     1     107.921  60.280  13.347  1.00  0.00    -0.170 N 
ATOM     37  H3  UNL     1     106.987  60.582  13.624  1.00  0.00     0.186 HD
BRANCH  36  38
HETATM   38  C3  UNL     1     108.765  61.160  12.978  1.00  0.00     0.195 A 
HETATM   39  N4  UNL     1     109.764  60.993  12.093  1.00  0.00    -0.221 N 
HETATM   40  O1  UNL     1     110.411  62.112  11.976  1.00  0.00    -0.153 OA
ATOM     41  H4  UNL     1     109.978  60.130  11.595  1.00  0.00     0.198 HD
HETATM   42  N5  UNL     1     109.915  63.033  12.725  1.00  0.00    -0.216 N 
HETATM   43  C4  UNL     1     108.867  62.482  13.385  1.00  0.00     0.209 A 
ATOM     44  H5  UNL     1     110.247  63.994  12.807  1.00  0.00     0.199 HD
BRANCH  43  45
HETATM   45  O2  UNL     1     108.062  63.137  14.290  1.00  0.00    -0.342 OA
ATOM     46  H2  UNL     1     107.977  64.076  14.405  1.00  0.00     0.219 HD
ENDBRANCH  43  45
ENDBRANCH  36  38
ENDBRANCH   4  36
TORSDOF 12
ENDMDL
MODEL 3
REMARK VINA RESULT: -7.895405949      2.055     10.263
REMARK  12 active torsions:
REMARK  status: ('A' for Active; 'I' for Inactive)
REMARK    1  A    between atoms: N1_1  and  C1_4 
REMARK    2  A    between atoms: C2_7  and  N3_8 
REMARK    3  A    between atoms: N3_8  and  C3_10 
REMARK    4  A    between atoms: C4_16  and  O2_17 
REMARK    5  A    between atoms: N9_26  and  C6_27 
REMARK    6  A    between atoms: C6_27  and  C7_28 
REMARK    7  A    between atoms: C9_30  and  N10_31 
REMARK       I    between atoms: N10_31  and  C10_33 
REMARK    8  A    between atoms: C10_33  and  C11_35 
REMARK    9  A    between atoms: C11_35  and  C12_36 
REMARK   10  A    between atoms: C12_36  and  O4_37 
REMARK   11  A    between atoms: C12_36  and  O5_39 
REMARK   12  A    between atoms: N12_43  and  O6_44 
ROOT
HETATM    1  C1  UNL     1     110.393  49.723  17.497  1.00  0.00     0.147 A 
HETATM    2  N2  UNL     1     110.913  49.051  18.537  1.00  0.00    -0.174 N 
ATOM      3  H2  UNL     1     110.283  48.520  19.138  1.00  0.00     0.186 HD
HETATM    4  C2  UNL     1     112.233  49.048  18.821  1.00  0.00     0.687 A 
HETATM    5  N6  UNL     1     113.086  49.731  18.056  1.00  0.00    -0.172 N 
ATOM      6  H6  UNL     1     114.082  49.725  18.276  1.00  0.00     0.186 HD
HETATM    7  C5  UNL     1     112.644  50.420  17.007  1.00  0.00     0.169 A 
HETATM    8  N7  UNL     1     113.276  51.176  16.079  1.00  0.00    -0.268 N 
ATOM      9  H7  UNL     1     114.278  51.361  16.030  1.00  0.00     0.190 HD
HETATM   10  N8  UNL     1     112.373  51.620  15.267  1.00  0.00    -0.238 N 
ATOM     11  H8  UNL     1     112.559  52.219  14.463  1.00  0.00     0.208 HD
HETATM   12  N9  UNL     1     111.148  51.180  15.629  1.00  0.00    -0.265 N 
HETATM   13  C13 UNL     1     111.284  50.437  16.698  1.00  0.00     0.142 A 
ENDROOT
BRANCH  12  14
HETATM   14  C6  UNL     1     110.005  51.578  14.892  1.00  0.00     0.212 C 
BRANCH  14  15
HETATM   15  C7  UNL     1     110.104  52.887  14.210  1.00  0.00     0.082 A 
HETATM   16  C8  UNL     1     109.410  53.986  14.740  1.00  0.00     0.081 A 
HETATM   17  C9  UNL     1     109.661  55.080  13.971  1.00  0.00     0.126 A 
HETATM   18  N11 UNL     1     110.487  54.662  12.994  1.00  0.00    -0.259 N 
HETATM   19  N12 UNL     1     110.737  53.352  13.158  1.00  0.00    -0.164 N 
ATOM     20  H11 UNL     1     110.863  55.248  12.248  1.00  0.00     0.191 HD
BRANCH  17  21
HETATM   21  N10 UNL     1     109.140  56.391  14.179  1.00  0.00    -0.312 N 
HETATM   22  C10 UNL     1     108.237  56.976  13.273  1.00  0.00     0.227 C 
HETATM   23  O3  UNL     1     107.885  56.330  12.263  1.00  0.00    -0.273 OA
ATOM     24  H10 UNL     1     109.428  56.916  15.005  1.00  0.00     0.170 HD
BRANCH  22  25
HETATM   25  C11 UNL     1     107.709  58.332  13.502  1.00  0.00     0.163 C 
BRANCH  25  26
HETATM   26  C12 UNL     1     106.251  58.356  13.103  1.00  0.00     0.262 C 
BRANCH  26  27
HETATM   27  O4  UNL     1     105.499  58.377  14.267  1.00  0.00    -0.371 OA
ATOM     28  H4  UNL     1     104.932  57.615  14.256  1.00  0.00     0.212 HD
ENDBRANCH  26  27
BRANCH  26  29
HETATM   29  O5  UNL     1     106.057  59.481  12.316  1.00  0.00    -0.371 OA
ATOM     30  H5  UNL     1     105.414  60.025  12.754  1.00  0.00     0.212 HD
ENDBRANCH  26  29
ENDBRANCH  25  26
ENDBRANCH  22  25
ENDBRANCH  17  21
BRANCH  19  31
HETATM   31  O6  UNL     1     111.557  52.638  12.332  1.00  0.00    -0.268 OA
ATOM     32  H6  UNL     1     111.423  52.488  11.404  1.00  0.00     0.247 HD
ENDBRANCH  19  31
ENDBRANCH  14  15
ENDBRANCH  12  14
BRANCH   1  33
HETATM   33  N1  UNL     1     109.142  49.712  17.218  1.00  0.00    -0.383 N 
ATOM     34  H12 UNL     1     108.725  50.486  16.701  1.00  0.00     0.157 HD
ATOM     35  H11 UNL     1     108.524  48.944  17.479  1.00  0.00     0.157 HD
ENDBRANCH   1  33
BRANCH   4  36
HETATM   36  N3  UNL     1     112.733  48.328  19.925  1.00  0.00    -0.170 N 
ATOM     37  H3  UNL     1     113.582  47.775  19.805  1.00  0.00     0.186 HD
BRANCH  36  38
HETATM   38  C3  UNL     1     112.167  48.341  21.066  1.00  0.00     0.195 A 
HETATM   39  N4  UNL     1     111.323  49.278  21.532  1.00  0.00    -0.221 N 
HETATM   40  O1  UNL     1     110.954  48.949  22.732  1.00  0.00    -0.153 OA
ATOM     41  H4  UNL     1     111.022  50.111  21.027  1.00  0.00     0.198 HD
HETATM   42  N5  UNL     1     111.492  47.844  23.113  1.00  0.00    -0.216 N 
HETATM   43  C4  UNL     1     112.273  47.415  22.093  1.00  0.00     0.209 A 
ATOM     44  H5  UNL     1     111.356  47.380  24.011  1.00  0.00     0.199 HD
BRANCH  43  45
HETATM   45  O2  UNL     1     113.027  46.263  22.097  1.00  0.00    -0.342 OA
ATOM     46  H2  UNL     1     113.971  46.197  22.182  1.00  0.00     0.219 HD
ENDBRANCH  43  45
ENDBRANCH  36  38
ENDBRANCH   4  36
TORSDOF 12
ENDMDL
MODEL 4
REMARK VINA RESULT: -7.855126627      2.003     10.143
REMARK  12 active torsions:
REMARK  status: ('A' for Active; 'I' for Inactive)
REMARK    1  A    between atoms: N1_1  and  C1_4 
REMARK    2  A    between atoms: C2_7  and  N3_8 
REMARK    3  A    between atoms: N3_8  and  C3_10 
REMARK    4  A    between atoms: C4_16  and  O2_17 
REMARK    5  A    between atoms: N9_26  and  C6_27 
REMARK    6  A    between atoms: C6_27  and  C7_28 
REMARK    7  A    between atoms: C9_30  and  N10_31 
REMARK       I    between atoms: N10_31  and  C10_33 
REMARK    8  A    between atoms: C10_33  and  C11_35 
REMARK    9  A    between atoms: C11_35  and  C12_36 
REMARK   10  A    between atoms: C12_36  and  O4_37 
REMARK   11  A    between atoms: C12_36  and  O5_39 
REMARK   12  A    between atoms: N12_43  and  O6_44 
ROOT
HETATM    1  C1  UNL     1     112.475  50.858  16.898  1.00  0.00     0.147 A 
HETATM    2  N2  UNL     1     112.979  50.249  17.984  1.00  0.00    -0.174 N 
ATOM      3  H2  UNL     1     113.967  50.378  18.200  1.00  0.00     0.186 HD
HETATM    4  C2  UNL     1     112.235  49.474  18.801  1.00  0.00     0.687 A 
HETATM    5  N6  UNL     1     110.939  49.284  18.550  1.00  0.00    -0.172 N 
ATOM      6  H6  UNL     1     110.381  48.697  19.170  1.00  0.00     0.186 HD
HETATM    7  C5  UNL     1     110.369  49.856  17.492  1.00  0.00     0.169 A 
HETATM    8  N7  UNL     1     109.101  49.839  17.017  1.00  0.00    -0.268 N 
ATOM      9  H7  UNL     1     108.310  49.340  17.422  1.00  0.00     0.190 HD
HETATM   10  N8  UNL     1     109.082  50.574  15.953  1.00  0.00    -0.238 N 
ATOM     11  H8  UNL     1     108.254  50.746  15.383  1.00  0.00     0.208 HD
HETATM   12  N9  UNL     1     110.307  51.084  15.702  1.00  0.00    -0.265 N 
HETATM   13  C13 UNL     1     111.121  50.659  16.634  1.00  0.00     0.142 A 
ENDROOT
BRANCH  12  14
HETATM   14  C6  UNL     1     110.518  51.894  14.558  1.00  0.00     0.212 C 
BRANCH  14  15
HETATM   15  C7  UNL     1     110.259  53.339  14.738  1.00  0.00     0.082 A 
HETATM   16  C8  UNL     1     109.562  54.036  13.739  1.00  0.00     0.081 A 
HETATM   17  C9  UNL     1     109.421  55.333  14.121  1.00  0.00     0.126 A 
HETATM   18  N11 UNL     1     110.017  55.431  15.324  1.00  0.00    -0.259 N 
HETATM   19  N12 UNL     1     110.508  54.229  15.670  1.00  0.00    -0.164 N 
ATOM     20  H11 UNL     1     110.084  56.281  15.883  1.00  0.00     0.191 HD
BRANCH  17  21
HETATM   21  N10 UNL     1     108.771  56.362  13.378  1.00  0.00    -0.312 N 
HETATM   22  C10 UNL     1     108.689  57.681  13.864  1.00  0.00     0.227 C 
HETATM   23  O3  UNL     1     109.201  57.953  14.971  1.00  0.00    -0.273 OA
ATOM     24  H10 UNL     1     108.355  56.138  12.474  1.00  0.00     0.170 HD
BRANCH  22  25
HETATM   25  C11 UNL     1     108.013  58.733  13.085  1.00  0.00     0.163 C 
BRANCH  25  26
HETATM   26  C12 UNL     1     106.554  58.365  12.941  1.00  0.00     0.262 C 
BRANCH  26  27
HETATM   27  O4  UNL     1     105.848  59.535  12.711  1.00  0.00    -0.371 OA
ATOM     28  H4  UNL     1     105.256  59.661  13.443  1.00  0.00     0.212 HD
ENDBRANCH  26  27
BRANCH  26  29
HETATM   29  O5  UNL     1     106.459  57.462  11.892  1.00  0.00    -0.371 OA
ATOM     30  H5  UNL     1     105.840  57.821  11.266  1.00  0.00     0.212 HD
ENDBRANCH  26  29
ENDBRANCH  25  26
ENDBRANCH  22  25
ENDBRANCH  17  21
BRANCH  19  31
HETATM   31  O6  UNL     1     111.158  53.998  16.849  1.00  0.00    -0.268 OA
ATOM     32  H6  UNL     1     112.094  53.881  16.958  1.00  0.00     0.247 HD
ENDBRANCH  19  31
ENDBRANCH  14  15
ENDBRANCH  12  14
BRANCH   1  33
HETATM   33  N1  UNL     1     113.178  51.607  16.132  1.00  0.00    -0.383 N 
ATOM     34  H12 UNL     1     114.193  51.503  16.103  1.00  0.00     0.157 HD
ATOM     35  H11 UNL     1     112.769  52.314  15.522  1.00  0.00     0.157 HD
ENDBRANCH   1  33
BRANCH   4  36
HETATM   36  N3  UNL     1     112.808  48.854  19.930  1.00  0.00    -0.170 N 
ATOM     37  H3  UNL     1     113.766  48.510  19.865  1.00  0.00     0.186 HD
BRANCH  36  38
HETATM   38  C3  UNL     1     112.177  48.707  21.026  1.00  0.00     0.195 A 
HETATM   39  N4  UNL     1     111.379  49.612  21.622  1.00  0.00    -0.221 N 
HETATM   40  O1  UNL     1     110.915  49.102  22.721  1.00  0.00    -0.153 OA
ATOM     41  H4  UNL     1     111.173  50.546  21.268  1.00  0.00     0.198 HD
HETATM   42  N5  UNL     1     111.345  47.905  22.912  1.00  0.00    -0.216 N 
HETATM   43  C4  UNL     1     112.151  47.604  21.866  1.00  0.00     0.209 A 
ATOM     44  H5  UNL     1     111.120  47.298  23.701  1.00  0.00     0.199 HD
BRANCH  43  45
HETATM   45  O2  UNL     1     112.814  46.410  21.689  1.00  0.00    -0.342 OA
ATOM     46  H2  UNL     1     113.740  46.244  21.824  1.00  0.00     0.219 HD
ENDBRANCH  43  45
ENDBRANCH  36  38
ENDBRANCH   4  36
TORSDOF 12
ENDMDL
MODEL 5
REMARK VINA RESULT: -7.770290378      2.260     10.494
REMARK  12 active torsions:
REMARK  status: ('A' for Active; 'I' for Inactive)
REMARK    1  A    between atoms: N1_1  and  C1_4 
REMARK    2  A    between atoms: C2_7  and  N3_8 
REMARK    3  A    between atoms: N3_8  and  C3_10 
REMARK    4  A    between atoms: C4_16  and  O2_17 
REMARK    5  A    between atoms: N9_26  and  C6_27 
REMARK    6  A    between atoms: C6_27  and  C7_28 
REMARK    7  A    between atoms: C9_30  and  N10_31 
REMARK       I    between atoms: N10_31  and  C10_33 
REMARK    8  A    between atoms: C10_33  and  C11_35 
REMARK    9  A    between atoms: C11_35  and  C12_36 
REMARK   10  A    between atoms: C12_36  and  O4_37 
REMARK   11  A    between atoms: C12_36  and  O5_39 
REMARK   12  A    between atoms: N12_43  and  O6_44 
ROOT
HETATM    1  C1  UNL     1     109.676  48.750  17.943  1.00  0.00     0.147 A 
HETATM    2  N2  UNL     1     110.174  47.956  18.905  1.00  0.00    -0.174 N 
ATOM      3  H2  UNL     1     109.555  47.275  19.345  1.00  0.00     0.186 HD
HETATM    4  C2  UNL     1     111.459  48.020  19.315  1.00  0.00     0.687 A 
HETATM    5  N6  UNL     1     112.297  48.897  18.762  1.00  0.00    -0.172 N 
ATOM      6  H6  UNL     1     113.267  48.941  19.076  1.00  0.00     0.186 HD
HETATM    7  C5  UNL     1     111.875  49.716  17.801  1.00  0.00     0.169 A 
HETATM    8  N7  UNL     1     112.502  50.674  17.078  1.00  0.00    -0.268 N 
ATOM      9  H7  UNL     1     113.479  50.952  17.161  1.00  0.00     0.190 HD
HETATM   10  N8  UNL     1     111.628  51.170  16.264  1.00  0.00    -0.238 N 
ATOM     11  H8  UNL     1     111.818  51.914  15.593  1.00  0.00     0.208 HD
HETATM   12  N9  UNL     1     110.429  50.569  16.424  1.00  0.00    -0.265 N 
HETATM   13  C13 UNL     1     110.551  49.667  17.365  1.00  0.00     0.142 A 
ENDROOT
BRANCH  12  14
HETATM   14  C6  UNL     1     109.317  50.986  15.653  1.00  0.00     0.212 C 
BRANCH  14  15
HETATM   15  C7  UNL     1     109.588  52.046  14.656  1.00  0.00     0.082 A 
HETATM   16  C8  UNL     1     109.052  53.327  14.861  1.00  0.00     0.081 A 
HETATM   17  C9  UNL     1     109.443  54.138  13.842  1.00  0.00     0.126 A 
HETATM   18  N11 UNL     1     110.199  53.374  13.031  1.00  0.00    -0.259 N 
HETATM   19  N12 UNL     1     110.271  52.131  13.539  1.00  0.00    -0.164 N 
ATOM     20  H11 UNL     1     110.646  53.688  12.170  1.00  0.00     0.191 HD
BRANCH  17  21
HETATM   21  N10 UNL     1     109.106  55.515  13.686  1.00  0.00    -0.312 N 
HETATM   22  C10 UNL     1     108.312  55.961  12.613  1.00  0.00     0.227 C 
HETATM   23  O3  UNL     1     107.894  55.129  11.780  1.00  0.00    -0.273 OA
ATOM     24  H10 UNL     1     109.447  56.192  14.369  1.00  0.00     0.170 HD
BRANCH  22  25
HETATM   25  C11 UNL     1     107.973  57.387  12.466  1.00  0.00     0.163 C 
BRANCH  25  26
HETATM   26  C12 UNL     1     106.487  57.506  12.213  1.00  0.00     0.262 C 
BRANCH  26  27
HETATM   27  O4  UNL     1     106.139  58.836  12.386  1.00  0.00    -0.371 OA
ATOM     28  H4  UNL     1     106.217  59.265  11.542  1.00  0.00     0.212 HD
ENDBRANCH  26  27
BRANCH  26  29
HETATM   29  O5  UNL     1     106.251  57.049  10.925  1.00  0.00    -0.371 OA
ATOM     30  H5  UNL     1     106.275  56.100  10.954  1.00  0.00     0.212 HD
ENDBRANCH  26  29
ENDBRANCH  25  26
ENDBRANCH  22  25
ENDBRANCH  17  21
BRANCH  19  31
HETATM   31  O6  UNL     1     110.982  51.124  12.952  1.00  0.00    -0.268 OA
ATOM     32  H6  UNL     1     111.600  51.219  12.237  1.00  0.00     0.247 HD
ENDBRANCH  19  31
ENDBRANCH  14  15
ENDBRANCH  12  14
BRANCH   1  33
HETATM   33  N1  UNL     1     108.461  48.677  17.542  1.00  0.00    -0.383 N 
ATOM     34  H12 UNL     1     107.923  49.528  17.378  1.00  0.00     0.157 HD
ATOM     35  H11 UNL     1     107.990  47.790  17.360  1.00  0.00     0.157 HD
ENDBRANCH   1  33
BRANCH   4  36
HETATM   36  N3  UNL     1     111.937  47.166  20.330  1.00  0.00    -0.170 N 
ATOM     37  H3  UNL     1     111.809  46.159  20.223  1.00  0.00     0.186 HD
BRANCH  36  38
HETATM   38  C3  UNL     1     112.522  47.602  21.374  1.00  0.00     0.195 A 
HETATM   39  N4  UNL     1     113.850  47.679  21.577  1.00  0.00    -0.221 N 
HETATM   40  O1  UNL     1     114.064  48.175  22.757  1.00  0.00    -0.153 OA
ATOM     41  H4  UNL     1     114.570  47.395  20.914  1.00  0.00     0.198 HD
HETATM   42  N5  UNL     1     112.966  48.442  23.372  1.00  0.00    -0.216 N 
HETATM   43  C4  UNL     1     111.955  48.097  22.538  1.00  0.00     0.209 A 
ATOM     44  H5  UNL     1     112.874  48.839  24.307  1.00  0.00     0.199 HD
BRANCH  43  45
HETATM   45  O2  UNL     1     110.613  48.225  22.819  1.00  0.00    -0.342 OA
ATOM     46  H2  UNL     1     110.027  48.910  22.515  1.00  0.00     0.219 HD
ENDBRANCH  43  45
ENDBRANCH  36  38
ENDBRANCH   4  36
TORSDOF 12
ENDMDL
