MODEL 1
REMARK VINA RESULT: -7.287272509      0.000      0.000
REMARK  12 active torsions:
REMARK  status: ('A' for Active; 'I' for Inactive)
REMARK    1  A    between atoms: C2_2  and  C3_4 
REMARK    2  A    between atoms: C6_15  and  C7_16 
REMARK    3  A    between atoms: C7_16  and  O3_17 
REMARK    4  A    between atoms: C7_16  and  N7_34 
REMARK    5  A    between atoms: O3_17  and  C8_18 
REMARK    6  A    between atoms: C8_18  and  C9_20 
REMARK    7  A    between atoms: C10_24  and  C11_25 
REMARK    8  A    between atoms: C11_25  and  N5_26 
REMARK    9  A    between atoms: C11_25  and  O6_30 
REMARK   10  A    between atoms: C12_37  and  O7_38 
REMARK   11  A    between atoms: C13_40  and  O8_41 
REMARK   12  A    between atoms: C14_43  and  O9_44 
ROOT
HETATM    1  C7  UNL     1     110.549  53.653  14.815  1.00  0.00     0.309 C 
ENDROOT
BRANCH   1   2
HETATM    2  C6  UNL     1     111.871  53.846  15.392  1.00  0.00     0.094 A 
HETATM    3  C3  UNL     1     113.049  53.878  14.640  1.00  0.00     0.107 A 
HETATM    4  N1  UNL     1     114.263  54.059  15.254  1.00  0.00    -0.334 N 
HETATM    5  C4  UNL     1     114.294  54.204  16.581  1.00  0.00     0.169 A 
ATOM      6  H1  UNL     1     115.124  54.082  14.707  1.00  0.00     0.168 HD
HETATM    7  N2  UNL     1     115.459  54.376  17.152  1.00  0.00    -0.381 N 
HETATM    8  C5  UNL     1     113.131  54.172  17.319  1.00  0.00     0.289 A 
ATOM      9  H22 UNL     1     116.320  54.400  16.606  1.00  0.00     0.157 HD
ATOM     10  H21 UNL     1     115.483  54.487  18.166  1.00  0.00     0.157 HD
HETATM   11  O2  UNL     1     113.184  54.312  18.579  1.00  0.00    -0.264 OA
HETATM   12  N3  UNL     1     111.942  53.995  16.737  1.00  0.00    -0.318 N 
ATOM     13  H3  UNL     1     111.092  53.974  17.301  1.00  0.00     0.169 HD
BRANCH   3  14
HETATM   14  C2  UNL     1     113.100  53.743  13.215  1.00  0.00     0.174 C 
HETATM   15  C1  UNL     1     113.153  54.973  12.366  1.00  0.00     0.098 C 
HETATM   16  O1  UNL     1     113.106  52.681  12.596  1.00  0.00    -0.291 OA
ENDBRANCH   3  14
ENDBRANCH   1   2
BRANCH   1  17
HETATM   17  O3  UNL     1     109.661  52.833  15.503  1.00  0.00    -0.281 OA
BRANCH  17  18
HETATM   18  C8  UNL     1     109.732  51.458  15.378  1.00  0.00     0.331 C 
HETATM   19  O4  UNL     1     109.336  50.910  14.291  1.00  0.00    -0.256 OA
BRANCH  18  20
HETATM   20  C9  UNL     1     110.237  50.590  16.424  1.00  0.00     0.204 A 
HETATM   21  N4  UNL     1     111.493  50.435  16.853  1.00  0.00    -0.238 N 
HETATM   22  O5  UNL     1     111.526  49.549  17.819  1.00  0.00    -0.218 OA
ATOM     23  H4  UNL     1     112.305  50.931  16.484  1.00  0.00     0.197 HD
HETATM   24  C10 UNL     1     110.290  49.123  18.024  1.00  0.00     0.205 A 
HETATM   25  N6  UNL     1     109.477  49.769  17.157  1.00  0.00    -0.315 N 
ATOM     26  H6  UNL     1     108.467  49.651  17.076  1.00  0.00     0.169 HD
BRANCH  24  27
HETATM   27  C11 UNL     1     109.816  48.127  19.006  1.00  0.00     0.394 C 
BRANCH  27  28
HETATM   28  N5  UNL     1     110.710  48.040  20.149  1.00  0.00    -0.045 N 
ATOM     29  H53 UNL     1     111.428  47.328  20.008  1.00  0.00     0.277 HD
ATOM     30  H52 UNL     1     111.312  48.860  20.215  1.00  0.00     0.277 HD
ATOM     31  H51 UNL     1     110.195  47.884  21.015  1.00  0.00     0.277 HD
ENDBRANCH  27  28
BRANCH  27  32
HETATM   32  O6  UNL     1     109.788  46.887  18.363  1.00  0.00    -0.364 OA
ATOM     33  H6  UNL     1     109.172  46.955  17.643  1.00  0.00     0.212 HD
ENDBRANCH  27  32
ENDBRANCH  24  27
ENDBRANCH  18  20
ENDBRANCH  17  18
ENDBRANCH   1  17
BRANCH   1  34
HETATM   34  N7  UNL     1     109.942  54.926  14.398  1.00  0.00    -0.230 N 
HETATM   35  N8  UNL     1     110.172  56.116  14.971  1.00  0.00    -0.271 N 
HETATM   36  C12 UNL     1     109.461  57.085  14.388  1.00  0.00     0.193 A 
ATOM     37  H8  UNL     1     110.810  56.263  15.753  1.00  0.00     0.189 HD
HETATM   38  C13 UNL     1     108.733  56.490  13.382  1.00  0.00     0.171 A 
HETATM   39  C14 UNL     1     109.055  55.144  13.415  1.00  0.00     0.198 A 
BRANCH  36  40
HETATM   40  O7  UNL     1     109.451  58.457  14.727  1.00  0.00    -0.343 OA
ATOM     41  H7  UNL     1     109.338  59.193  14.137  1.00  0.00     0.219 HD
ENDBRANCH  36  40
BRANCH  38  42
HETATM   42  O8  UNL     1     107.851  57.118  12.512  1.00  0.00    -0.353 OA
ATOM     43  H8  UNL     1     107.106  56.722  12.074  1.00  0.00     0.218 HD
ENDBRANCH  38  42
BRANCH  39  44
HETATM   44  O9  UNL     1     108.528  54.183  12.553  1.00  0.00    -0.343 OA
ATOM     45  H9  UNL     1     108.242  53.310  12.794  1.00  0.00     0.219 HD
ENDBRANCH  39  44
ENDBRANCH   1  34
TORSDOF 12
ENDMDL
MODEL 2
REMARK VINA RESULT: -7.205863495      1.724      4.613
REMARK  12 active torsions:
REMARK  status: ('A' for Active; 'I' for Inactive)
REMARK    1  A    between atoms: C2_2  and  C3_4 
REMARK    2  A    between atoms: C6_15  and  C7_16 
REMARK    3  A    between atoms: C7_16  and  O3_17 
REMARK    4  A    between atoms: C7_16  and  N7_34 
REMARK    5  A    between atoms: O3_17  and  C8_18 
REMARK    6  A    between atoms: C8_18  and  C9_20 
REMARK    7  A    between atoms: C10_24  and  C11_25 
REMARK    8  A    between atoms: C11_25  and  N5_26 
REMARK    9  A    between atoms: C11_25  and  O6_30 
REMARK   10  A    between atoms: C12_37  and  O7_38 
REMARK   11  A    between atoms: C13_40  and  O8_41 
REMARK   12  A    between atoms: C14_43  and  O9_44 
ROOT
HETATM    1  C7  UNL     1     111.279  53.276  14.519  1.00  0.00     0.309 C 
ENDROOT
BRANCH   1   2
HETATM    2  C6  UNL     1     110.384  54.347  14.106  1.00  0.00     0.094 A 
HETATM    3  C3  UNL     1     110.281  55.573  14.770  1.00  0.00     0.107 A 
HETATM    4  N1  UNL     1     109.410  56.535  14.326  1.00  0.00    -0.334 N 
HETATM    5  C4  UNL     1     108.665  56.276  13.247  1.00  0.00     0.169 A 
ATOM      6  H1  UNL     1     109.332  57.430  14.810  1.00  0.00     0.168 HD
HETATM    7  N2  UNL     1     107.839  57.204  12.836  1.00  0.00    -0.381 N 
HETATM    8  C5  UNL     1     108.769  55.068  12.596  1.00  0.00     0.289 A 
ATOM      9  H22 UNL     1     107.762  58.099  13.319  1.00  0.00     0.157 HD
ATOM     10  H21 UNL     1     107.271  57.007  12.012  1.00  0.00     0.157 HD
HETATM   11  O2  UNL     1     108.052  54.843  11.572  1.00  0.00    -0.264 OA
HETATM   12  N3  UNL     1     109.612  54.120  13.016  1.00  0.00    -0.318 N 
ATOM     13  H3  UNL     1     109.674  53.231  12.519  1.00  0.00     0.169 HD
BRANCH   3  14
HETATM   14  C2  UNL     1     111.051  55.932  15.923  1.00  0.00     0.174 C 
HETATM   15  C1  UNL     1     112.117  56.973  15.795  1.00  0.00     0.098 C 
HETATM   16  O1  UNL     1     110.920  55.455  17.049  1.00  0.00    -0.291 OA
ENDBRANCH   3  14
ENDBRANCH   1   2
BRANCH   1  17
HETATM   17  O3  UNL     1     110.804  51.972  14.433  1.00  0.00    -0.281 OA
BRANCH  17  18
HETATM   18  C8  UNL     1     109.952  51.469  15.399  1.00  0.00     0.331 C 
HETATM   19  O4  UNL     1     108.713  51.788  15.365  1.00  0.00    -0.256 OA
BRANCH  18  20
HETATM   20  C9  UNL     1     110.391  50.589  16.464  1.00  0.00     0.204 A 
HETATM   21  N4  UNL     1     111.622  50.409  16.951  1.00  0.00    -0.238 N 
HETATM   22  O5  UNL     1     111.593  49.520  17.915  1.00  0.00    -0.218 OA
ATOM     23  H4  UNL     1     112.460  50.891  16.623  1.00  0.00     0.197 HD
HETATM   24  C10 UNL     1     110.341  49.117  18.060  1.00  0.00     0.205 A 
HETATM   25  N6  UNL     1     109.582  49.780  17.158  1.00  0.00    -0.315 N 
ATOM     26  H6  UNL     1     108.575  49.681  17.029  1.00  0.00     0.169 HD
BRANCH  24  27
HETATM   27  C11 UNL     1     109.803  48.127  19.015  1.00  0.00     0.394 C 
BRANCH  27  28
HETATM   28  N5  UNL     1     110.663  47.988  20.179  1.00  0.00    -0.045 N 
ATOM     29  H53 UNL     1     111.636  48.194  19.950  1.00  0.00     0.277 HD
ATOM     30  H52 UNL     1     110.499  48.733  20.855  1.00  0.00     0.277 HD
ATOM     31  H51 UNL     1     110.567  47.067  20.606  1.00  0.00     0.277 HD
ENDBRANCH  27  28
BRANCH  27  32
HETATM   32  O6  UNL     1     109.742  46.898  18.353  1.00  0.00    -0.364 OA
ATOM     33  H6  UNL     1     108.938  46.470  18.623  1.00  0.00     0.212 HD
ENDBRANCH  27  32
ENDBRANCH  24  27
ENDBRANCH  18  20
ENDBRANCH  17  18
ENDBRANCH   1  17
BRANCH   1  34
HETATM   34  N7  UNL     1     112.622  53.432  13.940  1.00  0.00    -0.230 N 
HETATM   35  N8  UNL     1     113.683  53.949  14.577  1.00  0.00    -0.271 N 
HETATM   36  C12 UNL     1     114.760  53.981  13.787  1.00  0.00     0.193 A 
ATOM     37  H8  UNL     1     113.669  54.276  15.543  1.00  0.00     0.189 HD
HETATM   38  C13 UNL     1     114.375  53.455  12.574  1.00  0.00     0.171 A 
HETATM   39  C14 UNL     1     113.038  53.123  12.702  1.00  0.00     0.198 A 
BRANCH  36  40
HETATM   40  O7  UNL     1     116.048  54.458  14.121  1.00  0.00    -0.343 OA
ATOM     41  H7  UNL     1     116.304  55.361  14.268  1.00  0.00     0.219 HD
ENDBRANCH  36  40
BRANCH  38  42
HETATM   42  O8  UNL     1     115.173  53.293  11.449  1.00  0.00    -0.353 OA
ATOM     43  H8  UNL     1     115.406  52.472  11.032  1.00  0.00     0.218 HD
ENDBRANCH  38  42
BRANCH  39  44
HETATM   44  O9  UNL     1     112.263  52.558  11.690  1.00  0.00    -0.343 OA
ATOM     45  H9  UNL     1     111.433  52.889  11.368  1.00  0.00     0.219 HD
ENDBRANCH  39  44
ENDBRANCH   1  34
TORSDOF 12
ENDMDL
MODEL 3
REMARK VINA RESULT: -7.174211368      2.048      4.818
REMARK  12 active torsions:
REMARK  status: ('A' for Active; 'I' for Inactive)
REMARK    1  A    between atoms: C2_2  and  C3_4 
REMARK    2  A    between atoms: C6_15  and  C7_16 
REMARK    3  A    between atoms: C7_16  and  O3_17 
REMARK    4  A    between atoms: C7_16  and  N7_34 
REMARK    5  A    between atoms: O3_17  and  C8_18 
REMARK    6  A    between atoms: C8_18  and  C9_20 
REMARK    7  A    between atoms: C10_24  and  C11_25 
REMARK    8  A    between atoms: C11_25  and  N5_26 
REMARK    9  A    between atoms: C11_25  and  O6_30 
REMARK   10  A    between atoms: C12_37  and  O7_38 
REMARK   11  A    between atoms: C13_40  and  O8_41 
REMARK   12  A    between atoms: C14_43  and  O9_44 
ROOT
HETATM    1  C7  UNL     1     111.119  53.639  14.066  1.00  0.00     0.309 C 
ENDROOT
BRANCH   1   2
HETATM    2  C6  UNL     1     110.138  54.638  13.669  1.00  0.00     0.094 A 
HETATM    3  C3  UNL     1     110.034  55.901  14.258  1.00  0.00     0.107 A 
HETATM    4  N1  UNL     1     109.079  56.791  13.834  1.00  0.00    -0.334 N 
HETATM    5  C4  UNL     1     108.254  56.424  12.850  1.00  0.00     0.169 A 
ATOM      6  H1  UNL     1     109.001  57.713  14.263  1.00  0.00     0.168 HD
HETATM    7  N2  UNL     1     107.348  57.284  12.457  1.00  0.00    -0.381 N 
HETATM    8  C5  UNL     1     108.359  55.179  12.273  1.00  0.00     0.289 A 
ATOM      9  H22 UNL     1     107.270  58.206  12.885  1.00  0.00     0.157 HD
ATOM     10  H21 UNL     1     106.718  57.004  11.705  1.00  0.00     0.157 HD
HETATM   11  O2  UNL     1     107.565  54.851  11.338  1.00  0.00    -0.264 OA
HETATM   12  N3  UNL     1     109.283  54.300  12.674  1.00  0.00    -0.318 N 
ATOM     13  H3  UNL     1     109.344  53.382  12.233  1.00  0.00     0.169 HD
BRANCH   3  14
HETATM   14  C2  UNL     1     110.886  56.374  15.307  1.00  0.00     0.174 C 
HETATM   15  C1  UNL     1     111.952  57.373  14.989  1.00  0.00     0.098 C 
HETATM   16  O1  UNL     1     110.828  56.032  16.486  1.00  0.00    -0.291 OA
ENDBRANCH   3  14
ENDBRANCH   1   2
BRANCH   1  17
HETATM   17  O3  UNL     1     110.716  52.308  14.071  1.00  0.00    -0.281 OA
BRANCH  17  18
HETATM   18  C8  UNL     1     109.971  51.803  15.121  1.00  0.00     0.331 C 
HETATM   19  O4  UNL     1     108.759  52.188  15.268  1.00  0.00    -0.256 OA
BRANCH  18  20
HETATM   20  C9  UNL     1     110.494  50.849  16.079  1.00  0.00     0.204 A 
HETATM   21  N4  UNL     1     111.766  50.562  16.371  1.00  0.00    -0.238 N 
HETATM   22  O5  UNL     1     111.811  49.636  17.298  1.00  0.00    -0.218 OA
ATOM     23  H4  UNL     1     112.580  50.997  15.937  1.00  0.00     0.197 HD
HETATM   24  C10 UNL     1     110.567  49.316  17.616  1.00  0.00     0.205 A 
HETATM   25  N6  UNL     1     109.736  50.069  16.860  1.00  0.00    -0.315 N 
ATOM     26  H6  UNL     1     108.717  50.047  16.880  1.00  0.00     0.169 HD
BRANCH  24  27
HETATM   27  C11 UNL     1     110.102  48.325  18.608  1.00  0.00     0.394 C 
BRANCH  27  28
HETATM   28  N5  UNL     1     111.210  47.565  19.161  1.00  0.00    -0.045 N 
ATOM     29  H53 UNL     1     112.019  47.578  18.539  1.00  0.00     0.277 HD
ATOM     30  H52 UNL     1     111.622  48.038  19.965  1.00  0.00     0.277 HD
ATOM     31  H51 UNL     1     110.931  46.612  19.391  1.00  0.00     0.277 HD
ENDBRANCH  27  28
BRANCH  27  32
HETATM   32  O6  UNL     1     109.240  47.446  17.947  1.00  0.00    -0.364 OA
ATOM     33  H6  UNL     1     108.843  46.889  18.607  1.00  0.00     0.212 HD
ENDBRANCH  27  32
ENDBRANCH  24  27
ENDBRANCH  18  20
ENDBRANCH  17  18
ENDBRANCH   1  17
BRANCH   1  34
HETATM   34  N7  UNL     1     112.410  53.840  13.390  1.00  0.00    -0.230 N 
HETATM   35  N8  UNL     1     112.665  54.790  12.480  1.00  0.00    -0.271 N 
HETATM   36  C12 UNL     1     113.920  54.710  12.027  1.00  0.00     0.193 A 
ATOM     37  H8  UNL     1     111.988  55.487  12.172  1.00  0.00     0.189 HD
HETATM   38  C13 UNL     1     114.508  53.650  12.682  1.00  0.00     0.171 A 
HETATM   39  C14 UNL     1     113.541  53.129  13.524  1.00  0.00     0.198 A 
BRANCH  36  40
HETATM   40  O7  UNL     1     114.535  55.544  11.066  1.00  0.00    -0.343 OA
ATOM     41  H7  UNL     1     114.814  56.444  11.183  1.00  0.00     0.219 HD
ENDBRANCH  36  40
BRANCH  38  42
HETATM   42  O8  UNL     1     115.811  53.198  12.525  1.00  0.00    -0.353 OA
ATOM     43  H8  UNL     1     116.273  52.588  13.089  1.00  0.00     0.218 HD
ENDBRANCH  38  42
BRANCH  39  44
HETATM   44  O9  UNL     1     113.732  52.038  14.369  1.00  0.00    -0.343 OA
ATOM     45  H9  UNL     1     114.524  51.835  14.853  1.00  0.00     0.219 HD
ENDBRANCH  39  44
ENDBRANCH   1  34
TORSDOF 12
ENDMDL
MODEL 4
REMARK VINA RESULT: -7.154567659      2.272      5.094
REMARK  12 active torsions:
REMARK  status: ('A' for Active; 'I' for Inactive)
REMARK    1  A    between atoms: C2_2  and  C3_4 
REMARK    2  A    between atoms: C6_15  and  C7_16 
REMARK    3  A    between atoms: C7_16  and  O3_17 
REMARK    4  A    between atoms: C7_16  and  N7_34 
REMARK    5  A    between atoms: O3_17  and  C8_18 
REMARK    6  A    between atoms: C8_18  and  C9_20 
REMARK    7  A    between atoms: C10_24  and  C11_25 
REMARK    8  A    between atoms: C11_25  and  N5_26 
REMARK    9  A    between atoms: C11_25  and  O6_30 
REMARK   10  A    between atoms: C12_37  and  O7_38 
REMARK   11  A    between atoms: C13_40  and  O8_41 
REMARK   12  A    between atoms: C14_43  and  O9_44 
ROOT
HETATM    1  C7  UNL     1     110.320  53.814  13.865  1.00  0.00     0.309 C 
ENDROOT
BRANCH   1   2
HETATM    2  C6  UNL     1     109.517  54.979  13.526  1.00  0.00     0.094 A 
HETATM    3  C3  UNL     1     109.615  56.209  14.184  1.00  0.00     0.107 A 
HETATM    4  N1  UNL     1     108.820  57.263  13.814  1.00  0.00    -0.334 N 
HETATM    5  C4  UNL     1     107.953  57.091  12.812  1.00  0.00     0.169 A 
ATOM      6  H1  UNL     1     108.889  58.161  14.294  1.00  0.00     0.168 HD
HETATM    7  N2  UNL     1     107.202  58.106  12.470  1.00  0.00    -0.381 N 
HETATM    8  C5  UNL     1     107.859  55.879  12.166  1.00  0.00     0.289 A 
ATOM      9  H22 UNL     1     107.271  59.004  12.949  1.00  0.00     0.157 HD
ATOM     10  H21 UNL     1     106.540  57.975  11.705  1.00  0.00     0.157 HD
HETATM   11  O2  UNL     1     107.028  55.737  11.216  1.00  0.00    -0.264 OA
HETATM   12  N3  UNL     1     108.625  54.841  12.515  1.00  0.00    -0.318 N 
ATOM     13  H3  UNL     1     108.540  53.951  12.024  1.00  0.00     0.169 HD
BRANCH   3  14
HETATM   14  C2  UNL     1     110.525  56.478  15.257  1.00  0.00     0.174 C 
HETATM   15  C1  UNL     1     111.616  57.481  15.055  1.00  0.00     0.098 C 
HETATM   16  O1  UNL     1     110.500  55.951  16.367  1.00  0.00    -0.291 OA
ENDBRANCH   3  14
ENDBRANCH   1   2
BRANCH   1  17
HETATM   17  O3  UNL     1     109.861  52.571  13.443  1.00  0.00    -0.281 OA
BRANCH  17  18
HETATM   18  C8  UNL     1     110.444  51.410  13.914  1.00  0.00     0.331 C 
HETATM   19  O4  UNL     1     111.007  50.613  13.085  1.00  0.00    -0.256 OA
BRANCH  18  20
HETATM   20  C9  UNL     1     110.452  51.038  15.316  1.00  0.00     0.204 A 
HETATM   21  N4  UNL     1     109.433  50.644  16.087  1.00  0.00    -0.238 N 
HETATM   22  O5  UNL     1     109.864  50.401  17.301  1.00  0.00    -0.218 OA
ATOM     23  H4  UNL     1     108.466  50.548  15.777  1.00  0.00     0.197 HD
HETATM   24  C10 UNL     1     111.166  50.634  17.326  1.00  0.00     0.205 A 
HETATM   25  N6  UNL     1     111.543  51.032  16.090  1.00  0.00    -0.315 N 
ATOM     26  H6  UNL     1     112.488  51.282  15.800  1.00  0.00     0.169 HD
BRANCH  24  27
HETATM   27  C11 UNL     1     112.097  50.501  18.465  1.00  0.00     0.394 C 
BRANCH  27  28
HETATM   28  N5  UNL     1     111.468  49.834  19.593  1.00  0.00    -0.045 N 
ATOM     29  H53 UNL     1     110.917  50.487  20.152  1.00  0.00     0.277 HD
ATOM     30  H52 UNL     1     110.717  49.215  19.288  1.00  0.00     0.277 HD
ATOM     31  H51 UNL     1     112.152  49.338  20.163  1.00  0.00     0.277 HD
ENDBRANCH  27  28
BRANCH  27  32
HETATM   32  O6  UNL     1     112.466  51.791  18.855  1.00  0.00    -0.364 OA
ATOM     33  H6  UNL     1     113.120  51.705  19.539  1.00  0.00     0.212 HD
ENDBRANCH  27  32
ENDBRANCH  24  27
ENDBRANCH  18  20
ENDBRANCH  17  18
ENDBRANCH   1  17
BRANCH   1  34
HETATM   34  N7  UNL     1     111.745  54.026  13.565  1.00  0.00    -0.230 N 
HETATM   35  N8  UNL     1     112.251  54.268  12.348  1.00  0.00    -0.271 N 
HETATM   36  C12 UNL     1     113.581  54.395  12.387  1.00  0.00     0.193 A 
ATOM     37  H8  UNL     1     111.692  54.347  11.499  1.00  0.00     0.189 HD
HETATM   38  C13 UNL     1     113.954  54.227  13.702  1.00  0.00     0.171 A 
HETATM   39  C14 UNL     1     112.788  53.998  14.411  1.00  0.00     0.198 A 
BRANCH  36  40
HETATM   40  O7  UNL     1     114.445  54.653  11.299  1.00  0.00    -0.343 OA
ATOM     41  H7  UNL     1     115.153  55.286  11.267  1.00  0.00     0.219 HD
ENDBRANCH  36  40
BRANCH  38  42
HETATM   42  O8  UNL     1     115.245  54.276  14.211  1.00  0.00    -0.353 OA
ATOM     43  H8  UNL     1     115.691  53.592  14.698  1.00  0.00     0.218 HD
ENDBRANCH  38  42
BRANCH  39  44
HETATM   44  O9  UNL     1     112.727  53.776  15.785  1.00  0.00    -0.343 OA
ATOM     45  H9  UNL     1     113.417  53.408  16.325  1.00  0.00     0.219 HD
ENDBRANCH  39  44
ENDBRANCH   1  34
TORSDOF 12
ENDMDL
MODEL 5
REMARK VINA RESULT: -7.143358795      1.600      1.919
REMARK  12 active torsions:
REMARK  status: ('A' for Active; 'I' for Inactive)
REMARK    1  A    between atoms: C2_2  and  C3_4 
REMARK    2  A    between atoms: C6_15  and  C7_16 
REMARK    3  A    between atoms: C7_16  and  O3_17 
REMARK    4  A    between atoms: C7_16  and  N7_34 
REMARK    5  A    between atoms: O3_17  and  C8_18 
REMARK    6  A    between atoms: C8_18  and  C9_20 
REMARK    7  A    between atoms: C10_24  and  C11_25 
REMARK    8  A    between atoms: C11_25  and  N5_26 
REMARK    9  A    between atoms: C11_25  and  O6_30 
REMARK   10  A    between atoms: C12_37  and  O7_38 
REMARK   11  A    between atoms: C13_40  and  O8_41 
REMARK   12  A    between atoms: C14_43  and  O9_44 
ROOT
HETATM    1  C7  UNL     1     110.145  53.933  13.607  1.00  0.00     0.309 C 
ENDROOT
BRANCH   1   2
HETATM    2  C6  UNL     1     111.094  54.255  14.663  1.00  0.00     0.094 A 
HETATM    3  C3  UNL     1     112.481  54.242  14.492  1.00  0.00     0.107 A 
HETATM    4  N1  UNL     1     113.315  54.552  15.535  1.00  0.00    -0.334 N 
HETATM    5  C4  UNL     1     112.775  54.866  16.716  1.00  0.00     0.169 A 
ATOM      6  H1  UNL     1     114.328  54.543  15.413  1.00  0.00     0.168 HD
HETATM    7  N2  UNL     1     113.584  55.159  17.702  1.00  0.00    -0.381 N 
HETATM    8  C5  UNL     1     111.408  54.878  16.881  1.00  0.00     0.289 A 
ATOM      9  H22 UNL     1     114.596  55.151  17.580  1.00  0.00     0.157 HD
ATOM     10  H21 UNL     1     113.171  55.400  18.603  1.00  0.00     0.157 HD
HETATM   11  O2  UNL     1     110.915  55.179  18.012  1.00  0.00    -0.264 OA
HETATM   12  N3  UNL     1     110.581  54.577  15.875  1.00  0.00    -0.318 N 
ATOM     13  H3  UNL     1     109.571  54.591  16.018  1.00  0.00     0.169 HD
BRANCH   3  14
HETATM   14  C2  UNL     1     113.138  53.929  13.258  1.00  0.00     0.174 C 
HETATM   15  C1  UNL     1     113.491  55.036  12.316  1.00  0.00     0.098 C 
HETATM   16  O1  UNL     1     113.454  52.803  12.880  1.00  0.00    -0.291 OA
ENDBRANCH   3  14
ENDBRANCH   1   2
BRANCH   1  17
HETATM   17  O3  UNL     1     109.428  52.747  13.726  1.00  0.00    -0.281 OA
BRANCH  17  18
HETATM   18  C8  UNL     1     110.070  51.568  14.058  1.00  0.00     0.331 C 
HETATM   19  O4  UNL     1     110.587  50.856  13.128  1.00  0.00    -0.256 OA
BRANCH  18  20
HETATM   20  C9  UNL     1     110.193  51.087  15.420  1.00  0.00     0.204 A 
HETATM   21  N4  UNL     1     109.261  50.536  16.204  1.00  0.00    -0.238 N 
HETATM   22  O5  UNL     1     109.780  50.238  17.370  1.00  0.00    -0.218 OA
ATOM     23  H4  UNL     1     108.291  50.371  15.935  1.00  0.00     0.197 HD
HETATM   24  C10 UNL     1     111.055  50.594  17.352  1.00  0.00     0.205 A 
HETATM   25  N6  UNL     1     111.322  51.125  16.137  1.00  0.00    -0.315 N 
ATOM     26  H6  UNL     1     112.222  51.489  15.823  1.00  0.00     0.169 HD
BRANCH  24  27
HETATM   27  C11 UNL     1     112.057  50.462  18.428  1.00  0.00     0.394 C 
BRANCH  27  28
HETATM   28  N5  UNL     1     111.514  49.758  19.578  1.00  0.00    -0.045 N 
ATOM     29  H53 UNL     1     110.877  49.014  19.293  1.00  0.00     0.277 HD
ATOM     30  H52 UNL     1     112.226  49.190  20.037  1.00  0.00     0.277 HD
ATOM     31  H51 UNL     1     111.070  50.401  20.233  1.00  0.00     0.277 HD
ENDBRANCH  27  28
BRANCH  27  32
HETATM   32  O6  UNL     1     112.420  51.753  18.822  1.00  0.00    -0.364 OA
ATOM     33  H6  UNL     1     113.359  51.832  18.704  1.00  0.00     0.212 HD
ENDBRANCH  27  32
ENDBRANCH  24  27
ENDBRANCH  18  20
ENDBRANCH  17  18
ENDBRANCH   1  17
BRANCH   1  34
HETATM   34  N7  UNL     1     109.292  55.082  13.269  1.00  0.00    -0.230 N 
HETATM   35  N8  UNL     1     109.346  56.285  13.859  1.00  0.00    -0.271 N 
HETATM   36  C12 UNL     1     108.432  57.119  13.353  1.00  0.00     0.193 A 
ATOM     37  H8  UNL     1     110.001  56.532  14.600  1.00  0.00     0.189 HD
HETATM   38  C13 UNL     1     107.752  56.417  12.383  1.00  0.00     0.171 A 
HETATM   39  C14 UNL     1     108.311  55.152  12.355  1.00  0.00     0.198 A 
BRANCH  36  40
HETATM   40  O7  UNL     1     108.201  58.461  13.732  1.00  0.00    -0.343 OA
ATOM     41  H7  UNL     1     108.814  59.185  13.679  1.00  0.00     0.219 HD
ENDBRANCH  36  40
BRANCH  38  42
HETATM   42  O8  UNL     1     106.712  56.890  11.593  1.00  0.00    -0.353 OA
ATOM     43  H8  UNL     1     106.689  56.922  10.643  1.00  0.00     0.218 HD
ENDBRANCH  38  42
BRANCH  39  44
HETATM   44  O9  UNL     1     107.904  54.126  11.504  1.00  0.00    -0.343 OA
ATOM     45  H9  UNL     1     108.166  54.010  10.598  1.00  0.00     0.219 HD
ENDBRANCH  39  44
ENDBRANCH   1  34
TORSDOF 12
ENDMDL
