MODEL 1
REMARK VINA RESULT: -6.302443487      0.000      0.000
REMARK  3 active torsions:
REMARK  status: ('A' for Active; 'I' for Inactive)
REMARK    1  A    between atoms: O1_1  and  C1_3 
REMARK    2  A    between atoms: C1_3  and  C2_4 
REMARK    3  A    between atoms: C7_12  and  O4_13 
ROOT
HETATM    1  C2  UNL     1      -5.579   2.123  16.107  1.00  0.00     0.058 C 
HETATM    2  C3  UNL     1      -5.868   3.300  15.173  1.00  0.00     0.130 C 
HETATM    3  N1  UNL     1      -4.764   3.753  14.401  1.00  0.00    -0.192 NA
HETATM    4  C4  UNL     1      -4.825   3.632  12.953  1.00  0.00     0.147 C 
HETATM    5  C5  UNL     1      -3.855   2.626  12.364  1.00  0.00     0.188 C 
HETATM    6  O2  UNL     1      -3.741   1.412  13.108  1.00  0.00    -0.356 OA
HETATM    7  C6  UNL     1      -4.460   1.648  14.168  1.00  0.00     0.310 C 
HETATM    8  O3  UNL     1      -3.817   2.821  14.663  1.00  0.00    -0.268 OA
HETATM    9  C7  UNL     1      -4.775   0.996  15.406  1.00  0.00     0.182 C 
ENDROOT
BRANCH   1  10
HETATM   10  C1  UNL     1      -6.811   1.603  16.743  1.00  0.00     0.172 C 
BRANCH  10  11
HETATM   11  O1  UNL     1      -6.968   0.243  16.685  1.00  0.00    -0.400 OA
ATOM     12  H1  UNL     1      -6.196  -0.264  16.906  1.00  0.00     0.209 HD
ENDBRANCH  10  11
ENDBRANCH   1  10
BRANCH   9  13
HETATM   13  O4  UNL     1      -3.742   0.560  16.200  1.00  0.00    -0.390 OA
ATOM     14  H4  UNL     1      -2.990   0.311  15.675  1.00  0.00     0.210 HD
ENDBRANCH   9  13
TORSDOF 3
ENDMDL
MODEL 2
REMARK VINA RESULT: -5.787116966      1.266      1.359
REMARK  3 active torsions:
REMARK  status: ('A' for Active; 'I' for Inactive)
REMARK    1  A    between atoms: O1_1  and  C1_3 
REMARK    2  A    between atoms: C1_3  and  C2_4 
REMARK    3  A    between atoms: C7_12  and  O4_13 
ROOT
HETATM    1  C2  UNL     1      -5.245   2.461  15.539  1.00  0.00     0.058 C 
HETATM    2  C3  UNL     1      -5.573   3.059  14.170  1.00  0.00     0.130 C 
HETATM    3  N1  UNL     1      -4.615   2.810  13.150  1.00  0.00    -0.192 NA
HETATM    4  C4  UNL     1      -5.006   2.012  11.999  1.00  0.00     0.147 C 
HETATM    5  C5  UNL     1      -4.332   0.655  11.915  1.00  0.00     0.188 C 
HETATM    6  O2  UNL     1      -4.220  -0.026  13.164  1.00  0.00    -0.356 OA
HETATM    7  C6  UNL     1      -4.652   0.856  14.021  1.00  0.00     0.310 C 
HETATM    8  O3  UNL     1      -3.766   1.939  13.746  1.00  0.00    -0.268 OA
HETATM    9  C7  UNL     1      -4.772   0.987  15.443  1.00  0.00     0.182 C 
ENDROOT
BRANCH   1  10
HETATM   10  C1  UNL     1      -6.366   2.616  16.495  1.00  0.00     0.172 C 
BRANCH  10  11
HETATM   11  O1  UNL     1      -6.251   1.890  17.652  1.00  0.00    -0.400 OA
ATOM     12  H1  UNL     1      -5.786   2.325  18.358  1.00  0.00     0.209 HD
ENDBRANCH  10  11
ENDBRANCH   1  10
BRANCH   9  13
HETATM   13  O4  UNL     1      -3.658   0.775  16.219  1.00  0.00    -0.390 OA
ATOM     14  H4  UNL     1      -3.326  -0.108  16.106  1.00  0.00     0.210 HD
ENDBRANCH   9  13
TORSDOF 3
ENDMDL
MODEL 3
REMARK VINA RESULT: -5.441699340      3.945      4.997
REMARK  3 active torsions:
REMARK  status: ('A' for Active; 'I' for Inactive)
REMARK    1  A    between atoms: O1_1  and  C1_3 
REMARK    2  A    between atoms: C1_3  and  C2_4 
REMARK    3  A    between atoms: C7_12  and  O4_13 
ROOT
HETATM    1  C2  UNL     1      -3.650   0.555  10.943  1.00  0.00     0.058 C 
HETATM    2  C3  UNL     1      -2.140   0.542  10.700  1.00  0.00     0.130 C 
HETATM    3  N1  UNL     1      -1.635   1.629   9.937  1.00  0.00    -0.192 NA
HETATM    4  C4  UNL     1      -0.712   2.559  10.568  1.00  0.00     0.147 C 
HETATM    5  C5  UNL     1      -1.272   3.953  10.782  1.00  0.00     0.188 C 
HETATM    6  O2  UNL     1      -2.626   3.982  11.234  1.00  0.00    -0.356 OA
HETATM    7  C6  UNL     1      -2.978   2.728  11.188  1.00  0.00     0.310 C 
HETATM    8  O3  UNL     1      -2.717   2.436   9.817  1.00  0.00    -0.268 OA
HETATM    9  C7  UNL     1      -4.165   1.950  11.386  1.00  0.00     0.182 C 
ENDROOT
BRANCH   1  10
HETATM   10  C1  UNL     1      -4.070  -0.509  11.884  1.00  0.00     0.172 C 
BRANCH  10  11
HETATM   11  O1  UNL     1      -4.433  -0.074  13.132  1.00  0.00    -0.400 OA
ATOM     12  H1  UNL     1      -3.766  -0.167  13.803  1.00  0.00     0.209 HD
ENDBRANCH  10  11
ENDBRANCH   1  10
BRANCH   9  13
HETATM   13  O4  UNL     1      -5.302   2.297  10.698  1.00  0.00    -0.390 OA
ATOM     14  H4  UNL     1      -5.257   3.198  10.397  1.00  0.00     0.210 HD
ENDBRANCH   9  13
TORSDOF 3
ENDMDL
MODEL 4
REMARK VINA RESULT: -5.436228535      1.770      4.058
REMARK  3 active torsions:
REMARK  status: ('A' for Active; 'I' for Inactive)
REMARK    1  A    between atoms: O1_1  and  C1_3 
REMARK    2  A    between atoms: C1_3  and  C2_4 
REMARK    3  A    between atoms: C7_12  and  O4_13 
ROOT
HETATM    1  C2  UNL     1      -4.405   1.737  14.124  1.00  0.00     0.058 C 
HETATM    2  C3  UNL     1      -4.574   0.516  15.029  1.00  0.00     0.130 C 
HETATM    3  N1  UNL     1      -4.623   0.791  16.422  1.00  0.00    -0.192 NA
HETATM    4  C4  UNL     1      -5.845   0.496  17.153  1.00  0.00     0.147 C 
HETATM    5  C5  UNL     1      -6.591   1.719  17.653  1.00  0.00     0.188 C 
HETATM    6  O2  UNL     1      -6.641   2.800  16.722  1.00  0.00    -0.356 OA
HETATM    7  C6  UNL     1      -5.879   2.387  15.749  1.00  0.00     0.310 C 
HETATM    8  O3  UNL     1      -4.664   2.144  16.457  1.00  0.00    -0.268 OA
HETATM    9  C7  UNL     1      -5.351   2.901  14.519  1.00  0.00     0.182 C 
ENDROOT
BRANCH   1  10
HETATM   10  C1  UNL     1      -4.536   1.388  12.690  1.00  0.00     0.172 C 
BRANCH  10  11
HETATM   11  O1  UNL     1      -5.251   2.281  11.935  1.00  0.00    -0.400 OA
ATOM     12  H1  UNL     1      -4.828   3.120  11.792  1.00  0.00     0.209 HD
ENDBRANCH  10  11
ENDBRANCH   1  10
BRANCH   9  13
HETATM   13  O4  UNL     1      -4.678   4.098  14.543  1.00  0.00    -0.390 OA
ATOM     14  H4  UNL     1      -3.952   4.070  15.156  1.00  0.00     0.210 HD
ENDBRANCH   9  13
TORSDOF 3
ENDMDL
MODEL 5
REMARK VINA RESULT: -5.387121536      1.999      3.007
REMARK  3 active torsions:
REMARK  status: ('A' for Active; 'I' for Inactive)
REMARK    1  A    between atoms: O1_1  and  C1_3 
REMARK    2  A    between atoms: C1_3  and  C2_4 
REMARK    3  A    between atoms: C7_12  and  O4_13 
ROOT
HETATM    1  C2  UNL     1      -4.998   1.962  14.554  1.00  0.00     0.058 C 
HETATM    2  C3  UNL     1      -4.283   1.001  13.603  1.00  0.00     0.130 C 
HETATM    3  N1  UNL     1      -4.706   1.057  12.247  1.00  0.00    -0.192 NA
HETATM    4  C4  UNL     1      -3.757   1.489  11.234  1.00  0.00     0.147 C 
HETATM    5  C5  UNL     1      -4.078   2.830  10.601  1.00  0.00     0.188 C 
HETATM    6  O2  UNL     1      -4.535   3.821  11.520  1.00  0.00    -0.356 OA
HETATM    7  C6  UNL     1      -4.643   3.160  12.638  1.00  0.00     0.310 C 
HETATM    8  O3  UNL     1      -5.540   2.124  12.240  1.00  0.00    -0.268 OA
HETATM    9  C7  UNL     1      -5.111   3.395  13.972  1.00  0.00     0.182 C 
ENDROOT
BRANCH   1  10
HETATM   10  C1  UNL     1      -4.386   1.965  15.903  1.00  0.00     0.172 C 
BRANCH  10  11
HETATM   11  O1  UNL     1      -3.630   0.861  16.203  1.00  0.00    -0.400 OA
ATOM     12  H1  UNL     1      -4.003   0.279  16.855  1.00  0.00     0.209 HD
ENDBRANCH  10  11
ENDBRANCH   1  10
BRANCH   9  13
HETATM   13  O4  UNL     1      -6.377   3.899  14.145  1.00  0.00    -0.390 OA
ATOM     14  H4  UNL     1      -7.014   3.200  14.233  1.00  0.00     0.210 HD
ENDBRANCH   9  13
TORSDOF 3
ENDMDL
