MODEL 1
REMARK VINA RESULT: -6.072278205      0.000      0.000
REMARK  3 active torsions:
REMARK  status: ('A' for Active; 'I' for Inactive)
REMARK    1  A    between atoms: O1_1  and  C1_3 
REMARK    2  A    between atoms: C1_3  and  C2_4 
REMARK    3  A    between atoms: C7_11  and  O4_12 
ROOT
HETATM    1  C2  UNL     1      -4.864   2.713  14.175  1.00  0.00     0.153 C 
HETATM    2  C3  UNL     1      -5.896   2.678  15.236  1.00  0.00     0.108 C 
HETATM    3  C4  UNL     1      -5.610   1.414  16.004  1.00  0.00     0.217 C 
HETATM    4  O2  UNL     1      -5.138   1.642  17.282  1.00  0.00    -0.349 OA
HETATM    5  C5  UNL     1      -6.241   1.767  18.102  1.00  0.00     0.198 C 
HETATM    6  C6  UNL     1      -7.392   1.361  17.220  1.00  0.00     0.198 C 
HETATM    7  O3  UNL     1      -6.754   0.683  16.165  1.00  0.00    -0.349 OA
HETATM    8  C7  UNL     1      -4.555   0.739  15.176  1.00  0.00     0.320 C 
HETATM    9  O5  UNL     1      -3.940   1.716  14.412  1.00  0.00    -0.348 OA
ENDROOT
BRANCH   8  10
HETATM   10  O4  UNL     1      -3.581   0.191  16.015  1.00  0.00    -0.366 OA
ATOM     11  H4  UNL     1      -3.006  -0.372  15.509  1.00  0.00     0.212 HD
ENDBRANCH   8  10
BRANCH   1  12
HETATM   12  C1  UNL     1      -4.156   4.073  14.147  1.00  0.00     0.196 C 
BRANCH  12  13
HETATM   13  O1  UNL     1      -2.891   3.976  14.721  1.00  0.00    -0.398 OA
ATOM     14  H1  UNL     1      -2.299   4.605  14.327  1.00  0.00     0.209 HD
ENDBRANCH  12  13
ENDBRANCH   1  12
TORSDOF 3
ENDMDL
MODEL 2
REMARK VINA RESULT: -5.781632527      1.192      3.830
REMARK  3 active torsions:
REMARK  status: ('A' for Active; 'I' for Inactive)
REMARK    1  A    between atoms: O1_1  and  C1_3 
REMARK    2  A    between atoms: C1_3  and  C2_4 
REMARK    3  A    between atoms: C7_11  and  O4_12 
ROOT
HETATM    1  C2  UNL     1      -6.238   2.602  16.424  1.00  0.00     0.153 C 
HETATM    2  C3  UNL     1      -5.952   2.824  14.988  1.00  0.00     0.108 C 
HETATM    3  C4  UNL     1      -4.598   2.204  14.768  1.00  0.00     0.217 C 
HETATM    4  O2  UNL     1      -4.633   1.067  13.985  1.00  0.00    -0.349 OA
HETATM    5  C5  UNL     1      -4.542   1.480  12.671  1.00  0.00     0.198 C 
HETATM    6  C6  UNL     1      -4.218   2.947  12.777  1.00  0.00     0.198 C 
HETATM    7  O3  UNL     1      -3.775   3.074  14.107  1.00  0.00    -0.349 OA
HETATM    8  C7  UNL     1      -4.146   1.860  16.159  1.00  0.00     0.320 C 
HETATM    9  O5  UNL     1      -5.279   1.761  16.948  1.00  0.00    -0.348 OA
ENDROOT
BRANCH   8  10
HETATM   10  O4  UNL     1      -3.529   0.608  16.153  1.00  0.00    -0.366 OA
ATOM     11  H4  UNL     1      -3.267   0.378  17.038  1.00  0.00     0.212 HD
ENDBRANCH   8  10
BRANCH   1  12
HETATM   12  C1  UNL     1      -7.627   1.980  16.613  1.00  0.00     0.196 C 
BRANCH  12  13
HETATM   13  O1  UNL     1      -7.518   0.621  16.897  1.00  0.00    -0.398 OA
ATOM     14  H1  UNL     1      -8.364   0.196  16.820  1.00  0.00     0.209 HD
ENDBRANCH  12  13
ENDBRANCH   1  12
TORSDOF 3
ENDMDL
MODEL 3
REMARK VINA RESULT: -5.607543316      2.012      3.145
REMARK  3 active torsions:
REMARK  status: ('A' for Active; 'I' for Inactive)
REMARK    1  A    between atoms: O1_1  and  C1_3 
REMARK    2  A    between atoms: C1_3  and  C2_4 
REMARK    3  A    between atoms: C7_11  and  O4_12 
ROOT
HETATM    1  C2  UNL     1      -4.460   0.677  12.732  1.00  0.00     0.153 C 
HETATM    2  C3  UNL     1      -4.650   2.131  12.944  1.00  0.00     0.108 C 
HETATM    3  C4  UNL     1      -4.629   2.305  14.439  1.00  0.00     0.217 C 
HETATM    4  O2  UNL     1      -3.513   2.975  14.900  1.00  0.00    -0.349 OA
HETATM    5  C5  UNL     1      -3.806   4.323  14.851  1.00  0.00     0.198 C 
HETATM    6  C6  UNL     1      -5.278   4.361  14.538  1.00  0.00     0.198 C 
HETATM    7  O3  UNL     1      -5.698   3.053  14.849  1.00  0.00    -0.349 OA
HETATM    8  C7  UNL     1      -4.631   0.892  14.950  1.00  0.00     0.320 C 
HETATM    9  O5  UNL     1      -4.143   0.085  13.937  1.00  0.00    -0.348 OA
ENDROOT
BRANCH   8  10
HETATM   10  O4  UNL     1      -3.752   0.785  16.030  1.00  0.00    -0.366 OA
ATOM     11  H4  UNL     1      -3.536   1.652  16.353  1.00  0.00     0.212 HD
ENDBRANCH   8  10
BRANCH   1  12
HETATM   12  C1  UNL     1      -3.339   0.415  11.719  1.00  0.00     0.196 C 
BRANCH  12  13
HETATM   13  O1  UNL     1      -2.364   1.406  11.805  1.00  0.00    -0.398 OA
ATOM     14  H1  UNL     1      -2.689   2.149  12.300  1.00  0.00     0.209 HD
ENDBRANCH  12  13
ENDBRANCH   1  12
TORSDOF 3
ENDMDL
MODEL 4
REMARK VINA RESULT: -5.533774081      1.895      4.314
REMARK  3 active torsions:
REMARK  status: ('A' for Active; 'I' for Inactive)
REMARK    1  A    between atoms: O1_1  and  C1_3 
REMARK    2  A    between atoms: C1_3  and  C2_4 
REMARK    3  A    between atoms: C7_11  and  O4_12 
ROOT
HETATM    1  C2  UNL     1      -4.775   2.719  15.273  1.00  0.00     0.153 C 
HETATM    2  C3  UNL     1      -5.081   2.001  14.014  1.00  0.00     0.108 C 
HETATM    3  C4  UNL     1      -4.137   2.591  13.000  1.00  0.00     0.217 C 
HETATM    4  O2  UNL     1      -3.159   1.711  12.581  1.00  0.00    -0.349 OA
HETATM    5  C5  UNL     1      -3.686   0.999  11.523  1.00  0.00     0.198 C 
HETATM    6  C6  UNL     1      -4.978   1.710  11.219  1.00  0.00     0.198 C 
HETATM    7  O3  UNL     1      -4.814   2.949  11.867  1.00  0.00    -0.349 OA
HETATM    8  C7  UNL     1      -3.514   3.742  13.738  1.00  0.00     0.320 C 
HETATM    9  O5  UNL     1      -3.642   3.483  15.092  1.00  0.00    -0.348 OA
ENDROOT
BRANCH   8  10
HETATM   10  O4  UNL     1      -2.149   3.798  13.450  1.00  0.00    -0.366 OA
ATOM     11  H4  UNL     1      -1.766   2.934  13.550  1.00  0.00     0.212 HD
ENDBRANCH   8  10
BRANCH   1  12
HETATM   12  C1  UNL     1      -4.550   1.730  16.423  1.00  0.00     0.196 C 
BRANCH  12  13
HETATM   13  O1  UNL     1      -3.656   0.733  16.041  1.00  0.00    -0.398 OA
ATOM     14  H1  UNL     1      -3.358   0.246  16.800  1.00  0.00     0.209 HD
ENDBRANCH  12  13
ENDBRANCH   1  12
TORSDOF 3
ENDMDL
MODEL 5
REMARK VINA RESULT: -5.521883354      1.530      4.098
REMARK  3 active torsions:
REMARK  status: ('A' for Active; 'I' for Inactive)
REMARK    1  A    between atoms: O1_1  and  C1_3 
REMARK    2  A    between atoms: C1_3  and  C2_4 
REMARK    3  A    between atoms: C7_11  and  O4_12 
ROOT
HETATM    1  C2  UNL     1      -4.681   1.069  15.711  1.00  0.00     0.153 C 
HETATM    2  C3  UNL     1      -4.475   2.513  15.458  1.00  0.00     0.108 C 
HETATM    3  C4  UNL     1      -4.369   2.626  13.960  1.00  0.00     0.217 C 
HETATM    4  O2  UNL     1      -5.442   3.273  13.379  1.00  0.00    -0.349 OA
HETATM    5  C5  UNL     1      -5.156   4.622  13.397  1.00  0.00     0.198 C 
HETATM    6  C6  UNL     1      -3.715   4.679  13.833  1.00  0.00     0.198 C 
HETATM    7  O3  UNL     1      -3.270   3.362  13.612  1.00  0.00    -0.349 OA
HETATM    8  C7  UNL     1      -4.322   1.194  13.509  1.00  0.00     0.320 C 
HETATM    9  O5  UNL     1      -4.893   0.427  14.510  1.00  0.00    -0.348 OA
ENDROOT
BRANCH   8  10
HETATM   10  O4  UNL     1      -5.106   1.039  12.364  1.00  0.00    -0.366 OA
ATOM     11  H4  UNL     1      -5.236   1.884  11.949  1.00  0.00     0.212 HD
ENDBRANCH   8  10
BRANCH   1  12
HETATM   12  C1  UNL     1      -5.884   0.843  16.635  1.00  0.00     0.196 C 
BRANCH  12  13
HETATM   13  O1  UNL     1      -5.847  -0.438  17.179  1.00  0.00    -0.398 OA
ATOM     14  H1  UNL     1      -6.106  -0.418  18.093  1.00  0.00     0.209 HD
ENDBRANCH  12  13
ENDBRANCH   1  12
TORSDOF 3
ENDMDL
