MODEL 1
REMARK VINA RESULT: -5.404858108      0.000      0.000
REMARK  3 active torsions:
REMARK  status: ('A' for Active; 'I' for Inactive)
REMARK    1  A    between atoms: C5_7  and  O1_8 
REMARK    2  A    between atoms: C6_10  and  C7_11 
REMARK    3  A    between atoms: C7_11  and  O2_12 
ROOT
HETATM    1  C1  UNL     1      -4.273   3.699  13.209  1.00  0.00     0.315 C 
HETATM    2  N1  UNL     1      -4.659   3.655  14.582  1.00  0.00     0.146 N 
HETATM    3  C2  UNL     1      -5.628   4.599  15.035  1.00  0.00     0.547 A 
HETATM    4  N2  UNL     1      -6.502   3.473  15.397  1.00  0.00     0.151 N 
HETATM    5  C3  UNL     1      -6.990   3.444  16.699  1.00  0.00     0.280 C 
HETATM    6  C4  UNL     1      -6.548   2.365  17.607  1.00  0.00     0.062 C 
HETATM    7  C5  UNL     1      -5.983   1.150  16.877  1.00  0.00     0.130 C 
HETATM    8  C6  UNL     1      -4.900   1.704  15.997  1.00  0.00     0.102 C 
HETATM    9  C8  UNL     1      -5.531   2.571  14.968  1.00  0.00     0.468 A 
ENDROOT
BRANCH   8  10
HETATM   10  C7  UNL     1      -4.044   0.636  15.372  1.00  0.00     0.175 C 
BRANCH  10  11
HETATM   11  O2  UNL     1      -4.764  -0.523  15.093  1.00  0.00    -0.400 OA
ATOM     12  H2  UNL     1      -5.429  -0.384  14.429  1.00  0.00     0.209 HD
ENDBRANCH  10  11
ENDBRANCH   8  10
BRANCH   7  13
HETATM   13  O1  UNL     1      -5.538   0.215  17.777  1.00  0.00    -0.395 OA
ATOM     14  H1  UNL     1      -5.625  -0.660  17.417  1.00  0.00     0.210 HD
ENDBRANCH   7  13
TORSDOF 3
ENDMDL
MODEL 2
REMARK VINA RESULT: -5.067966137      1.862      3.484
REMARK  3 active torsions:
REMARK  status: ('A' for Active; 'I' for Inactive)
REMARK    1  A    between atoms: C5_7  and  O1_8 
REMARK    2  A    between atoms: C6_10  and  C7_11 
REMARK    3  A    between atoms: C7_11  and  O2_12 
ROOT
HETATM    1  C1  UNL     1      -4.322   5.477  14.651  1.00  0.00     0.315 C 
HETATM    2  N1  UNL     1      -4.765   4.401  13.825  1.00  0.00     0.146 N 
HETATM    3  C2  UNL     1      -4.598   4.528  12.414  1.00  0.00     0.547 A 
HETATM    4  N2  UNL     1      -3.743   3.332  12.445  1.00  0.00     0.151 N 
HETATM    5  C3  UNL     1      -4.075   2.295  11.579  1.00  0.00     0.280 C 
HETATM    6  C4  UNL     1      -4.538   1.010  12.143  1.00  0.00     0.062 C 
HETATM    7  C5  UNL     1      -4.153   0.813  13.606  1.00  0.00     0.130 C 
HETATM    8  C6  UNL     1      -4.687   2.029  14.308  1.00  0.00     0.102 C 
HETATM    9  C8  UNL     1      -3.939   3.217  13.820  1.00  0.00     0.468 A 
ENDROOT
BRANCH   8  10
HETATM   10  C7  UNL     1      -4.631   1.916  15.807  1.00  0.00     0.175 C 
BRANCH  10  11
HETATM   11  O2  UNL     1      -3.655   1.019  16.234  1.00  0.00    -0.400 OA
ATOM     12  H2  UNL     1      -2.808   1.435  16.349  1.00  0.00     0.209 HD
ENDBRANCH  10  11
ENDBRANCH   8  10
BRANCH   7  13
HETATM   13  O1  UNL     1      -4.665  -0.368  14.081  1.00  0.00    -0.395 OA
ATOM     14  H1  UNL     1      -4.561  -0.418  15.024  1.00  0.00     0.210 HD
ENDBRANCH   7  13
TORSDOF 3
ENDMDL
MODEL 3
REMARK VINA RESULT: -4.966830415      1.556      2.008
REMARK  3 active torsions:
REMARK  status: ('A' for Active; 'I' for Inactive)
REMARK    1  A    between atoms: C5_7  and  O1_8 
REMARK    2  A    between atoms: C6_10  and  C7_11 
REMARK    3  A    between atoms: C7_11  and  O2_12 
ROOT
HETATM    1  C1  UNL     1      -3.189   2.627  12.048  1.00  0.00     0.315 C 
HETATM    2  N1  UNL     1      -3.715   3.321  13.179  1.00  0.00     0.146 N 
HETATM    3  C2  UNL     1      -4.244   4.630  12.973  1.00  0.00     0.547 A 
HETATM    4  N2  UNL     1      -5.545   4.138  13.451  1.00  0.00     0.151 N 
HETATM    5  C3  UNL     1      -6.148   4.847  14.486  1.00  0.00     0.280 C 
HETATM    6  C4  UNL     1      -6.308   4.197  15.803  1.00  0.00     0.062 C 
HETATM    7  C5  UNL     1      -6.224   2.675  15.745  1.00  0.00     0.130 C 
HETATM    8  C6  UNL     1      -4.914   2.392  15.067  1.00  0.00     0.102 C 
HETATM    9  C8  UNL     1      -4.999   2.874  13.664  1.00  0.00     0.468 A 
ENDROOT
BRANCH   8  10
HETATM   10  C7  UNL     1      -4.518   0.942  15.132  1.00  0.00     0.175 C 
BRANCH  10  11
HETATM   11  O2  UNL     1      -3.701   0.665  16.224  1.00  0.00    -0.400 OA
ATOM     12  H2  UNL     1      -2.808   0.467  15.966  1.00  0.00     0.209 HD
ENDBRANCH  10  11
ENDBRANCH   8  10
BRANCH   7  13
HETATM   13  O1  UNL     1      -6.319   2.142  17.005  1.00  0.00    -0.395 OA
ATOM     14  H1  UNL     1      -7.230   2.051  17.259  1.00  0.00     0.210 HD
ENDBRANCH   7  13
TORSDOF 3
ENDMDL
MODEL 4
REMARK VINA RESULT: -4.860506046      1.125      2.918
REMARK  3 active torsions:
REMARK  status: ('A' for Active; 'I' for Inactive)
REMARK    1  A    between atoms: C5_7  and  O1_8 
REMARK    2  A    between atoms: C6_10  and  C7_11 
REMARK    3  A    between atoms: C7_11  and  O2_12 
ROOT
HETATM    1  C1  UNL     1      -6.243   5.239  15.700  1.00  0.00     0.315 C 
HETATM    2  N1  UNL     1      -6.040   4.164  14.783  1.00  0.00     0.146 N 
HETATM    3  C2  UNL     1      -5.388   4.453  13.548  1.00  0.00     0.547 A 
HETATM    4  N2  UNL     1      -4.329   3.507  13.927  1.00  0.00     0.151 N 
HETATM    5  C3  UNL     1      -4.023   2.500  13.017  1.00  0.00     0.280 C 
HETATM    6  C4  UNL     1      -4.313   1.096  13.375  1.00  0.00     0.062 C 
HETATM    7  C5  UNL     1      -4.475   0.872  14.874  1.00  0.00     0.130 C 
HETATM    8  C6  UNL     1      -5.534   1.851  15.294  1.00  0.00     0.102 C 
HETATM    9  C8  UNL     1      -4.996   3.225  15.119  1.00  0.00     0.468 A 
ENDROOT
BRANCH   8  10
HETATM   10  C7  UNL     1      -6.025   1.623  16.697  1.00  0.00     0.175 C 
BRANCH  10  11
HETATM   11  O2  UNL     1      -6.763   0.449  16.816  1.00  0.00    -0.400 OA
ATOM     12  H2  UNL     1      -7.659   0.554  16.518  1.00  0.00     0.209 HD
ENDBRANCH  10  11
ENDBRANCH   8  10
BRANCH   7  13
HETATM   13  O1  UNL     1      -4.802  -0.436  15.130  1.00  0.00    -0.395 OA
ATOM     14  H1  UNL     1      -5.731  -0.579  14.994  1.00  0.00     0.210 HD
ENDBRANCH   7  13
TORSDOF 3
ENDMDL
MODEL 5
REMARK VINA RESULT: -4.849740448      2.788      4.124
REMARK  3 active torsions:
REMARK  status: ('A' for Active; 'I' for Inactive)
REMARK    1  A    between atoms: C5_7  and  O1_8 
REMARK    2  A    between atoms: C6_10  and  C7_11 
REMARK    3  A    between atoms: C7_11  and  O2_12 
ROOT
HETATM    1  C1  UNL     1      -3.954  -1.046  11.639  1.00  0.00     0.315 C 
HETATM    2  N1  UNL     1      -3.574   0.290  11.966  1.00  0.00     0.146 N 
HETATM    3  C2  UNL     1      -3.444   1.228  10.900  1.00  0.00     0.547 A 
HETATM    4  N2  UNL     1      -4.499   2.035  11.530  1.00  0.00     0.151 N 
HETATM    5  C3  UNL     1      -4.211   3.374  11.774  1.00  0.00     0.280 C 
HETATM    6  C4  UNL     1      -4.113   3.844  13.171  1.00  0.00     0.062 C 
HETATM    7  C5  UNL     1      -4.799   2.921  14.173  1.00  0.00     0.130 C 
HETATM    8  C6  UNL     1      -4.188   1.571  13.928  1.00  0.00     0.102 C 
HETATM    9  C8  UNL     1      -4.592   1.115  12.572  1.00  0.00     0.468 A 
ENDROOT
BRANCH   8  10
HETATM   10  C7  UNL     1      -4.547   0.561  14.983  1.00  0.00     0.175 C 
BRANCH  10  11
HETATM   11  O2  UNL     1      -3.758   0.684  16.123  1.00  0.00    -0.400 OA
ATOM     12  H2  UNL     1      -3.839   1.539  16.528  1.00  0.00     0.209 HD
ENDBRANCH  10  11
ENDBRANCH   8  10
BRANCH   7  13
HETATM   13  O1  UNL     1      -4.617   3.384  15.452  1.00  0.00    -0.395 OA
ATOM     14  H1  UNL     1      -4.934   2.747  16.083  1.00  0.00     0.210 HD
ENDBRANCH   7  13
TORSDOF 3
ENDMDL
