MODEL 1
REMARK VINA RESULT: -5.368869593      0.000      0.000
REMARK  3 active torsions:
REMARK  status: ('A' for Active; 'I' for Inactive)
REMARK    1  A    between atoms: O1_2  and  C2_3 
REMARK    2  A    between atoms: C5_7  and  O3_8 
REMARK    3  A    between atoms: C6_11  and  O5_12 
ROOT
HETATM    1  C2  UNL     1      -2.308   2.416  11.120  1.00  0.00     0.156 C 
HETATM    2  C3  UNL     1      -3.061   3.159  12.174  1.00  0.00     0.200 C 
HETATM    3  O2  UNL     1      -3.817   2.275  12.894  1.00  0.00    -0.378 OA
HETATM    4  C4  UNL     1      -3.810   1.055  12.300  1.00  0.00     0.188 C 
HETATM    5  C5  UNL     1      -4.848   0.858  11.239  1.00  0.00     0.289 C 
HETATM    6  O4  UNL     1      -4.181   0.764  10.019  1.00  0.00    -0.329 OA
HETATM    7  C6  UNL     1      -2.987   0.123  10.363  1.00  0.00     0.269 C 
HETATM    8  C7  UNL     1      -2.514   0.975  11.507  1.00  0.00     0.106 C 
ENDROOT
BRANCH   1   9
HETATM    9  O1  UNL     1      -2.758   2.708   9.856  1.00  0.00    -0.388 OA
HETATM   10  C1  UNL     1      -3.096   4.060   9.755  1.00  0.00     0.202 C 
ENDBRANCH   1   9
BRANCH   7  11
HETATM   11  O5  UNL     1      -3.307  -1.132  10.883  1.00  0.00    -0.371 OA
ATOM     12  H5  UNL     1      -3.410  -1.042  11.823  1.00  0.00     0.212 HD
ENDBRANCH   7  11
BRANCH   5  13
HETATM   13  O3  UNL     1      -5.803   1.869  11.206  1.00  0.00    -0.368 OA
ATOM     14  H3  UNL     1      -6.334   1.862  10.419  1.00  0.00     0.212 HD
ENDBRANCH   5  13
TORSDOF 3
ENDMDL
MODEL 2
REMARK VINA RESULT: -5.222865306      1.551      3.134
REMARK  3 active torsions:
REMARK  status: ('A' for Active; 'I' for Inactive)
REMARK    1  A    between atoms: O1_2  and  C2_3 
REMARK    2  A    between atoms: C5_7  and  O3_8 
REMARK    3  A    between atoms: C6_11  and  O5_12 
ROOT
HETATM    1  C2  UNL     1      -4.658   2.088  12.995  1.00  0.00     0.156 C 
HETATM    2  C3  UNL     1      -3.741   3.266  12.966  1.00  0.00     0.200 C 
HETATM    3  O2  UNL     1      -3.286   3.450  11.689  1.00  0.00    -0.378 OA
HETATM    4  C4  UNL     1      -3.636   2.398  10.907  1.00  0.00     0.188 C 
HETATM    5  C5  UNL     1      -2.680   1.246  10.929  1.00  0.00     0.289 C 
HETATM    6  O4  UNL     1      -3.324   0.185  11.564  1.00  0.00    -0.329 OA
HETATM    7  C6  UNL     1      -4.658   0.354  11.182  1.00  0.00     0.269 C 
HETATM    8  C7  UNL     1      -4.885   1.798  11.534  1.00  0.00     0.106 C 
ENDROOT
BRANCH   1   9
HETATM    9  O1  UNL     1      -4.121   1.028  13.682  1.00  0.00    -0.388 OA
HETATM   10  C1  UNL     1      -4.601   0.999  14.994  1.00  0.00     0.202 C 
ENDBRANCH   1   9
BRANCH   7  11
HETATM   11  O5  UNL     1      -4.724   0.250   9.792  1.00  0.00    -0.371 OA
ATOM     12  H5  UNL     1      -5.040   1.078   9.451  1.00  0.00     0.212 HD
ENDBRANCH   7  11
BRANCH   5  13
HETATM   13  O3  UNL     1      -1.473   1.540  11.554  1.00  0.00    -0.368 OA
ATOM     14  H3  UNL     1      -0.955   0.770  11.757  1.00  0.00     0.212 HD
ENDBRANCH   5  13
TORSDOF 3
ENDMDL
MODEL 3
REMARK VINA RESULT: -4.846686907      1.930      3.662
REMARK  3 active torsions:
REMARK  status: ('A' for Active; 'I' for Inactive)
REMARK    1  A    between atoms: O1_2  and  C2_3 
REMARK    2  A    between atoms: C5_7  and  O3_8 
REMARK    3  A    between atoms: C6_11  and  O5_12 
ROOT
HETATM    1  C2  UNL     1      -4.782   2.438  14.006  1.00  0.00     0.156 C 
HETATM    2  C3  UNL     1      -4.061   3.688  14.387  1.00  0.00     0.200 C 
HETATM    3  O2  UNL     1      -3.738   4.384  13.255  1.00  0.00    -0.378 OA
HETATM    4  C4  UNL     1      -3.981   3.632  12.153  1.00  0.00     0.188 C 
HETATM    5  C5  UNL     1      -2.862   2.725  11.743  1.00  0.00     0.289 C 
HETATM    6  O4  UNL     1      -3.286   1.417  11.964  1.00  0.00    -0.329 OA
HETATM    7  C6  UNL     1      -4.656   1.480  11.691  1.00  0.00     0.269 C 
HETATM    8  C7  UNL     1      -5.073   2.646  12.542  1.00  0.00     0.106 C 
ENDROOT
BRANCH   1   9
HETATM    9  O1  UNL     1      -4.039   1.312  14.256  1.00  0.00    -0.388 OA
HETATM   10  C1  UNL     1      -4.550   0.621  15.359  1.00  0.00     0.202 C 
ENDBRANCH   1   9
BRANCH   7  11
HETATM   11  O5  UNL     1      -4.811   1.861  10.357  1.00  0.00    -0.371 OA
ATOM     12  H5  UNL     1      -5.566   1.403  10.008  1.00  0.00     0.212 HD
ENDBRANCH   7  11
BRANCH   5  13
HETATM   13  O3  UNL     1      -1.670   2.981  12.412  1.00  0.00    -0.368 OA
ATOM     14  H3  UNL     1      -1.044   2.269  12.356  1.00  0.00     0.212 HD
ENDBRANCH   5  13
TORSDOF 3
ENDMDL
MODEL 4
REMARK VINA RESULT: -4.799590032      1.931      3.402
REMARK  3 active torsions:
REMARK  status: ('A' for Active; 'I' for Inactive)
REMARK    1  A    between atoms: O1_2  and  C2_3 
REMARK    2  A    between atoms: C5_7  and  O3_8 
REMARK    3  A    between atoms: C6_11  and  O5_12 
ROOT
HETATM    1  C2  UNL     1      -4.372   3.442  13.650  1.00  0.00     0.156 C 
HETATM    2  C3  UNL     1      -4.615   1.996  13.932  1.00  0.00     0.200 C 
HETATM    3  O2  UNL     1      -3.994   1.241  12.976  1.00  0.00    -0.378 OA
HETATM    4  C4  UNL     1      -3.540   2.032  11.971  1.00  0.00     0.188 C 
HETATM    5  C5  UNL     1      -4.537   2.322  10.892  1.00  0.00     0.289 C 
HETATM    6  O4  UNL     1      -4.855   3.676  10.973  1.00  0.00    -0.329 OA
HETATM    7  C6  UNL     1      -3.652   4.256  11.389  1.00  0.00     0.269 C 
HETATM    8  C7  UNL     1      -3.311   3.406  12.581  1.00  0.00     0.106 C 
ENDROOT
BRANCH   1   9
HETATM    9  O1  UNL     1      -5.515   4.094  13.258  1.00  0.00    -0.388 OA
HETATM   10  C1  UNL     1      -6.223   4.556  14.371  1.00  0.00     0.202 C 
ENDBRANCH   1   9
BRANCH   7  11
HETATM   11  O5  UNL     1      -2.691   4.003  10.408  1.00  0.00    -0.371 OA
ATOM     12  H5  UNL     1      -2.493   4.824   9.975  1.00  0.00     0.212 HD
ENDBRANCH   7  11
BRANCH   5  13
HETATM   13  O3  UNL     1      -5.682   1.537  10.971  1.00  0.00    -0.368 OA
ATOM     14  H3  UNL     1      -6.358   1.791  10.355  1.00  0.00     0.212 HD
ENDBRANCH   5  13
TORSDOF 3
ENDMDL
MODEL 5
REMARK VINA RESULT: -4.788503649      1.301      3.405
REMARK  3 active torsions:
REMARK  status: ('A' for Active; 'I' for Inactive)
REMARK    1  A    between atoms: O1_2  and  C2_3 
REMARK    2  A    between atoms: C5_7  and  O3_8 
REMARK    3  A    between atoms: C6_11  and  O5_12 
ROOT
HETATM    1  C2  UNL     1      -4.929   2.073  11.350  1.00  0.00     0.156 C 
HETATM    2  C3  UNL     1      -4.428   1.434  12.602  1.00  0.00     0.200 C 
HETATM    3  O2  UNL     1      -3.408   2.188  13.115  1.00  0.00    -0.378 OA
HETATM    4  C4  UNL     1      -3.038   3.146  12.229  1.00  0.00     0.188 C 
HETATM    5  C5  UNL     1      -2.021   2.716  11.217  1.00  0.00     0.289 C 
HETATM    6  O4  UNL     1      -2.654   2.694   9.976  1.00  0.00    -0.329 OA
HETATM    7  C6  UNL     1      -3.567   3.747  10.071  1.00  0.00     0.269 C 
HETATM    8  C7  UNL     1      -4.259   3.423  11.365  1.00  0.00     0.106 C 
ENDROOT
BRANCH   1   9
HETATM    9  O1  UNL     1      -4.632   1.333  10.233  1.00  0.00    -0.388 OA
HETATM   10  C1  UNL     1      -4.618  -0.031  10.538  1.00  0.00     0.202 C 
ENDBRANCH   1   9
BRANCH   7  11
HETATM   11  O5  UNL     1      -2.846   4.926  10.269  1.00  0.00    -0.371 OA
ATOM     12  H5  UNL     1      -3.371   5.503  10.811  1.00  0.00     0.212 HD
ENDBRANCH   7  11
BRANCH   5  13
HETATM   13  O3  UNL     1      -1.444   1.483  11.502  1.00  0.00    -0.368 OA
ATOM     14  H3  UNL     1      -0.733   1.253  10.916  1.00  0.00     0.212 HD
ENDBRANCH   5  13
TORSDOF 3
ENDMDL
