MODEL 1
REMARK VINA RESULT: -5.638882173      0.000      0.000
REMARK  3 active torsions:
REMARK  status: ('A' for Active; 'I' for Inactive)
REMARK    1  A    between atoms: O1_1  and  C1_3 
REMARK    2  A    between atoms: C1_3  and  O2_4 
REMARK    3  A    between atoms: C1_3  and  C2_6 
ROOT
HETATM    1  C2  UNL     1      -5.301   2.060  16.294  1.00  0.00     0.182 C 
HETATM    2  C3  UNL     1      -6.135   2.972  15.410  1.00  0.00     0.101 C 
HETATM    3  C4  UNL     1      -5.174   3.396  14.369  1.00  0.00     0.364 C 
HETATM    4  O3  UNL     1      -5.596   4.303  13.449  1.00  0.00    -0.355 OA
HETATM    5  C5  UNL     1      -4.478   4.257  12.578  1.00  0.00     0.201 C 
HETATM    6  C6  UNL     1      -4.124   2.766  12.503  1.00  0.00     0.304 C 
HETATM    7  N1  UNL     1      -4.960   2.216  13.516  1.00  0.00     0.142 N 
HETATM    8  C7  UNL     1      -4.425   1.191  14.313  1.00  0.00     0.444 C 
HETATM    9  O4  UNL     1      -4.316   1.396  15.646  1.00  0.00    -0.352 OA
ENDROOT
BRANCH   1  10
HETATM   10  C1  UNL     1      -6.179   1.195  17.170  1.00  0.00     0.282 C 
BRANCH  10  11
HETATM   11  O1  UNL     1      -7.183   0.574  16.429  1.00  0.00    -0.369 OA
ATOM     12  H1  UNL     1      -7.483   1.188  15.768  1.00  0.00     0.212 HD
ENDBRANCH  10  11
BRANCH  10  13
HETATM   13  O2  UNL     1      -5.377   0.205  17.719  1.00  0.00    -0.369 OA
ATOM     14  H2  UNL     1      -4.559   0.606  17.992  1.00  0.00     0.212 HD
ENDBRANCH  10  13
ENDBRANCH   1  10
TORSDOF 3
ENDMDL
MODEL 2
REMARK VINA RESULT: -5.407253137      1.788      2.161
REMARK  3 active torsions:
REMARK  status: ('A' for Active; 'I' for Inactive)
REMARK    1  A    between atoms: O1_1  and  C1_3 
REMARK    2  A    between atoms: C1_3  and  O2_4 
REMARK    3  A    between atoms: C1_3  and  C2_6 
ROOT
HETATM    1  C2  UNL     1      -5.628   1.615  15.761  1.00  0.00     0.182 C 
HETATM    2  C3  UNL     1      -4.241   2.154  16.072  1.00  0.00     0.101 C 
HETATM    3  C4  UNL     1      -4.007   3.122  14.978  1.00  0.00     0.364 C 
HETATM    4  O3  UNL     1      -2.794   3.731  14.919  1.00  0.00    -0.355 OA
HETATM    5  C5  UNL     1      -3.079   4.672  13.899  1.00  0.00     0.201 C 
HETATM    6  C6  UNL     1      -4.492   5.169  14.231  1.00  0.00     0.304 C 
HETATM    7  N1  UNL     1      -4.880   4.272  15.267  1.00  0.00     0.142 N 
HETATM    8  C7  UNL     1      -6.210   3.821  15.270  1.00  0.00     0.444 C 
HETATM    9  O4  UNL     1      -6.446   2.495  15.140  1.00  0.00    -0.352 OA
ENDROOT
BRANCH   1  10
HETATM   10  C1  UNL     1      -6.230   0.930  16.967  1.00  0.00     0.282 C 
BRANCH  10  11
HETATM   11  O1  UNL     1      -7.618   0.848  16.865  1.00  0.00    -0.369 OA
ATOM     12  H1  UNL     1      -7.994   1.281  17.622  1.00  0.00     0.212 HD
ENDBRANCH  10  11
BRANCH  10  13
HETATM   13  O2  UNL     1      -5.726  -0.362  17.009  1.00  0.00    -0.369 OA
ATOM     14  H2  UNL     1      -5.118  -0.465  16.285  1.00  0.00     0.212 HD
ENDBRANCH  10  13
ENDBRANCH   1  10
TORSDOF 3
ENDMDL
MODEL 3
REMARK VINA RESULT: -5.394472075      1.384      1.872
REMARK  3 active torsions:
REMARK  status: ('A' for Active; 'I' for Inactive)
REMARK    1  A    between atoms: O1_1  and  C1_3 
REMARK    2  A    between atoms: C1_3  and  O2_4 
REMARK    3  A    between atoms: C1_3  and  C2_6 
ROOT
HETATM    1  C2  UNL     1      -4.813   2.642  15.759  1.00  0.00     0.182 C 
HETATM    2  C3  UNL     1      -6.114   3.124  15.139  1.00  0.00     0.101 C 
HETATM    3  C4  UNL     1      -5.706   4.353  14.424  1.00  0.00     0.364 C 
HETATM    4  O3  UNL     1      -6.677   5.086  13.818  1.00  0.00    -0.355 OA
HETATM    5  C5  UNL     1      -5.849   6.003  13.124  1.00  0.00     0.201 C 
HETATM    6  C6  UNL     1      -4.696   5.140  12.596  1.00  0.00     0.304 C 
HETATM    7  N1  UNL     1      -4.933   3.900  13.256  1.00  0.00     0.142 N 
HETATM    8  C7  UNL     1      -3.815   3.190  13.722  1.00  0.00     0.444 C 
HETATM    9  O4  UNL     1      -3.704   2.951  15.049  1.00  0.00    -0.352 OA
ENDROOT
BRANCH   1  10
HETATM   10  C1  UNL     1      -4.913   1.193  16.181  1.00  0.00     0.282 C 
BRANCH  10  11
HETATM   11  O1  UNL     1      -3.669   0.566  16.145  1.00  0.00    -0.369 OA
ATOM     12  H1  UNL     1      -3.155   0.971  15.457  1.00  0.00     0.212 HD
ENDBRANCH  10  11
BRANCH  10  13
HETATM   13  O2  UNL     1      -5.369   1.170  17.491  1.00  0.00    -0.369 OA
ATOM     14  H2  UNL     1      -6.319   1.147  17.472  1.00  0.00     0.212 HD
ENDBRANCH  10  13
ENDBRANCH   1  10
TORSDOF 3
ENDMDL
MODEL 4
REMARK VINA RESULT: -5.387330460      1.548      2.120
REMARK  3 active torsions:
REMARK  status: ('A' for Active; 'I' for Inactive)
REMARK    1  A    between atoms: O1_1  and  C1_3 
REMARK    2  A    between atoms: C1_3  and  O2_4 
REMARK    3  A    between atoms: C1_3  and  C2_6 
ROOT
HETATM    1  C2  UNL     1      -5.248   1.892  15.053  1.00  0.00     0.182 C 
HETATM    2  C3  UNL     1      -4.488   1.346  13.856  1.00  0.00     0.101 C 
HETATM    3  C4  UNL     1      -4.560   2.457  12.882  1.00  0.00     0.364 C 
HETATM    4  O3  UNL     1      -4.032   2.251  11.647  1.00  0.00    -0.355 OA
HETATM    5  C5  UNL     1      -4.132   3.575  11.150  1.00  0.00     0.201 C 
HETATM    6  C6  UNL     1      -3.721   4.453  12.339  1.00  0.00     0.304 C 
HETATM    7  N1  UNL     1      -3.658   3.501  13.397  1.00  0.00     0.142 N 
HETATM    8  C7  UNL     1      -4.129   3.901  14.658  1.00  0.00     0.444 C 
HETATM    9  O4  UNL     1      -5.173   3.234  15.203  1.00  0.00    -0.352 OA
ENDROOT
BRANCH   1  10
HETATM   10  C1  UNL     1      -4.945   1.096  16.302  1.00  0.00     0.282 C 
BRANCH  10  11
HETATM   11  O1  UNL     1      -5.727  -0.056  16.375  1.00  0.00    -0.369 OA
ATOM     12  H1  UNL     1      -6.515   0.092  15.866  1.00  0.00     0.212 HD
ENDBRANCH  10  11
BRANCH  10  13
HETATM   13  O2  UNL     1      -3.614   0.708  16.239  1.00  0.00    -0.369 OA
ATOM     14  H2  UNL     1      -3.154   1.113  16.965  1.00  0.00     0.212 HD
ENDBRANCH  10  13
ENDBRANCH   1  10
TORSDOF 3
ENDMDL
MODEL 5
REMARK VINA RESULT: -5.191895745      1.903      4.152
REMARK  3 active torsions:
REMARK  status: ('A' for Active; 'I' for Inactive)
REMARK    1  A    between atoms: O1_1  and  C1_3 
REMARK    2  A    between atoms: C1_3  and  O2_4 
REMARK    3  A    between atoms: C1_3  and  C2_6 
ROOT
HETATM    1  C2  UNL     1      -4.861   2.371  13.645  1.00  0.00     0.182 C 
HETATM    2  C3  UNL     1      -5.272   3.222  14.835  1.00  0.00     0.101 C 
HETATM    3  C4  UNL     1      -6.062   2.282  15.659  1.00  0.00     0.364 C 
HETATM    4  O3  UNL     1      -6.655   2.768  16.782  1.00  0.00    -0.355 OA
HETATM    5  C5  UNL     1      -7.102   1.541  17.333  1.00  0.00     0.201 C 
HETATM    6  C6  UNL     1      -5.935   0.575  17.092  1.00  0.00     0.304 C 
HETATM    7  N1  UNL     1      -5.088   1.346  16.245  1.00  0.00     0.142 N 
HETATM    8  C7  UNL     1      -4.440   0.677  15.194  1.00  0.00     0.444 C 
HETATM    9  O4  UNL     1      -4.704   1.056  13.922  1.00  0.00    -0.352 OA
ENDROOT
BRANCH   1  10
HETATM   10  C1  UNL     1      -3.712   3.003  12.892  1.00  0.00     0.282 C 
BRANCH  10  11
HETATM   11  O1  UNL     1      -2.847   3.675  13.753  1.00  0.00    -0.369 OA
ATOM     12  H1  UNL     1      -2.586   4.486  13.334  1.00  0.00     0.212 HD
ENDBRANCH  10  11
BRANCH  10  13
HETATM   13  O2  UNL     1      -3.001   1.981  12.279  1.00  0.00    -0.369 OA
ATOM     14  H2  UNL     1      -3.617   1.442  11.797  1.00  0.00     0.212 HD
ENDBRANCH  10  13
ENDBRANCH   1  10
TORSDOF 3
ENDMDL
