MODEL 1
REMARK VINA RESULT: -6.793387956      0.000      0.000
REMARK  9 active torsions:
REMARK  status: ('A' for Active; 'I' for Inactive)
REMARK    1  A    between atoms: C2_2  and  C3_3 
REMARK    2  A    between atoms: C3_3  and  C4_4 
REMARK    3  A    between atoms: C4_4  and  C5_5 
REMARK    4  A    between atoms: C5_5  and  C6_6 
REMARK    5  A    between atoms: C10_10  and  O1_11 
REMARK    6  A    between atoms: O1_11  and  C11_12 
REMARK    7  A    between atoms: C14_15  and  C15_16 
REMARK    8  A    between atoms: C15_16  and  C16_17 
REMARK    9  A    between atoms: C16_17  and  O2_18 
ROOT
HETATM    1  C6  UNL     1      29.548  48.936  19.537  1.00  0.00    -0.051 A 
HETATM    2  C7  UNL     1      29.688  48.775  20.923  1.00  0.00     0.017 A 
HETATM    3  C8  UNL     1      28.980  47.869  21.667  1.00  0.00    -0.028 A 
HETATM    4  C9  UNL     1      29.191  47.764  23.136  1.00  0.00     0.051 C 
HETATM    5  C10 UNL     1      28.081  47.072  21.005  1.00  0.00     0.075 A 
HETATM    6  C13 UNL     1      27.922  47.207  19.648  1.00  0.00     0.045 A 
HETATM    7  C14 UNL     1      28.644  48.134  18.896  1.00  0.00    -0.047 A 
ENDROOT
BRANCH   1   8
HETATM    8  C5  UNL     1      30.441  49.905  18.860  1.00  0.00     0.039 C 
BRANCH   8   9
HETATM    9  C4  UNL     1      31.892  49.516  18.939  1.00  0.00     0.005 C 
BRANCH   9  10
HETATM   10  C3  UNL     1      32.159  48.324  18.076  1.00  0.00    -0.000 C 
BRANCH  10  11
HETATM   11  C2  UNL     1      32.946  47.260  18.778  1.00  0.00    -0.005 C 
HETATM   12  C1  UNL     1      32.897  45.964  18.015  1.00  0.00     0.005 C 
ENDBRANCH  10  11
ENDBRANCH   9  10
ENDBRANCH   8   9
ENDBRANCH   1   8
BRANCH   7  13
HETATM   13  C15 UNL     1      28.384  48.297  17.455  1.00  0.00     0.065 C 
BRANCH  13  14
HETATM   14  C16 UNL     1      26.932  48.469  17.098  1.00  0.00     0.168 C 
BRANCH  14  15
HETATM   15  O2  UNL     1      26.828  49.127  15.852  1.00  0.00    -0.401 OA
ATOM     16  H2  UNL     1      27.518  48.823  15.274  1.00  0.00     0.209 HD
ENDBRANCH  14  15
ENDBRANCH  13  14
ENDBRANCH   7  13
BRANCH   5  17
HETATM   17  O1  UNL     1      27.341  46.147  21.673  1.00  0.00    -0.351 OA
BRANCH  17  18
HETATM   18  C11 UNL     1      26.001  46.110  21.982  1.00  0.00     0.171 C 
HETATM   19  C12 UNL     1      25.564  46.850  23.193  1.00  0.00     0.034 C 
ENDBRANCH  17  18
ENDBRANCH   5  17
TORSDOF 9
ENDMDL
MODEL 2
REMARK VINA RESULT: -6.596198826      1.077      1.237
REMARK  9 active torsions:
REMARK  status: ('A' for Active; 'I' for Inactive)
REMARK    1  A    between atoms: C2_2  and  C3_3 
REMARK    2  A    between atoms: C3_3  and  C4_4 
REMARK    3  A    between atoms: C4_4  and  C5_5 
REMARK    4  A    between atoms: C5_5  and  C6_6 
REMARK    5  A    between atoms: C10_10  and  O1_11 
REMARK    6  A    between atoms: O1_11  and  C11_12 
REMARK    7  A    between atoms: C14_15  and  C15_16 
REMARK    8  A    between atoms: C15_16  and  C16_17 
REMARK    9  A    between atoms: C16_17  and  O2_18 
ROOT
HETATM    1  C6  UNL     1      29.410  48.910  19.685  1.00  0.00    -0.051 A 
HETATM    2  C7  UNL     1      29.517  48.599  21.048  1.00  0.00     0.017 A 
HETATM    3  C8  UNL     1      28.880  47.544  21.647  1.00  0.00    -0.028 A 
HETATM    4  C9  UNL     1      29.048  47.284  23.102  1.00  0.00     0.051 C 
HETATM    5  C10 UNL     1      28.092  46.748  20.854  1.00  0.00     0.075 A 
HETATM    6  C13 UNL     1      27.969  47.029  19.516  1.00  0.00     0.045 A 
HETATM    7  C14 UNL     1      28.618  48.106  18.912  1.00  0.00    -0.047 A 
ENDROOT
BRANCH   1   8
HETATM    8  C5  UNL     1      30.222  50.037  19.168  1.00  0.00     0.039 C 
BRANCH   8   9
HETATM    9  C4  UNL     1      31.700  49.757  19.203  1.00  0.00     0.005 C 
BRANCH   9  10
HETATM   10  C3  UNL     1      32.074  48.802  18.114  1.00  0.00    -0.000 C 
BRANCH  10  11
HETATM   11  C2  UNL     1      32.644  47.518  18.634  1.00  0.00    -0.005 C 
HETATM   12  C1  UNL     1      31.865  46.337  18.121  1.00  0.00     0.005 C 
ENDBRANCH  10  11
ENDBRANCH   9  10
ENDBRANCH   8   9
ENDBRANCH   1   8
BRANCH   7  13
HETATM   13  C15 UNL     1      28.393  48.416  17.489  1.00  0.00     0.065 C 
BRANCH  13  14
HETATM   14  C16 UNL     1      26.947  48.436  17.075  1.00  0.00     0.168 C 
BRANCH  14  15
HETATM   15  O2  UNL     1      26.820  49.103  15.836  1.00  0.00    -0.401 OA
ATOM     16  H2  UNL     1      26.266  49.867  15.943  1.00  0.00     0.209 HD
ENDBRANCH  14  15
ENDBRANCH  13  14
ENDBRANCH   7  13
BRANCH   5  17
HETATM   17  O1  UNL     1      27.428  45.681  21.375  1.00  0.00    -0.351 OA
BRANCH  17  18
HETATM   18  C11 UNL     1      27.522  44.335  21.103  1.00  0.00     0.171 C 
HETATM   19  C12 UNL     1      26.379  43.705  20.398  1.00  0.00     0.034 C 
ENDBRANCH  17  18
ENDBRANCH   5  17
TORSDOF 9
ENDMDL
MODEL 3
REMARK VINA RESULT: -6.332719238      2.232      5.525
REMARK  9 active torsions:
REMARK  status: ('A' for Active; 'I' for Inactive)
REMARK    1  A    between atoms: C2_2  and  C3_3 
REMARK    2  A    between atoms: C3_3  and  C4_4 
REMARK    3  A    between atoms: C4_4  and  C5_5 
REMARK    4  A    between atoms: C5_5  and  C6_6 
REMARK    5  A    between atoms: C10_10  and  O1_11 
REMARK    6  A    between atoms: O1_11  and  C11_12 
REMARK    7  A    between atoms: C14_15  and  C15_16 
REMARK    8  A    between atoms: C15_16  and  C16_17 
REMARK    9  A    between atoms: C16_17  and  O2_18 
ROOT
HETATM    1  C6  UNL     1      29.769  48.322  19.365  1.00  0.00    -0.051 A 
HETATM    2  C7  UNL     1      28.408  48.351  19.028  1.00  0.00     0.017 A 
HETATM    3  C8  UNL     1      27.930  48.231  17.750  1.00  0.00    -0.028 A 
HETATM    4  C9  UNL     1      26.467  48.273  17.480  1.00  0.00     0.051 C 
HETATM    5  C10 UNL     1      28.848  48.071  16.743  1.00  0.00     0.075 A 
HETATM    6  C13 UNL     1      30.188  48.039  17.043  1.00  0.00     0.045 A 
HETATM    7  C14 UNL     1      30.669  48.164  18.347  1.00  0.00    -0.047 A 
ENDROOT
BRANCH   1   8
HETATM    8  C5  UNL     1      30.127  48.385  20.801  1.00  0.00     0.039 C 
BRANCH   8   9
HETATM    9  C4  UNL     1      28.922  48.422  21.702  1.00  0.00     0.005 C 
BRANCH   9  10
HETATM   10  C3  UNL     1      29.151  47.572  22.912  1.00  0.00    -0.000 C 
BRANCH  10  11
HETATM   11  C2  UNL     1      27.983  47.562  23.848  1.00  0.00    -0.005 C 
HETATM   12  C1  UNL     1      26.716  47.198  23.124  1.00  0.00     0.005 C 
ENDBRANCH  10  11
ENDBRANCH   9  10
ENDBRANCH   8   9
ENDBRANCH   1   8
BRANCH   7  13
HETATM   13  C15 UNL     1      32.118  48.202  18.612  1.00  0.00     0.065 C 
BRANCH  13  14
HETATM   14  C16 UNL     1      32.878  47.008  18.102  1.00  0.00     0.168 C 
BRANCH  14  15
HETATM   15  O2  UNL     1      33.600  47.368  16.942  1.00  0.00    -0.401 OA
ATOM     16  H2  UNL     1      33.001  47.715  16.291  1.00  0.00     0.209 HD
ENDBRANCH  14  15
ENDBRANCH  13  14
ENDBRANCH   7  13
BRANCH   5  17
HETATM   17  O1  UNL     1      28.452  47.944  15.448  1.00  0.00    -0.351 OA
BRANCH  17  18
HETATM   18  C11 UNL     1      28.343  46.837  14.639  1.00  0.00     0.171 C 
HETATM   19  C12 UNL     1      28.106  45.532  15.305  1.00  0.00     0.034 C 
ENDBRANCH  17  18
ENDBRANCH   5  17
TORSDOF 9
ENDMDL
MODEL 4
REMARK VINA RESULT: -6.169301768      2.107      2.842
REMARK  9 active torsions:
REMARK  status: ('A' for Active; 'I' for Inactive)
REMARK    1  A    between atoms: C2_2  and  C3_3 
REMARK    2  A    between atoms: C3_3  and  C4_4 
REMARK    3  A    between atoms: C4_4  and  C5_5 
REMARK    4  A    between atoms: C5_5  and  C6_6 
REMARK    5  A    between atoms: C10_10  and  O1_11 
REMARK    6  A    between atoms: O1_11  and  C11_12 
REMARK    7  A    between atoms: C14_15  and  C15_16 
REMARK    8  A    between atoms: C15_16  and  C16_17 
REMARK    9  A    between atoms: C16_17  and  O2_18 
ROOT
HETATM    1  C6  UNL     1      28.928  47.596  20.841  1.00  0.00    -0.051 A 
HETATM    2  C7  UNL     1      28.143  47.678  22.000  1.00  0.00     0.017 A 
HETATM    3  C8  UNL     1      27.060  46.878  22.253  1.00  0.00    -0.028 A 
HETATM    4  C9  UNL     1      26.281  47.032  23.511  1.00  0.00     0.051 C 
HETATM    5  C10 UNL     1      26.733  45.939  21.308  1.00  0.00     0.075 A 
HETATM    6  C13 UNL     1      27.484  45.836  20.163  1.00  0.00     0.045 A 
HETATM    7  C14 UNL     1      28.584  46.655  19.909  1.00  0.00    -0.047 A 
ENDROOT
BRANCH   1   8
HETATM    8  C5  UNL     1      30.115  48.478  20.746  1.00  0.00     0.039 C 
BRANCH   8   9
HETATM    9  C4  UNL     1      29.799  49.819  20.140  1.00  0.00     0.005 C 
BRANCH   9  10
HETATM   10  C3  UNL     1      30.717  50.100  18.993  1.00  0.00    -0.000 C 
BRANCH  10  11
HETATM   11  C2  UNL     1      31.955  49.257  19.016  1.00  0.00    -0.005 C 
HETATM   12  C1  UNL     1      32.101  48.479  17.737  1.00  0.00     0.005 C 
ENDBRANCH  10  11
ENDBRANCH   9  10
ENDBRANCH   8   9
ENDBRANCH   1   8
BRANCH   7  13
HETATM   13  C15 UNL     1      29.312  46.561  18.632  1.00  0.00     0.065 C 
BRANCH  13  14
HETATM   14  C16 UNL     1      29.541  45.155  18.146  1.00  0.00     0.168 C 
BRANCH  14  15
HETATM   15  O2  UNL     1      30.895  45.000  17.776  1.00  0.00    -0.401 OA
ATOM     16  H2  UNL     1      31.434  44.947  18.557  1.00  0.00     0.209 HD
ENDBRANCH  14  15
ENDBRANCH  13  14
ENDBRANCH   7  13
BRANCH   5  17
HETATM   17  O1  UNL     1      25.672  45.106  21.487  1.00  0.00    -0.351 OA
BRANCH  17  18
HETATM   18  C11 UNL     1      24.518  44.939  20.757  1.00  0.00     0.171 C 
HETATM   19  C12 UNL     1      24.100  46.066  19.886  1.00  0.00     0.034 C 
ENDBRANCH  17  18
ENDBRANCH   5  17
TORSDOF 9
ENDMDL
MODEL 5
REMARK VINA RESULT: -6.044549771      2.175      4.221
REMARK  9 active torsions:
REMARK  status: ('A' for Active; 'I' for Inactive)
REMARK    1  A    between atoms: C2_2  and  C3_3 
REMARK    2  A    between atoms: C3_3  and  C4_4 
REMARK    3  A    between atoms: C4_4  and  C5_5 
REMARK    4  A    between atoms: C5_5  and  C6_6 
REMARK    5  A    between atoms: C10_10  and  O1_11 
REMARK    6  A    between atoms: O1_11  and  C11_12 
REMARK    7  A    between atoms: C14_15  and  C15_16 
REMARK    8  A    between atoms: C15_16  and  C16_17 
REMARK    9  A    between atoms: C16_17  and  O2_18 
ROOT
HETATM    1  C6  UNL     1      28.626  47.512  20.526  1.00  0.00    -0.051 A 
HETATM    2  C7  UNL     1      28.906  47.038  19.237  1.00  0.00     0.017 A 
HETATM    3  C8  UNL     1      28.214  46.029  18.621  1.00  0.00    -0.028 A 
HETATM    4  C9  UNL     1      28.578  45.587  17.248  1.00  0.00     0.051 C 
HETATM    5  C10 UNL     1      27.182  45.453  19.318  1.00  0.00     0.075 A 
HETATM    6  C13 UNL     1      26.884  45.896  20.583  1.00  0.00     0.045 A 
HETATM    7  C14 UNL     1      27.595  46.923  21.206  1.00  0.00    -0.047 A 
ENDROOT
BRANCH   1   8
HETATM    8  C5  UNL     1      29.414  48.663  21.026  1.00  0.00     0.039 C 
BRANCH   8   9
HETATM    9  C4  UNL     1      29.751  49.653  19.945  1.00  0.00     0.005 C 
BRANCH   9  10
HETATM   10  C3  UNL     1      31.234  49.798  19.817  1.00  0.00    -0.000 C 
BRANCH  10  11
HETATM   11  C2  UNL     1      31.761  49.279  18.514  1.00  0.00    -0.005 C 
HETATM   12  C1  UNL     1      32.388  47.923  18.690  1.00  0.00     0.005 C 
ENDBRANCH  10  11
ENDBRANCH   9  10
ENDBRANCH   8   9
ENDBRANCH   1   8
BRANCH   7  13
HETATM   13  C15 UNL     1      27.290  47.311  22.594  1.00  0.00     0.065 C 
BRANCH  13  14
HETATM   14  C16 UNL     1      25.858  47.099  23.003  1.00  0.00     0.168 C 
BRANCH  14  15
HETATM   15  O2  UNL     1      25.788  46.049  23.946  1.00  0.00    -0.401 OA
ATOM     16  H2  UNL     1      24.913  46.014  24.316  1.00  0.00     0.209 HD
ENDBRANCH  14  15
ENDBRANCH  13  14
ENDBRANCH   7  13
BRANCH   5  17
HETATM   17  O1  UNL     1      26.446  44.446  18.775  1.00  0.00    -0.351 OA
BRANCH  17  18
HETATM   18  C11 UNL     1      26.423  43.096  19.039  1.00  0.00     0.171 C 
HETATM   19  C12 UNL     1      27.704  42.464  19.441  1.00  0.00     0.034 C 
ENDBRANCH  17  18
ENDBRANCH   5  17
TORSDOF 9
ENDMDL
