MODEL 1
REMARK VINA RESULT: -6.459210717      0.000      0.000
REMARK  8 active torsions:
REMARK  status: ('A' for Active; 'I' for Inactive)
REMARK    1  A    between atoms: C2_2  and  C3_3 
REMARK    2  A    between atoms: C3_3  and  C4_4 
REMARK    3  A    between atoms: C4_4  and  C5_5 
REMARK    4  A    between atoms: C5_5  and  C6_6 
REMARK    5  A    between atoms: C6_6  and  C7_7 
REMARK    6  A    between atoms: C7_7  and  C8_9 
REMARK    7  A    between atoms: C10_11  and  C11_12 
REMARK    8  A    between atoms: C13_14  and  O2_15 
ROOT
HETATM    1  C8  UNL     1      29.363  48.841  19.446  1.00  0.00     0.016 A 
HETATM    2  C9  UNL     1      29.329  48.482  20.807  1.00  0.00     0.025 A 
HETATM    3  C10 UNL     1      28.441  47.563  21.324  1.00  0.00    -0.024 A 
HETATM    4  C13 UNL     1      27.555  46.986  20.441  1.00  0.00     0.072 A 
HETATM    5  C14 UNL     1      27.545  47.300  19.103  1.00  0.00     0.044 A 
HETATM    6  C15 UNL     1      28.469  48.246  18.602  1.00  0.00    -0.045 A 
HETATM    7  C16 UNL     1      28.405  48.540  17.170  1.00  0.00     0.049 C 
ENDROOT
BRANCH   1   8
HETATM    8  C7  UNL     1      30.321  49.798  18.969  1.00  0.00     0.160 C 
HETATM    9  O1  UNL     1      29.939  50.952  18.632  1.00  0.00    -0.292 OA
BRANCH   8  10
HETATM   10  C6  UNL     1      31.787  49.584  18.820  1.00  0.00     0.084 C 
BRANCH  10  11
HETATM   11  C5  UNL     1      32.063  48.428  17.889  1.00  0.00     0.008 C 
BRANCH  11  12
HETATM   12  C4  UNL     1      32.886  47.347  18.544  1.00  0.00     0.004 C 
BRANCH  12  13
HETATM   13  C3  UNL     1      32.474  45.971  18.164  1.00  0.00     0.026 C 
BRANCH  13  14
HETATM   14  C2  UNL     1      31.010  45.987  17.856  1.00  0.00    -0.037 C 
HETATM   15  C1  UNL     1      30.238  44.913  17.903  1.00  0.00     0.007 C 
ENDBRANCH  13  14
ENDBRANCH  12  13
ENDBRANCH  11  12
ENDBRANCH  10  11
ENDBRANCH   8  10
ENDBRANCH   1   8
BRANCH   3  16
HETATM   16  C11 UNL     1      28.443  47.218  22.770  1.00  0.00     0.037 C 
HETATM   17  C12 UNL     1      29.755  47.564  23.434  1.00  0.00     0.010 C 
ENDBRANCH   3  16
BRANCH   4  18
HETATM   18  O2  UNL     1      26.664  46.061  20.976  1.00  0.00    -0.360 OA
ATOM     19  H2  UNL     1      26.266  45.454  20.363  1.00  0.00     0.217 HD
ENDBRANCH   4  18
TORSDOF 8
ENDMDL
MODEL 2
REMARK VINA RESULT: -6.325906614      3.342      6.222
REMARK  8 active torsions:
REMARK  status: ('A' for Active; 'I' for Inactive)
REMARK    1  A    between atoms: C2_2  and  C3_3 
REMARK    2  A    between atoms: C3_3  and  C4_4 
REMARK    3  A    between atoms: C4_4  and  C5_5 
REMARK    4  A    between atoms: C5_5  and  C6_6 
REMARK    5  A    between atoms: C6_6  and  C7_7 
REMARK    6  A    between atoms: C7_7  and  C8_9 
REMARK    7  A    between atoms: C10_11  and  C11_12 
REMARK    8  A    between atoms: C13_14  and  O2_15 
ROOT
HETATM    1  C8  UNL     1      25.475  45.549  19.952  1.00  0.00     0.016 A 
HETATM    2  C9  UNL     1      24.885  46.138  18.817  1.00  0.00     0.025 A 
HETATM    3  C10 UNL     1      25.284  45.858  17.528  1.00  0.00    -0.024 A 
HETATM    4  C13 UNL     1      26.312  44.956  17.373  1.00  0.00     0.072 A 
HETATM    5  C14 UNL     1      26.924  44.352  18.446  1.00  0.00     0.044 A 
HETATM    6  C15 UNL     1      26.493  44.658  19.757  1.00  0.00    -0.045 A 
HETATM    7  C16 UNL     1      27.186  43.985  20.856  1.00  0.00     0.049 C 
ENDROOT
BRANCH   1   8
HETATM    8  C7  UNL     1      25.006  45.876  21.269  1.00  0.00     0.160 C 
HETATM    9  O1  UNL     1      24.186  45.112  21.848  1.00  0.00    -0.292 OA
BRANCH   8  10
HETATM   10  C6  UNL     1      25.392  47.066  22.076  1.00  0.00     0.084 C 
BRANCH  10  11
HETATM   11  C5  UNL     1      26.154  46.647  23.310  1.00  0.00     0.008 C 
BRANCH  11  12
HETATM   12  C4  UNL     1      27.452  47.398  23.465  1.00  0.00     0.004 C 
BRANCH  12  13
HETATM   13  C3  UNL     1      28.559  46.853  22.637  1.00  0.00     0.026 C 
BRANCH  13  14
HETATM   14  C2  UNL     1      28.875  47.845  21.564  1.00  0.00    -0.037 C 
HETATM   15  C1  UNL     1      28.639  47.637  20.278  1.00  0.00     0.007 C 
ENDBRANCH  13  14
ENDBRANCH  12  13
ENDBRANCH  11  12
ENDBRANCH  10  11
ENDBRANCH   8  10
ENDBRANCH   1   8
BRANCH   3  16
HETATM   16  C11 UNL     1      24.629  46.508  16.361  1.00  0.00     0.037 C 
HETATM   17  C12 UNL     1      25.024  47.959  16.223  1.00  0.00     0.010 C 
ENDBRANCH   3  16
BRANCH   4  18
HETATM   18  O2  UNL     1      26.705  44.684  16.067  1.00  0.00    -0.360 OA
ATOM     19  H2  UNL     1      27.205  43.887  15.933  1.00  0.00     0.217 HD
ENDBRANCH   4  18
TORSDOF 8
ENDMDL
MODEL 3
REMARK VINA RESULT: -6.293991381      1.932      3.789
REMARK  8 active torsions:
REMARK  status: ('A' for Active; 'I' for Inactive)
REMARK    1  A    between atoms: C2_2  and  C3_3 
REMARK    2  A    between atoms: C3_3  and  C4_4 
REMARK    3  A    between atoms: C4_4  and  C5_5 
REMARK    4  A    between atoms: C5_5  and  C6_6 
REMARK    5  A    between atoms: C6_6  and  C7_7 
REMARK    6  A    between atoms: C7_7  and  C8_9 
REMARK    7  A    between atoms: C10_11  and  C11_12 
REMARK    8  A    between atoms: C13_14  and  O2_15 
ROOT
HETATM    1  C8  UNL     1      27.890  47.270  21.183  1.00  0.00     0.016 A 
HETATM    2  C9  UNL     1      26.699  46.737  20.652  1.00  0.00     0.025 A 
HETATM    3  C10 UNL     1      25.633  46.346  21.434  1.00  0.00    -0.024 A 
HETATM    4  C13 UNL     1      25.769  46.495  22.796  1.00  0.00     0.072 A 
HETATM    5  C14 UNL     1      26.909  47.010  23.366  1.00  0.00     0.044 A 
HETATM    6  C15 UNL     1      27.985  47.404  22.539  1.00  0.00    -0.045 A 
HETATM    7  C16 UNL     1      29.172  47.940  23.207  1.00  0.00     0.049 C 
ENDROOT
BRANCH   1   8
HETATM    8  C7  UNL     1      28.960  47.669  20.313  1.00  0.00     0.160 C 
HETATM    9  O1  UNL     1      29.524  46.810  19.581  1.00  0.00    -0.292 OA
BRANCH   8  10
HETATM   10  C6  UNL     1      29.512  49.043  20.161  1.00  0.00     0.084 C 
BRANCH  10  11
HETATM   11  C5  UNL     1      31.021  49.009  20.119  1.00  0.00     0.008 C 
BRANCH  11  12
HETATM   12  C4  UNL     1      31.572  49.566  18.831  1.00  0.00     0.004 C 
BRANCH  12  13
HETATM   13  C3  UNL     1      31.953  48.522  17.844  1.00  0.00     0.026 C 
BRANCH  13  14
HETATM   14  C2  UNL     1      32.793  47.501  18.543  1.00  0.00    -0.037 C 
HETATM   15  C1  UNL     1      32.857  46.229  18.181  1.00  0.00     0.007 C 
ENDBRANCH  13  14
ENDBRANCH  12  13
ENDBRANCH  11  12
ENDBRANCH  10  11
ENDBRANCH   8  10
ENDBRANCH   1   8
BRANCH   3  16
HETATM   16  C11 UNL     1      24.397  45.787  20.825  1.00  0.00     0.037 C 
HETATM   17  C12 UNL     1      24.206  46.250  19.400  1.00  0.00     0.010 C 
ENDBRANCH   3  16
BRANCH   4  18
HETATM   18  O2  UNL     1      24.685  46.096  23.572  1.00  0.00    -0.360 OA
ATOM     19  H2  UNL     1      24.613  46.493  24.432  1.00  0.00     0.217 HD
ENDBRANCH   4  18
TORSDOF 8
ENDMDL
MODEL 4
REMARK VINA RESULT: -6.286634755      1.645      3.028
REMARK  8 active torsions:
REMARK  status: ('A' for Active; 'I' for Inactive)
REMARK    1  A    between atoms: C2_2  and  C3_3 
REMARK    2  A    between atoms: C3_3  and  C4_4 
REMARK    3  A    between atoms: C4_4  and  C5_5 
REMARK    4  A    between atoms: C5_5  and  C6_6 
REMARK    5  A    between atoms: C6_6  and  C7_7 
REMARK    6  A    between atoms: C7_7  and  C8_9 
REMARK    7  A    between atoms: C10_11  and  C11_12 
REMARK    8  A    between atoms: C13_14  and  O2_15 
ROOT
HETATM    1  C8  UNL     1      27.314  47.188  19.527  1.00  0.00     0.016 A 
HETATM    2  C9  UNL     1      27.995  47.508  20.717  1.00  0.00     0.025 A 
HETATM    3  C10 UNL     1      27.574  47.092  21.962  1.00  0.00    -0.024 A 
HETATM    4  C13 UNL     1      26.430  46.328  22.013  1.00  0.00     0.072 A 
HETATM    5  C14 UNL     1      25.728  45.986  20.881  1.00  0.00     0.044 A 
HETATM    6  C15 UNL     1      26.183  46.427  19.618  1.00  0.00    -0.045 A 
HETATM    7  C16 UNL     1      25.390  46.034  18.453  1.00  0.00     0.049 C 
ENDROOT
BRANCH   1   8
HETATM    8  C7  UNL     1      27.811  47.645  18.259  1.00  0.00     0.160 C 
HETATM    9  O1  UNL     1      27.488  48.788  17.836  1.00  0.00    -0.292 OA
BRANCH   8  10
HETATM   10  C6  UNL     1      28.709  46.895  17.339  1.00  0.00     0.084 C 
BRANCH  10  11
HETATM   11  C5  UNL     1      30.052  46.654  17.984  1.00  0.00     0.008 C 
BRANCH  11  12
HETATM   12  C4  UNL     1      30.886  47.908  18.058  1.00  0.00     0.004 C 
BRANCH  12  13
HETATM   13  C3  UNL     1      31.417  48.193  19.417  1.00  0.00     0.026 C 
BRANCH  13  14
HETATM   14  C2  UNL     1      30.964  49.560  19.821  1.00  0.00    -0.037 C 
HETATM   15  C1  UNL     1      30.317  50.387  19.017  1.00  0.00     0.007 C 
ENDBRANCH  13  14
ENDBRANCH  12  13
ENDBRANCH  11  12
ENDBRANCH  10  11
ENDBRANCH   8  10
ENDBRANCH   1   8
BRANCH   3  16
HETATM   16  C11 UNL     1      28.327  47.457  23.191  1.00  0.00     0.037 C 
HETATM   17  C12 UNL     1      29.815  47.539  22.943  1.00  0.00     0.010 C 
ENDBRANCH   3  16
BRANCH   4  18
HETATM   18  O2  UNL     1      26.017  45.915  23.275  1.00  0.00    -0.360 OA
ATOM     19  H2  UNL     1      25.980  44.977  23.422  1.00  0.00     0.217 HD
ENDBRANCH   4  18
TORSDOF 8
ENDMDL
MODEL 5
REMARK VINA RESULT: -6.226367833      1.093      2.859
REMARK  8 active torsions:
REMARK  status: ('A' for Active; 'I' for Inactive)
REMARK    1  A    between atoms: C2_2  and  C3_3 
REMARK    2  A    between atoms: C3_3  and  C4_4 
REMARK    3  A    between atoms: C4_4  and  C5_5 
REMARK    4  A    between atoms: C5_5  and  C6_6 
REMARK    5  A    between atoms: C6_6  and  C7_7 
REMARK    6  A    between atoms: C7_7  and  C8_9 
REMARK    7  A    between atoms: C10_11  and  C11_12 
REMARK    8  A    between atoms: C13_14  and  O2_15 
ROOT
HETATM    1  C8  UNL     1      29.124  48.748  19.107  1.00  0.00     0.016 A 
HETATM    2  C9  UNL     1      28.168  48.435  18.120  1.00  0.00     0.025 A 
HETATM    3  C10 UNL     1      27.222  47.444  18.274  1.00  0.00    -0.024 A 
HETATM    4  C13 UNL     1      27.238  46.743  19.458  1.00  0.00     0.072 A 
HETATM    5  C14 UNL     1      28.148  47.008  20.454  1.00  0.00     0.044 A 
HETATM    6  C15 UNL     1      29.106  48.030  20.269  1.00  0.00    -0.045 A 
HETATM    7  C16 UNL     1      30.049  48.260  21.364  1.00  0.00     0.049 C 
ENDROOT
BRANCH   1   8
HETATM    8  C7  UNL     1      30.076  49.800  18.890  1.00  0.00     0.160 C 
HETATM    9  O1  UNL     1      29.680  50.994  18.803  1.00  0.00    -0.292 OA
BRANCH   8  10
HETATM   10  C6  UNL     1      31.551  49.644  18.750  1.00  0.00     0.084 C 
BRANCH  10  11
HETATM   11  C5  UNL     1      31.879  48.464  17.867  1.00  0.00     0.008 C 
BRANCH  11  12
HETATM   12  C4  UNL     1      32.655  47.398  18.599  1.00  0.00     0.004 C 
BRANCH  12  13
HETATM   13  C3  UNL     1      32.311  46.015  18.178  1.00  0.00     0.026 C 
BRANCH  13  14
HETATM   14  C2  UNL     1      30.867  45.987  17.791  1.00  0.00    -0.037 C 
HETATM   15  C1  UNL     1      30.103  44.911  17.883  1.00  0.00     0.007 C 
ENDBRANCH  13  14
ENDBRANCH  12  13
ENDBRANCH  11  12
ENDBRANCH  10  11
ENDBRANCH   8  10
ENDBRANCH   1   8
BRANCH   3  16
HETATM   16  C11 UNL     1      26.235  47.150  17.201  1.00  0.00     0.037 C 
HETATM   17  C12 UNL     1      25.263  48.289  16.996  1.00  0.00     0.010 C 
ENDBRANCH   3  16
BRANCH   4  18
HETATM   18  O2  UNL     1      26.278  45.745  19.599  1.00  0.00    -0.360 OA
ATOM     19  H2  UNL     1      26.448  45.085  20.260  1.00  0.00     0.217 HD
ENDBRANCH   4  18
TORSDOF 8
ENDMDL
