MODEL 1
REMARK VINA RESULT: -6.563594643      0.000      0.000
REMARK  8 active torsions:
REMARK  status: ('A' for Active; 'I' for Inactive)
REMARK    1  A    between atoms: C2_2  and  C4_4 
REMARK    2  A    between atoms: C4_4  and  C5_5 
REMARK    3  A    between atoms: C5_5  and  C6_6 
REMARK    4  A    between atoms: C5_5  and  C12_15 
REMARK    5  A    between atoms: C6_6  and  C7_7 
REMARK    6  A    between atoms: C10_10  and  C11_11 
REMARK    7  A    between atoms: C11_11  and  O1_12 
REMARK    8  A    between atoms: C12_15  and  C13_16 
ROOT
HETATM    1  C5  UNL     1      27.907  47.091  20.241  1.00  0.00    -0.007 C 
ENDROOT
BRANCH   1   2
HETATM    2  C4  UNL     1      28.224  47.930  21.477  1.00  0.00     0.009 C 
BRANCH   2   3
HETATM    3  C2  UNL     1      28.537  47.124  22.697  1.00  0.00    -0.022 C 
HETATM    4  C1  UNL     1      27.386  47.363  23.669  1.00  0.00     0.009 C 
HETATM    5  C3  UNL     1      29.793  47.516  23.397  1.00  0.00     0.009 C 
ENDBRANCH   2   3
ENDBRANCH   1   2
BRANCH   1   6
HETATM    6  C6  UNL     1      28.273  47.944  19.082  1.00  0.00     0.069 C 
BRANCH   6   7
HETATM    7  C7  UNL     1      29.721  48.291  18.980  1.00  0.00     0.053 A 
HETATM    8  C8  UNL     1      30.392  49.466  19.090  1.00  0.00     0.035 A 
HETATM    9  C9  UNL     1      31.737  49.219  18.906  1.00  0.00     0.037 A 
HETATM   10  C10 UNL     1      31.797  47.853  18.686  1.00  0.00     0.076 A 
HETATM   11  O2  UNL     1      30.605  47.343  18.737  1.00  0.00    -0.317 OA
BRANCH  10  12
HETATM   12  C11 UNL     1      33.064  47.104  18.432  1.00  0.00     0.229 C 
BRANCH  12  13
HETATM   13  O1  UNL     1      33.504  47.304  17.123  1.00  0.00    -0.394 OA
ATOM     14  H1  UNL     1      33.069  48.051  16.730  1.00  0.00     0.209 HD
ENDBRANCH  12  13
ENDBRANCH  10  12
ENDBRANCH   6   7
ENDBRANCH   1   6
BRANCH   1  15
HETATM   15  C12 UNL     1      26.519  46.622  20.259  1.00  0.00     0.013 C 
BRANCH  15  16
HETATM   16  C13 UNL     1      26.136  45.207  20.256  1.00  0.00    -0.051 C 
HETATM   17  C14 UNL     1      26.148  44.688  18.766  1.00  0.00     0.014 C 
HETATM   18  C15 UNL     1      27.043  44.220  20.942  1.00  0.00     0.014 C 
HETATM   19  C16 UNL     1      24.730  44.932  20.725  1.00  0.00     0.014 C 
ENDBRANCH  15  16
ENDBRANCH   1  15
TORSDOF 8
ENDMDL
MODEL 2
REMARK VINA RESULT: -6.514050884      0.154      1.000
REMARK  8 active torsions:
REMARK  status: ('A' for Active; 'I' for Inactive)
REMARK    1  A    between atoms: C2_2  and  C4_4 
REMARK    2  A    between atoms: C4_4  and  C5_5 
REMARK    3  A    between atoms: C5_5  and  C6_6 
REMARK    4  A    between atoms: C5_5  and  C12_15 
REMARK    5  A    between atoms: C6_6  and  C7_7 
REMARK    6  A    between atoms: C10_10  and  C11_11 
REMARK    7  A    between atoms: C11_11  and  O1_12 
REMARK    8  A    between atoms: C12_15  and  C13_16 
ROOT
HETATM    1  C5  UNL     1      27.911  47.094  20.315  1.00  0.00    -0.007 C 
ENDROOT
BRANCH   1   2
HETATM    2  C4  UNL     1      28.276  47.944  21.529  1.00  0.00     0.009 C 
BRANCH   2   3
HETATM    3  C2  UNL     1      28.600  47.151  22.755  1.00  0.00    -0.022 C 
HETATM    4  C1  UNL     1      27.448  47.387  23.728  1.00  0.00     0.009 C 
HETATM    5  C3  UNL     1      29.852  47.561  23.449  1.00  0.00     0.009 C 
ENDBRANCH   2   3
ENDBRANCH   1   2
BRANCH   1   6
HETATM    6  C6  UNL     1      28.287  47.911  19.134  1.00  0.00     0.069 C 
BRANCH   6   7
HETATM    7  C7  UNL     1      29.747  48.183  18.988  1.00  0.00     0.053 A 
HETATM    8  C8  UNL     1      30.490  49.308  19.146  1.00  0.00     0.035 A 
HETATM    9  C9  UNL     1      31.810  49.000  18.883  1.00  0.00     0.037 A 
HETATM   10  C10 UNL     1      31.780  47.651  18.569  1.00  0.00     0.076 A 
HETATM   11  O2  UNL     1      30.563  47.206  18.641  1.00  0.00    -0.317 OA
BRANCH  10  12
HETATM   12  C11 UNL     1      32.988  46.852  18.206  1.00  0.00     0.229 C 
BRANCH  12  13
HETATM   13  O1  UNL     1      33.541  47.306  17.008  1.00  0.00    -0.394 OA
ATOM     14  H1  UNL     1      34.238  47.930  17.172  1.00  0.00     0.209 HD
ENDBRANCH  12  13
ENDBRANCH  10  12
ENDBRANCH   6   7
ENDBRANCH   1   6
BRANCH   1  15
HETATM   15  C12 UNL     1      26.508  46.674  20.363  1.00  0.00     0.013 C 
BRANCH  15  16
HETATM   16  C13 UNL     1      26.064  45.291  20.165  1.00  0.00    -0.051 C 
HETATM   17  C14 UNL     1      27.034  44.333  20.959  1.00  0.00     0.014 C 
HETATM   18  C15 UNL     1      24.715  44.889  20.701  1.00  0.00     0.014 C 
HETATM   19  C16 UNL     1      26.150  44.797  18.743  1.00  0.00     0.014 C 
ENDBRANCH  15  16
ENDBRANCH   1  15
TORSDOF 8
ENDMDL
MODEL 3
REMARK VINA RESULT: -6.489763593      2.440      5.655
REMARK  8 active torsions:
REMARK  status: ('A' for Active; 'I' for Inactive)
REMARK    1  A    between atoms: C2_2  and  C4_4 
REMARK    2  A    between atoms: C4_4  and  C5_5 
REMARK    3  A    between atoms: C5_5  and  C6_6 
REMARK    4  A    between atoms: C5_5  and  C12_15 
REMARK    5  A    between atoms: C6_6  and  C7_7 
REMARK    6  A    between atoms: C10_10  and  C11_11 
REMARK    7  A    between atoms: C11_11  and  O1_12 
REMARK    8  A    between atoms: C12_15  and  C13_16 
ROOT
HETATM    1  C5  UNL     1      29.102  48.043  20.417  1.00  0.00    -0.007 C 
ENDROOT
BRANCH   1   2
HETATM    2  C4  UNL     1      28.593  48.459  21.795  1.00  0.00     0.009 C 
BRANCH   2   3
HETATM    3  C2  UNL     1      28.766  47.414  22.850  1.00  0.00    -0.022 C 
HETATM    4  C1  UNL     1      27.441  47.351  23.603  1.00  0.00     0.009 C 
HETATM    5  C3  UNL     1      29.827  47.711  23.852  1.00  0.00     0.009 C 
ENDBRANCH   2   3
ENDBRANCH   1   2
BRANCH   1   6
HETATM    6  C6  UNL     1      28.689  46.626  20.256  1.00  0.00     0.069 C 
BRANCH   6   7
HETATM    7  C7  UNL     1      27.238  46.413  19.979  1.00  0.00     0.053 A 
HETATM    8  C8  UNL     1      26.381  46.980  19.093  1.00  0.00     0.035 A 
HETATM    9  C9  UNL     1      25.136  46.409  19.263  1.00  0.00     0.037 A 
HETATM   10  C10 UNL     1      25.328  45.493  20.285  1.00  0.00     0.076 A 
HETATM   11  O2  UNL     1      26.564  45.521  20.678  1.00  0.00    -0.317 OA
BRANCH  10  12
HETATM   12  C11 UNL     1      24.250  44.617  20.830  1.00  0.00     0.229 C 
BRANCH  12  13
HETATM   13  O1  UNL     1      24.681  43.292  20.912  1.00  0.00    -0.394 OA
ATOM     14  H1  UNL     1      24.929  43.073  21.803  1.00  0.00     0.209 HD
ENDBRANCH  12  13
ENDBRANCH  10  12
ENDBRANCH   6   7
ENDBRANCH   1   6
BRANCH   1  15
HETATM   15  C12 UNL     1      30.539  48.294  20.283  1.00  0.00     0.013 C 
BRANCH  15  16
HETATM   16  C13 UNL     1      31.228  48.427  18.996  1.00  0.00    -0.051 C 
HETATM   17  C14 UNL     1      31.926  49.840  18.943  1.00  0.00     0.014 C 
HETATM   18  C15 UNL     1      32.374  47.496  18.699  1.00  0.00     0.014 C 
HETATM   19  C16 UNL     1      30.321  48.426  17.791  1.00  0.00     0.014 C 
ENDBRANCH  15  16
ENDBRANCH   1  15
TORSDOF 8
ENDMDL
MODEL 4
REMARK VINA RESULT: -6.477008812      2.181      5.126
REMARK  8 active torsions:
REMARK  status: ('A' for Active; 'I' for Inactive)
REMARK    1  A    between atoms: C2_2  and  C4_4 
REMARK    2  A    between atoms: C4_4  and  C5_5 
REMARK    3  A    between atoms: C5_5  and  C6_6 
REMARK    4  A    between atoms: C5_5  and  C12_15 
REMARK    5  A    between atoms: C6_6  and  C7_7 
REMARK    6  A    between atoms: C10_10  and  C11_11 
REMARK    7  A    between atoms: C11_11  and  O1_12 
REMARK    8  A    between atoms: C12_15  and  C13_16 
ROOT
HETATM    1  C5  UNL     1      29.166  48.076  20.304  1.00  0.00    -0.007 C 
ENDROOT
BRANCH   1   2
HETATM    2  C4  UNL     1      28.758  48.519  21.706  1.00  0.00     0.009 C 
BRANCH   2   3
HETATM    3  C2  UNL     1      28.830  47.435  22.734  1.00  0.00    -0.022 C 
HETATM    4  C1  UNL     1      27.462  47.400  23.409  1.00  0.00     0.009 C 
HETATM    5  C3  UNL     1      29.842  47.658  23.804  1.00  0.00     0.009 C 
ENDBRANCH   2   3
ENDBRANCH   1   2
BRANCH   1   6
HETATM    6  C6  UNL     1      28.408  46.825  20.049  1.00  0.00     0.069 C 
BRANCH   6   7
HETATM    7  C7  UNL     1      27.143  46.994  19.275  1.00  0.00     0.053 A 
HETATM    8  C8  UNL     1      25.864  46.608  19.512  1.00  0.00     0.035 A 
HETATM    9  C9  UNL     1      25.078  47.026  18.458  1.00  0.00     0.037 A 
HETATM   10  C10 UNL     1      25.970  47.666  17.613  1.00  0.00     0.076 A 
HETATM   11  O2  UNL     1      27.164  47.630  18.120  1.00  0.00    -0.317 OA
BRANCH  10  12
HETATM   12  C11 UNL     1      25.584  48.297  16.316  1.00  0.00     0.229 C 
BRANCH  12  13
HETATM   13  O1  UNL     1      26.632  49.063  15.804  1.00  0.00    -0.394 OA
ATOM     14  H1  UNL     1      26.683  49.903  16.246  1.00  0.00     0.209 HD
ENDBRANCH  12  13
ENDBRANCH  10  12
ENDBRANCH   6   7
ENDBRANCH   1   6
BRANCH   1  15
HETATM   15  C12 UNL     1      30.622  47.959  20.187  1.00  0.00     0.013 C 
BRANCH  15  16
HETATM   16  C13 UNL     1      31.375  48.321  18.982  1.00  0.00    -0.051 C 
HETATM   17  C14 UNL     1      31.856  49.816  19.122  1.00  0.00     0.014 C 
HETATM   18  C15 UNL     1      32.667  47.598  18.702  1.00  0.00     0.014 C 
HETATM   19  C16 UNL     1      30.569  48.316  17.707  1.00  0.00     0.014 C 
ENDBRANCH  15  16
ENDBRANCH   1  15
TORSDOF 8
ENDMDL
MODEL 5
REMARK VINA RESULT: -6.465298357      1.021      1.376
REMARK  8 active torsions:
REMARK  status: ('A' for Active; 'I' for Inactive)
REMARK    1  A    between atoms: C2_2  and  C4_4 
REMARK    2  A    between atoms: C4_4  and  C5_5 
REMARK    3  A    between atoms: C5_5  and  C6_6 
REMARK    4  A    between atoms: C5_5  and  C12_15 
REMARK    5  A    between atoms: C6_6  and  C7_7 
REMARK    6  A    between atoms: C10_10  and  C11_11 
REMARK    7  A    between atoms: C11_11  and  O1_12 
REMARK    8  A    between atoms: C12_15  and  C13_16 
ROOT
HETATM    1  C5  UNL     1      28.383  47.112  20.693  1.00  0.00    -0.007 C 
ENDROOT
BRANCH   1   2
HETATM    2  C4  UNL     1      28.280  46.607  22.130  1.00  0.00     0.009 C 
BRANCH   2   3
HETATM    3  C2  UNL     1      27.496  47.502  23.036  1.00  0.00    -0.022 C 
HETATM    4  C1  UNL     1      28.409  47.812  24.218  1.00  0.00     0.009 C 
HETATM    5  C3  UNL     1      26.253  46.895  23.588  1.00  0.00     0.009 C 
ENDBRANCH   2   3
ENDBRANCH   1   2
BRANCH   1   6
HETATM    6  C6  UNL     1      29.021  48.449  20.789  1.00  0.00     0.069 C 
BRANCH   6   7
HETATM    7  C7  UNL     1      30.258  48.625  19.973  1.00  0.00     0.053 A 
HETATM    8  C8  UNL     1      30.938  49.725  19.565  1.00  0.00     0.035 A 
HETATM    9  C9  UNL     1      32.027  49.315  18.822  1.00  0.00     0.037 A 
HETATM   10  C10 UNL     1      31.931  47.933  18.828  1.00  0.00     0.076 A 
HETATM   11  O2  UNL     1      30.889  47.564  19.508  1.00  0.00    -0.317 OA
BRANCH  10  12
HETATM   12  C11 UNL     1      32.901  47.028  18.144  1.00  0.00     0.229 C 
BRANCH  12  13
HETATM   13  O1  UNL     1      33.372  47.605  16.964  1.00  0.00    -0.394 OA
ATOM     14  H1  UNL     1      33.566  46.939  16.316  1.00  0.00     0.209 HD
ENDBRANCH  12  13
ENDBRANCH  10  12
ENDBRANCH   6   7
ENDBRANCH   1   6
BRANCH   1  15
HETATM   15  C12 UNL     1      27.078  47.088  20.026  1.00  0.00     0.013 C 
BRANCH  15  16
HETATM   16  C13 UNL     1      26.463  45.874  19.481  1.00  0.00    -0.051 C 
HETATM   17  C14 UNL     1      25.853  46.213  18.066  1.00  0.00     0.014 C 
HETATM   18  C15 UNL     1      27.352  44.700  19.168  1.00  0.00     0.014 C 
HETATM   19  C16 UNL     1      25.286  45.353  20.268  1.00  0.00     0.014 C 
ENDBRANCH  15  16
ENDBRANCH   1  15
TORSDOF 8
ENDMDL
