MODEL 1
REMARK VINA RESULT: -6.745512120      0.000      0.000
REMARK  7 active torsions:
REMARK  status: ('A' for Active; 'I' for Inactive)
REMARK    1  A    between atoms: C2_2  and  C3_3 
REMARK    2  A    between atoms: C3_3  and  C4_4 
REMARK    3  A    between atoms: C4_4  and  O1_6 
REMARK    4  A    between atoms: O1_6  and  C6_7 
REMARK    5  A    between atoms: C6_7  and  C7_8 
REMARK    6  A    between atoms: C11_12  and  O2_13 
REMARK    7  A    between atoms: C12_15  and  C13_16 
ROOT
HETATM    1  C7  UNL     1      28.784  46.265  18.892  1.00  0.00    -0.033 A 
HETATM    2  C8  UNL     1      28.466  44.933  18.737  1.00  0.00     0.019 A 
HETATM    3  C9  UNL     1      27.913  44.179  19.751  1.00  0.00    -0.028 A 
HETATM    4  C10 UNL     1      27.562  42.743  19.615  1.00  0.00     0.051 C 
HETATM    5  C11 UNL     1      27.677  44.805  20.963  1.00  0.00     0.078 A 
HETATM    6  C12 UNL     1      27.971  46.125  21.183  1.00  0.00    -0.021 A 
HETATM    7  C16 UNL     1      28.523  46.845  20.141  1.00  0.00     0.019 A 
ENDROOT
BRANCH   1   8
HETATM    8  C6  UNL     1      29.385  47.024  17.790  1.00  0.00     0.206 C 
BRANCH   8   9
HETATM    9  O1  UNL     1      30.662  46.725  17.439  1.00  0.00    -0.382 OA
BRANCH   9  10
HETATM   10  C4  UNL     1      31.661  47.170  18.320  1.00  0.00     0.117 C 
HETATM   11  C5  UNL     1      32.848  46.297  18.095  1.00  0.00     0.039 C 
BRANCH  10  12
HETATM   12  C3  UNL     1      31.899  48.606  18.026  1.00  0.00     0.031 C 
BRANCH  12  13
HETATM   13  C2  UNL     1      31.980  49.584  19.123  1.00  0.00    -0.002 C 
HETATM   14  C1  UNL     1      30.732  49.782  19.880  1.00  0.00     0.005 C 
ENDBRANCH  12  13
ENDBRANCH  10  12
ENDBRANCH   9  10
ENDBRANCH   8   9
ENDBRANCH   1   8
BRANCH   6  15
HETATM   15  C13 UNL     1      27.749  46.797  22.453  1.00  0.00     0.013 C 
HETATM   16  C14 UNL     1      26.348  47.410  22.536  1.00  0.00     0.015 C 
HETATM   17  C15 UNL     1      28.732  47.886  22.772  1.00  0.00     0.015 C 
ENDBRANCH   6  15
BRANCH   5  18
HETATM   18  O2  UNL     1      27.129  44.080  21.981  1.00  0.00    -0.360 OA
ATOM     19  H2  UNL     1      27.698  43.539  22.516  1.00  0.00     0.217 HD
ENDBRANCH   5  18
TORSDOF 7
ENDMDL
MODEL 2
REMARK VINA RESULT: -6.703726417      2.462      5.539
REMARK  7 active torsions:
REMARK  status: ('A' for Active; 'I' for Inactive)
REMARK    1  A    between atoms: C2_2  and  C3_3 
REMARK    2  A    between atoms: C3_3  and  C4_4 
REMARK    3  A    between atoms: C4_4  and  O1_6 
REMARK    4  A    between atoms: O1_6  and  C6_7 
REMARK    5  A    between atoms: C6_7  and  C7_8 
REMARK    6  A    between atoms: C11_12  and  O2_13 
REMARK    7  A    between atoms: C12_15  and  C13_16 
ROOT
HETATM    1  C7  UNL     1      26.265  46.855  19.393  1.00  0.00    -0.033 A 
HETATM    2  C8  UNL     1      25.394  47.179  18.375  1.00  0.00     0.019 A 
HETATM    3  C9  UNL     1      25.774  47.931  17.283  1.00  0.00    -0.028 A 
HETATM    4  C10 UNL     1      24.858  48.297  16.174  1.00  0.00     0.051 C 
HETATM    5  C11 UNL     1      27.086  48.368  17.229  1.00  0.00     0.078 A 
HETATM    6  C12 UNL     1      28.002  48.083  18.207  1.00  0.00    -0.021 A 
HETATM    7  C16 UNL     1      27.581  47.325  19.283  1.00  0.00     0.019 A 
ENDROOT
BRANCH   1   8
HETATM    8  C6  UNL     1      25.812  46.065  20.542  1.00  0.00     0.206 C 
BRANCH   8   9
HETATM    9  O1  UNL     1      26.561  46.109  21.675  1.00  0.00    -0.382 OA
BRANCH   9  10
HETATM   10  C4  UNL     1      26.261  47.148  22.569  1.00  0.00     0.117 C 
HETATM   11  C5  UNL     1      25.148  46.661  23.432  1.00  0.00     0.039 C 
BRANCH  10  12
HETATM   12  C3  UNL     1      27.509  47.466  23.310  1.00  0.00     0.031 C 
BRANCH  12  13
HETATM   13  C2  UNL     1      28.802  46.939  22.847  1.00  0.00    -0.002 C 
HETATM   14  C1  UNL     1      29.720  47.941  22.278  1.00  0.00     0.005 C 
ENDBRANCH  12  13
ENDBRANCH  10  12
ENDBRANCH   9  10
ENDBRANCH   8   9
ENDBRANCH   1   8
BRANCH   6  15
HETATM   15  C13 UNL     1      29.379  48.547  18.179  1.00  0.00     0.013 C 
HETATM   16  C14 UNL     1      30.357  47.459  18.632  1.00  0.00     0.015 C 
HETATM   17  C15 UNL     1      29.652  49.766  19.011  1.00  0.00     0.015 C 
ENDBRANCH   6  15
BRANCH   5  18
HETATM   18  O2  UNL     1      27.486  49.113  16.157  1.00  0.00    -0.360 OA
ATOM     19  H2  UNL     1      28.022  48.701  15.489  1.00  0.00     0.217 HD
ENDBRANCH   5  18
TORSDOF 7
ENDMDL
MODEL 3
REMARK VINA RESULT: -6.683682592      1.825      3.449
REMARK  7 active torsions:
REMARK  status: ('A' for Active; 'I' for Inactive)
REMARK    1  A    between atoms: C2_2  and  C3_3 
REMARK    2  A    between atoms: C3_3  and  C4_4 
REMARK    3  A    between atoms: C4_4  and  O1_6 
REMARK    4  A    between atoms: O1_6  and  C6_7 
REMARK    5  A    between atoms: C6_7  and  C7_8 
REMARK    6  A    between atoms: C11_12  and  O2_13 
REMARK    7  A    between atoms: C12_15  and  C13_16 
ROOT
HETATM    1  C7  UNL     1      28.225  47.488  19.923  1.00  0.00    -0.033 A 
HETATM    2  C8  UNL     1      28.694  47.756  21.191  1.00  0.00     0.019 A 
HETATM    3  C9  UNL     1      28.046  47.322  22.330  1.00  0.00    -0.028 A 
HETATM    4  C10 UNL     1      28.524  47.598  23.707  1.00  0.00     0.051 C 
HETATM    5  C11 UNL     1      26.881  46.592  22.167  1.00  0.00     0.078 A 
HETATM    6  C12 UNL     1      26.362  46.292  20.936  1.00  0.00    -0.021 A 
HETATM    7  C16 UNL     1      27.042  46.744  19.821  1.00  0.00     0.019 A 
ENDROOT
BRANCH   1   8
HETATM    8  C6  UNL     1      28.940  47.983  18.742  1.00  0.00     0.206 C 
BRANCH   8   9
HETATM    9  O1  UNL     1      29.372  49.270  18.757  1.00  0.00    -0.382 OA
BRANCH   9  10
HETATM   10  C4  UNL     1      30.735  49.464  18.483  1.00  0.00     0.117 C 
HETATM   11  C5  UNL     1      31.361  49.937  19.750  1.00  0.00     0.039 C 
BRANCH  10  12
HETATM   12  C3  UNL     1      31.272  48.173  17.985  1.00  0.00     0.031 C 
BRANCH  12  13
HETATM   13  C2  UNL     1      32.548  47.650  18.501  1.00  0.00    -0.002 C 
HETATM   14  C1  UNL     1      32.846  46.254  18.137  1.00  0.00     0.005 C 
ENDBRANCH  12  13
ENDBRANCH  10  12
ENDBRANCH   9  10
ENDBRANCH   8   9
ENDBRANCH   1   8
BRANCH   6  15
HETATM   15  C13 UNL     1      25.131  45.542  20.743  1.00  0.00     0.013 C 
HETATM   16  C14 UNL     1      25.405  44.081  20.373  1.00  0.00     0.015 C 
HETATM   17  C15 UNL     1      24.207  46.100  19.700  1.00  0.00     0.015 C 
ENDBRANCH   6  15
BRANCH   5  18
HETATM   18  O2  UNL     1      26.223  46.150  23.278  1.00  0.00    -0.360 OA
ATOM     19  H2  UNL     1      25.458  45.598  23.167  1.00  0.00     0.217 HD
ENDBRANCH   5  18
TORSDOF 7
ENDMDL
MODEL 4
REMARK VINA RESULT: -6.511281688      0.689      3.066
REMARK  7 active torsions:
REMARK  status: ('A' for Active; 'I' for Inactive)
REMARK    1  A    between atoms: C2_2  and  C3_3 
REMARK    2  A    between atoms: C3_3  and  C4_4 
REMARK    3  A    between atoms: C4_4  and  O1_6 
REMARK    4  A    between atoms: O1_6  and  C6_7 
REMARK    5  A    between atoms: C6_7  and  C7_8 
REMARK    6  A    between atoms: C11_12  and  O2_13 
REMARK    7  A    between atoms: C12_15  and  C13_16 
ROOT
HETATM    1  C7  UNL     1      28.898  46.521  18.789  1.00  0.00    -0.033 A 
HETATM    2  C8  UNL     1      28.495  47.173  19.934  1.00  0.00     0.019 A 
HETATM    3  C9  UNL     1      27.920  46.514  21.002  1.00  0.00    -0.028 A 
HETATM    4  C10 UNL     1      27.475  47.190  22.246  1.00  0.00     0.051 C 
HETATM    5  C11 UNL     1      27.750  45.145  20.896  1.00  0.00     0.078 A 
HETATM    6  C12 UNL     1      28.128  44.437  19.785  1.00  0.00    -0.021 A 
HETATM    7  C16 UNL     1      28.701  45.134  18.739  1.00  0.00     0.019 A 
ENDROOT
BRANCH   1   8
HETATM    8  C6  UNL     1      29.491  47.265  17.674  1.00  0.00     0.206 C 
BRANCH   8   9
HETATM    9  O1  UNL     1      30.826  47.133  17.464  1.00  0.00    -0.382 OA
BRANCH   9  10
HETATM   10  C4  UNL     1      31.655  47.502  18.535  1.00  0.00     0.117 C 
HETATM   11  C5  UNL     1      32.933  46.754  18.363  1.00  0.00     0.039 C 
BRANCH  10  12
HETATM   12  C3  UNL     1      31.805  48.979  18.488  1.00  0.00     0.031 C 
BRANCH  12  13
HETATM   13  C2  UNL     1      31.290  49.813  19.586  1.00  0.00    -0.002 C 
HETATM   14  C1  UNL     1      30.009  50.487  19.313  1.00  0.00     0.005 C 
ENDBRANCH  12  13
ENDBRANCH  10  12
ENDBRANCH   9  10
ENDBRANCH   8   9
ENDBRANCH   1   8
BRANCH   6  15
HETATM   15  C13 UNL     1      27.942  43.002  19.646  1.00  0.00     0.013 C 
HETATM   16  C14 UNL     1      29.115  42.343  18.914  1.00  0.00     0.015 C 
HETATM   17  C15 UNL     1      26.686  42.593  18.932  1.00  0.00     0.015 C 
ENDBRANCH   6  15
BRANCH   5  18
HETATM   18  O2  UNL     1      27.186  44.471  21.939  1.00  0.00    -0.360 OA
ATOM     19  H2  UNL     1      26.596  43.750  21.752  1.00  0.00     0.217 HD
ENDBRANCH   5  18
TORSDOF 7
ENDMDL
MODEL 5
REMARK VINA RESULT: -6.469818002      1.919      6.079
REMARK  7 active torsions:
REMARK  status: ('A' for Active; 'I' for Inactive)
REMARK    1  A    between atoms: C2_2  and  C3_3 
REMARK    2  A    between atoms: C3_3  and  C4_4 
REMARK    3  A    between atoms: C4_4  and  O1_6 
REMARK    4  A    between atoms: O1_6  and  C6_7 
REMARK    5  A    between atoms: C6_7  and  C7_8 
REMARK    6  A    between atoms: C11_12  and  O2_13 
REMARK    7  A    between atoms: C12_15  and  C13_16 
ROOT
HETATM    1  C7  UNL     1      28.943  47.705  20.960  1.00  0.00    -0.033 A 
HETATM    2  C8  UNL     1      29.901  48.678  20.771  1.00  0.00     0.019 A 
HETATM    3  C9  UNL     1      30.589  48.822  19.583  1.00  0.00    -0.028 A 
HETATM    4  C10 UNL     1      31.627  49.857  19.352  1.00  0.00     0.051 C 
HETATM    5  C11 UNL     1      30.290  47.944  18.556  1.00  0.00     0.078 A 
HETATM    6  C12 UNL     1      29.351  46.954  18.679  1.00  0.00    -0.021 A 
HETATM    7  C16 UNL     1      28.683  46.845  19.884  1.00  0.00     0.019 A 
ENDROOT
BRANCH   1   8
HETATM    8  C6  UNL     1      28.247  47.580  22.244  1.00  0.00     0.206 C 
BRANCH   8   9
HETATM    9  O1  UNL     1      26.889  47.601  22.232  1.00  0.00    -0.382 OA
BRANCH   9  10
HETATM   10  C4  UNL     1      26.253  46.417  22.638  1.00  0.00     0.117 C 
HETATM   11  C5  UNL     1      25.369  46.778  23.781  1.00  0.00     0.039 C 
BRANCH  10  12
HETATM   12  C3  UNL     1      25.530  45.879  21.457  1.00  0.00     0.031 C 
BRANCH  12  13
HETATM   13  C2  UNL     1      25.106  46.778  20.372  1.00  0.00    -0.002 C 
HETATM   14  C1  UNL     1      24.290  46.149  19.320  1.00  0.00     0.005 C 
ENDBRANCH  12  13
ENDBRANCH  10  12
ENDBRANCH   9  10
ENDBRANCH   8   9
ENDBRANCH   1   8
BRANCH   6  15
HETATM   15  C13 UNL     1      29.034  46.011  17.620  1.00  0.00     0.013 C 
HETATM   16  C14 UNL     1      27.537  45.693  17.566  1.00  0.00     0.015 C 
HETATM   17  C15 UNL     1      29.765  44.701  17.701  1.00  0.00     0.015 C 
ENDBRANCH   6  15
BRANCH   5  18
HETATM   18  O2  UNL     1      30.957  48.068  17.372  1.00  0.00    -0.360 OA
ATOM     19  H2  UNL     1      31.686  47.485  17.195  1.00  0.00     0.217 HD
ENDBRANCH   5  18
TORSDOF 7
ENDMDL
