MODEL 1
REMARK VINA RESULT: -6.192987562      0.000      0.000
REMARK  9 active torsions:
REMARK  status: ('A' for Active; 'I' for Inactive)
REMARK    1  A    between atoms: C2_2  and  C3_3 
REMARK    2  A    between atoms: C3_3  and  C4_4 
REMARK    3  A    between atoms: C4_4  and  C5_5 
REMARK    4  A    between atoms: C5_5  and  C6_6 
REMARK    5  A    between atoms: C6_6  and  C7_7 
REMARK    6  A    between atoms: C7_7  and  C8_8 
REMARK    7  A    between atoms: C10_10  and  C11_11 
REMARK    8  A    between atoms: C11_11  and  O1_12 
REMARK    9  A    between atoms: C15_17  and  O2_18 
ROOT
HETATM    1  C8  UNL     1      29.561  48.952  19.575  1.00  0.00    -0.024 A 
HETATM    2  C9  UNL     1      28.753  48.997  18.423  1.00  0.00     0.019 A 
HETATM    3  C10 UNL     1      27.694  48.152  18.213  1.00  0.00    -0.028 A 
HETATM    4  C12 UNL     1      27.368  47.203  19.141  1.00  0.00    -0.051 A 
HETATM    5  C13 UNL     1      26.232  46.273  18.950  1.00  0.00     0.049 C 
HETATM    6  C14 UNL     1      28.128  47.130  20.272  1.00  0.00     0.044 A 
HETATM    7  C15 UNL     1      29.215  48.000  20.487  1.00  0.00     0.075 A 
ENDROOT
BRANCH   1   8
HETATM    8  C7  UNL     1      30.701  49.888  19.674  1.00  0.00     0.041 C 
BRANCH   8   9
HETATM    9  C6  UNL     1      31.927  49.568  18.962  1.00  0.00     0.005 C 
BRANCH   9  10
HETATM   10  C5  UNL     1      32.158  48.386  18.153  1.00  0.00     0.001 C 
BRANCH  10  11
HETATM   11  C4  UNL     1      32.906  47.232  18.690  1.00  0.00     0.004 C 
BRANCH  11  12
HETATM   12  C3  UNL     1      32.423  45.904  18.078  1.00  0.00     0.026 C 
BRANCH  12  13
HETATM   13  C2  UNL     1      30.964  46.080  17.848  1.00  0.00    -0.037 C 
HETATM   14  C1  UNL     1      30.159  45.033  17.859  1.00  0.00     0.007 C 
ENDBRANCH  12  13
ENDBRANCH  11  12
ENDBRANCH  10  11
ENDBRANCH   9  10
ENDBRANCH   8   9
ENDBRANCH   1   8
BRANCH   7  15
HETATM   15  O2  UNL     1      29.936  47.871  21.659  1.00  0.00    -0.355 OA
HETATM   16  C16 UNL     1      29.287  47.497  22.850  1.00  0.00     0.210 C 
ENDBRANCH   7  15
BRANCH   3  17
HETATM   17  C11 UNL     1      26.918  48.300  16.955  1.00  0.00     0.203 C 
BRANCH  17  18
HETATM   18  O1  UNL     1      27.541  49.142  16.051  1.00  0.00    -0.396 OA
ATOM     19  H1  UNL     1      27.644  48.740  15.197  1.00  0.00     0.209 HD
ENDBRANCH  17  18
ENDBRANCH   3  17
TORSDOF 9
ENDMDL
MODEL 2
REMARK VINA RESULT: -6.192165279      0.961      3.240
REMARK  9 active torsions:
REMARK  status: ('A' for Active; 'I' for Inactive)
REMARK    1  A    between atoms: C2_2  and  C3_3 
REMARK    2  A    between atoms: C3_3  and  C4_4 
REMARK    3  A    between atoms: C4_4  and  C5_5 
REMARK    4  A    between atoms: C5_5  and  C6_6 
REMARK    5  A    between atoms: C6_6  and  C7_7 
REMARK    6  A    between atoms: C7_7  and  C8_8 
REMARK    7  A    between atoms: C10_10  and  C11_11 
REMARK    8  A    between atoms: C11_11  and  O1_12 
REMARK    9  A    between atoms: C15_17  and  O2_18 
ROOT
HETATM    1  C8  UNL     1      29.583  48.973  19.643  1.00  0.00    -0.024 A 
HETATM    2  C9  UNL     1      29.518  48.314  20.885  1.00  0.00     0.019 A 
HETATM    3  C10 UNL     1      28.577  47.362  21.184  1.00  0.00    -0.028 A 
HETATM    4  C12 UNL     1      27.636  47.002  20.261  1.00  0.00    -0.051 A 
HETATM    5  C13 UNL     1      26.605  45.978  20.547  1.00  0.00     0.049 C 
HETATM    6  C14 UNL     1      27.668  47.618  19.043  1.00  0.00     0.044 A 
HETATM    7  C15 UNL     1      28.636  48.595  18.738  1.00  0.00     0.075 A 
ENDROOT
BRANCH   1   8
HETATM    8  C7  UNL     1      30.616  50.011  19.447  1.00  0.00     0.041 C 
BRANCH   8   9
HETATM    9  C6  UNL     1      31.917  49.610  18.937  1.00  0.00     0.005 C 
BRANCH   9  10
HETATM   10  C5  UNL     1      32.189  48.439  18.124  1.00  0.00     0.001 C 
BRANCH  10  11
HETATM   11  C4  UNL     1      32.944  47.295  18.669  1.00  0.00     0.004 C 
BRANCH  11  12
HETATM   12  C3  UNL     1      32.470  45.959  18.065  1.00  0.00     0.026 C 
BRANCH  12  13
HETATM   13  C2  UNL     1      30.984  46.024  18.073  1.00  0.00    -0.037 C 
HETATM   14  C1  UNL     1      30.271  44.978  17.697  1.00  0.00     0.007 C 
ENDBRANCH  12  13
ENDBRANCH  11  12
ENDBRANCH  10  11
ENDBRANCH   9  10
ENDBRANCH   8   9
ENDBRANCH   1   8
BRANCH   7  15
HETATM   15  O2  UNL     1      28.610  49.173  17.482  1.00  0.00    -0.355 OA
HETATM   16  C16 UNL     1      28.807  48.381  16.336  1.00  0.00     0.210 C 
ENDBRANCH   7  15
BRANCH   3  17
HETATM   17  C11 UNL     1      28.614  46.740  22.531  1.00  0.00     0.203 C 
BRANCH  17  18
HETATM   18  O1  UNL     1      29.761  47.072  23.231  1.00  0.00    -0.396 OA
ATOM     19  H1  UNL     1      29.947  46.456  23.930  1.00  0.00     0.209 HD
ENDBRANCH  17  18
ENDBRANCH   3  17
TORSDOF 9
ENDMDL
MODEL 3
REMARK VINA RESULT: -6.152283332      2.067      3.762
REMARK  9 active torsions:
REMARK  status: ('A' for Active; 'I' for Inactive)
REMARK    1  A    between atoms: C2_2  and  C3_3 
REMARK    2  A    between atoms: C3_3  and  C4_4 
REMARK    3  A    between atoms: C4_4  and  C5_5 
REMARK    4  A    between atoms: C5_5  and  C6_6 
REMARK    5  A    between atoms: C6_6  and  C7_7 
REMARK    6  A    between atoms: C7_7  and  C8_8 
REMARK    7  A    between atoms: C10_10  and  C11_11 
REMARK    8  A    between atoms: C11_11  and  O1_12 
REMARK    9  A    between atoms: C15_17  and  O2_18 
ROOT
HETATM    1  C8  UNL     1      28.510  47.533  20.906  1.00  0.00    -0.024 A 
HETATM    2  C9  UNL     1      27.585  47.545  21.967  1.00  0.00     0.019 A 
HETATM    3  C10 UNL     1      26.364  46.924  21.908  1.00  0.00    -0.028 A 
HETATM    4  C12 UNL     1      25.983  46.246  20.784  1.00  0.00    -0.051 A 
HETATM    5  C13 UNL     1      24.673  45.562  20.683  1.00  0.00     0.049 C 
HETATM    6  C14 UNL     1      26.855  46.211  19.734  1.00  0.00     0.044 A 
HETATM    7  C15 UNL     1      28.109  46.849  19.797  1.00  0.00     0.075 A 
ENDROOT
BRANCH   1   8
HETATM    8  C7  UNL     1      29.780  48.271  21.068  1.00  0.00     0.041 C 
BRANCH   8   9
HETATM    9  C6  UNL     1      29.895  49.594  20.476  1.00  0.00     0.005 C 
BRANCH   9  10
HETATM   10  C5  UNL     1      30.541  49.911  19.216  1.00  0.00     0.001 C 
BRANCH  10  11
HETATM   11  C4  UNL     1      31.932  49.497  18.951  1.00  0.00     0.004 C 
BRANCH  11  12
HETATM   12  C3  UNL     1      31.999  48.331  17.947  1.00  0.00     0.026 C 
BRANCH  12  13
HETATM   13  C2  UNL     1      32.877  47.311  18.581  1.00  0.00    -0.037 C 
HETATM   14  C1  UNL     1      32.894  46.072  18.123  1.00  0.00     0.007 C 
ENDBRANCH  12  13
ENDBRANCH  11  12
ENDBRANCH  10  11
ENDBRANCH   9  10
ENDBRANCH   8   9
ENDBRANCH   1   8
BRANCH   7  15
HETATM   15  O2  UNL     1      28.941  46.766  18.697  1.00  0.00    -0.355 OA
HETATM   16  C16 UNL     1      29.246  45.513  18.133  1.00  0.00     0.210 C 
ENDBRANCH   7  15
BRANCH   3  17
HETATM   17  C11 UNL     1      25.476  47.009  23.095  1.00  0.00     0.203 C 
BRANCH  17  18
HETATM   18  O1  UNL     1      25.725  46.001  24.010  1.00  0.00    -0.396 OA
ATOM     19  H1  UNL     1      25.733  46.320  24.904  1.00  0.00     0.209 HD
ENDBRANCH  17  18
ENDBRANCH   3  17
TORSDOF 9
ENDMDL
MODEL 4
REMARK VINA RESULT: -5.999654137      1.009      1.511
REMARK  9 active torsions:
REMARK  status: ('A' for Active; 'I' for Inactive)
REMARK    1  A    between atoms: C2_2  and  C3_3 
REMARK    2  A    between atoms: C3_3  and  C4_4 
REMARK    3  A    between atoms: C4_4  and  C5_5 
REMARK    4  A    between atoms: C5_5  and  C6_6 
REMARK    5  A    between atoms: C6_6  and  C7_7 
REMARK    6  A    between atoms: C7_7  and  C8_8 
REMARK    7  A    between atoms: C10_10  and  C11_11 
REMARK    8  A    between atoms: C11_11  and  O1_12 
REMARK    9  A    between atoms: C15_17  and  O2_18 
ROOT
HETATM    1  C8  UNL     1      28.881  47.733  20.434  1.00  0.00    -0.024 A 
HETATM    2  C9  UNL     1      28.378  47.901  19.130  1.00  0.00     0.019 A 
HETATM    3  C10 UNL     1      27.163  47.414  18.722  1.00  0.00    -0.028 A 
HETATM    4  C12 UNL     1      26.364  46.726  19.591  1.00  0.00    -0.051 A 
HETATM    5  C13 UNL     1      25.046  46.185  19.189  1.00  0.00     0.049 C 
HETATM    6  C14 UNL     1      26.818  46.543  20.866  1.00  0.00     0.044 A 
HETATM    7  C15 UNL     1      28.066  47.045  21.283  1.00  0.00     0.075 A 
ENDROOT
BRANCH   1   8
HETATM    8  C7  UNL     1      30.223  48.267  20.749  1.00  0.00     0.041 C 
BRANCH   8   9
HETATM    9  C6  UNL     1      30.694  49.434  20.022  1.00  0.00     0.005 C 
BRANCH   9  10
HETATM   10  C5  UNL     1      31.773  49.456  19.053  1.00  0.00     0.001 C 
BRANCH  10  11
HETATM   11  C4  UNL     1      31.936  48.365  18.073  1.00  0.00     0.004 C 
BRANCH  11  12
HETATM   12  C3  UNL     1      33.004  47.350  18.522  1.00  0.00     0.026 C 
BRANCH  12  13
HETATM   13  C2  UNL     1      32.454  46.013  18.170  1.00  0.00    -0.037 C 
HETATM   14  C1  UNL     1      31.164  45.869  17.925  1.00  0.00     0.007 C 
ENDBRANCH  12  13
ENDBRANCH  11  12
ENDBRANCH  10  11
ENDBRANCH   9  10
ENDBRANCH   8   9
ENDBRANCH   1   8
BRANCH   7  15
HETATM   15  O2  UNL     1      28.456  46.826  22.591  1.00  0.00    -0.355 OA
HETATM   16  C16 UNL     1      27.755  47.434  23.648  1.00  0.00     0.210 C 
ENDBRANCH   7  15
BRANCH   3  17
HETATM   17  C11 UNL     1      26.745  47.658  17.319  1.00  0.00     0.203 C 
BRANCH  17  18
HETATM   18  O1  UNL     1      26.767  49.003  16.991  1.00  0.00    -0.396 OA
ATOM     19  H1  UNL     1      25.898  49.343  16.812  1.00  0.00     0.209 HD
ENDBRANCH  17  18
ENDBRANCH   3  17
TORSDOF 9
ENDMDL
MODEL 5
REMARK VINA RESULT: -5.937117663      1.928      4.489
REMARK  9 active torsions:
REMARK  status: ('A' for Active; 'I' for Inactive)
REMARK    1  A    between atoms: C2_2  and  C3_3 
REMARK    2  A    between atoms: C3_3  and  C4_4 
REMARK    3  A    between atoms: C4_4  and  C5_5 
REMARK    4  A    between atoms: C5_5  and  C6_6 
REMARK    5  A    between atoms: C6_6  and  C7_7 
REMARK    6  A    between atoms: C7_7  and  C8_8 
REMARK    7  A    between atoms: C10_10  and  C11_11 
REMARK    8  A    between atoms: C11_11  and  O1_12 
REMARK    9  A    between atoms: C15_17  and  O2_18 
ROOT
HETATM    1  C8  UNL     1      27.709  47.081  19.907  1.00  0.00    -0.024 A 
HETATM    2  C9  UNL     1      28.422  47.419  21.072  1.00  0.00     0.019 A 
HETATM    3  C10 UNL     1      27.879  47.365  22.329  1.00  0.00    -0.028 A 
HETATM    4  C12 UNL     1      26.585  46.967  22.510  1.00  0.00    -0.051 A 
HETATM    5  C13 UNL     1      25.963  46.895  23.852  1.00  0.00     0.049 C 
HETATM    6  C14 UNL     1      25.861  46.629  21.403  1.00  0.00     0.044 A 
HETATM    7  C15 UNL     1      26.421  46.684  20.112  1.00  0.00     0.075 A 
ENDROOT
BRANCH   1   8
HETATM    8  C7  UNL     1      28.386  47.216  18.599  1.00  0.00     0.041 C 
BRANCH   8   9
HETATM    9  C6  UNL     1      29.580  46.425  18.350  1.00  0.00     0.005 C 
BRANCH   9  10
HETATM   10  C5  UNL     1      30.928  46.941  18.202  1.00  0.00     0.001 C 
BRANCH  10  11
HETATM   11  C4  UNL     1      31.166  48.354  17.850  1.00  0.00     0.004 C 
BRANCH  11  12
HETATM   12  C3  UNL     1      32.000  49.077  18.925  1.00  0.00     0.026 C 
BRANCH  12  13
HETATM   13  C2  UNL     1      31.012  49.769  19.795  1.00  0.00    -0.037 C 
HETATM   14  C1  UNL     1      29.968  50.378  19.262  1.00  0.00     0.007 C 
ENDBRANCH  12  13
ENDBRANCH  11  12
ENDBRANCH  10  11
ENDBRANCH   9  10
ENDBRANCH   8   9
ENDBRANCH   1   8
BRANCH   7  15
HETATM   15  O2  UNL     1      25.630  46.322  19.038  1.00  0.00    -0.355 OA
HETATM   16  C16 UNL     1      24.230  46.266  19.179  1.00  0.00     0.210 C 
ENDBRANCH   7  15
BRANCH   3  17
HETATM   17  C11 UNL     1      28.736  47.748  23.480  1.00  0.00     0.203 C 
BRANCH  17  18
HETATM   18  O1  UNL     1      29.992  47.170  23.414  1.00  0.00    -0.396 OA
ATOM     19  H1  UNL     1      30.588  47.667  22.868  1.00  0.00     0.209 HD
ENDBRANCH  17  18
ENDBRANCH   3  17
TORSDOF 9
ENDMDL
