MODEL 1
REMARK VINA RESULT: -6.748596737      0.000      0.000
REMARK  6 active torsions:
REMARK  status: ('A' for Active; 'I' for Inactive)
REMARK    1  A    between atoms: C2_2  and  C3_3 
REMARK    2  A    between atoms: C3_3  and  C4_4 
REMARK    3  A    between atoms: C10_10  and  O1_11 
REMARK    4  A    between atoms: C10_10  and  C11_13 
REMARK    5  A    between atoms: C11_13  and  C12_14 
REMARK    6  A    between atoms: C12_14  and  C13_15 
ROOT
HETATM    1  C3  UNL     1      25.650  45.694  20.760  1.00  0.00    -0.041 C 
HETATM    2  C6  UNL     1      24.819  46.062  21.969  1.00  0.00     0.009 C 
HETATM    3  C7  UNL     1      25.276  47.189  22.812  1.00  0.00     0.001 C 
HETATM    4  C8  UNL     1      26.639  47.089  23.405  1.00  0.00     0.003 C 
HETATM    5  C9  UNL     1      27.649  47.969  22.729  1.00  0.00     0.038 C 
HETATM    6  C10 UNL     1      28.638  47.138  21.899  1.00  0.00     0.058 C 
HETATM    7  C15 UNL     1      28.038  46.608  20.651  1.00  0.00     0.038 C 
HETATM    8  C16 UNL     1      26.617  46.795  20.375  1.00  0.00     0.012 C 
ENDROOT
BRANCH   6   9
HETATM    9  O1  UNL     1      29.091  46.144  22.771  1.00  0.00    -0.390 OA
ATOM     10  H1  UNL     1      29.601  45.555  22.227  1.00  0.00     0.210 HD
ENDBRANCH   6   9
BRANCH   6  11
HETATM   11  C11 UNL     1      29.812  48.066  21.679  1.00  0.00     0.045 C 
BRANCH  11  12
HETATM   12  C12 UNL     1      29.658  49.083  20.610  1.00  0.00     0.081 C 
BRANCH  12  13
HETATM   13  C13 UNL     1      30.930  49.086  19.812  1.00  0.00     0.123 C 
HETATM   14  C14 UNL     1      31.421  47.886  19.101  1.00  0.00     0.091 C 
HETATM   15  O2  UNL     1      31.556  50.151  19.778  1.00  0.00    -0.298 OA
ENDBRANCH  12  13
ENDBRANCH  11  12
ENDBRANCH   6  11
BRANCH   1  16
HETATM   16  C2  UNL     1      26.287  44.366  20.872  1.00  0.00     0.005 C 
HETATM   17  C1  UNL     1      26.181  43.379  19.774  1.00  0.00     0.006 C 
ENDBRANCH   1  16
BRANCH   1  18
HETATM   18  C4  UNL     1      24.646  45.654  19.632  1.00  0.00     0.005 C 
HETATM   19  C5  UNL     1      24.725  46.665  18.572  1.00  0.00     0.006 C 
ENDBRANCH   1  18
TORSDOF 6
ENDMDL
MODEL 2
REMARK VINA RESULT: -6.596976656      3.067      4.757
REMARK  6 active torsions:
REMARK  status: ('A' for Active; 'I' for Inactive)
REMARK    1  A    between atoms: C2_2  and  C3_3 
REMARK    2  A    between atoms: C3_3  and  C4_4 
REMARK    3  A    between atoms: C10_10  and  O1_11 
REMARK    4  A    between atoms: C10_10  and  C11_13 
REMARK    5  A    between atoms: C11_13  and  C12_14 
REMARK    6  A    between atoms: C12_14  and  C13_15 
ROOT
HETATM    1  C3  UNL     1      25.536  46.965  17.666  1.00  0.00    -0.041 C 
HETATM    2  C6  UNL     1      25.652  45.822  16.682  1.00  0.00     0.009 C 
HETATM    3  C7  UNL     1      27.006  45.356  16.311  1.00  0.00     0.001 C 
HETATM    4  C8  UNL     1      27.933  46.359  15.715  1.00  0.00     0.003 C 
HETATM    5  C9  UNL     1      29.003  46.818  16.662  1.00  0.00     0.038 C 
HETATM    6  C10 UNL     1      28.751  48.261  17.122  1.00  0.00     0.058 C 
HETATM    7  C15 UNL     1      27.633  48.369  18.091  1.00  0.00     0.038 C 
HETATM    8  C16 UNL     1      26.827  47.199  18.424  1.00  0.00     0.012 C 
ENDROOT
BRANCH   6   9
HETATM    9  O1  UNL     1      28.545  48.982  15.943  1.00  0.00    -0.390 OA
ATOM     10  H1  UNL     1      29.277  48.750  15.384  1.00  0.00     0.210 HD
ENDBRANCH   6   9
BRANCH   6  11
HETATM   11  C11 UNL     1      30.088  48.718  17.663  1.00  0.00     0.045 C 
BRANCH  11  12
HETATM   12  C12 UNL     1      30.781  47.787  18.586  1.00  0.00     0.081 C 
BRANCH  12  13
HETATM   13  C13 UNL     1      32.204  47.674  18.120  1.00  0.00     0.123 C 
HETATM   14  C14 UNL     1      33.201  46.833  18.818  1.00  0.00     0.091 C 
HETATM   15  O2  UNL     1      32.507  48.326  17.116  1.00  0.00    -0.298 OA
ENDBRANCH  12  13
ENDBRANCH  11  12
ENDBRANCH   6  11
BRANCH   1  16
HETATM   16  C2  UNL     1      24.975  48.195  17.068  1.00  0.00     0.005 C 
HETATM   17  C1  UNL     1      24.950  48.381  15.600  1.00  0.00     0.006 C 
ENDBRANCH   1  16
BRANCH   1  18
HETATM   18  C4  UNL     1      24.569  46.450  18.705  1.00  0.00     0.005 C 
HETATM   19  C5  UNL     1      24.941  46.521  20.122  1.00  0.00     0.006 C 
ENDBRANCH   1  18
TORSDOF 6
ENDMDL
MODEL 3
REMARK VINA RESULT: -6.563513462      2.104      3.608
REMARK  6 active torsions:
REMARK  status: ('A' for Active; 'I' for Inactive)
REMARK    1  A    between atoms: C2_2  and  C3_3 
REMARK    2  A    between atoms: C3_3  and  C4_4 
REMARK    3  A    between atoms: C10_10  and  O1_11 
REMARK    4  A    between atoms: C10_10  and  C11_13 
REMARK    5  A    between atoms: C11_13  and  C12_14 
REMARK    6  A    between atoms: C12_14  and  C13_15 
ROOT
HETATM    1  C3  UNL     1      26.660  46.170  21.252  1.00  0.00    -0.041 C 
HETATM    2  C6  UNL     1      26.653  44.658  21.194  1.00  0.00     0.009 C 
HETATM    3  C7  UNL     1      27.711  43.986  20.409  1.00  0.00     0.001 C 
HETATM    4  C8  UNL     1      27.820  44.341  18.966  1.00  0.00     0.003 C 
HETATM    5  C9  UNL     1      28.989  45.229  18.656  1.00  0.00     0.038 C 
HETATM    6  C10 UNL     1      28.526  46.654  18.320  1.00  0.00     0.058 C 
HETATM    7  C15 UNL     1      28.074  47.408  19.515  1.00  0.00     0.038 C 
HETATM    8  C16 UNL     1      27.989  46.752  20.816  1.00  0.00     0.012 C 
ENDROOT
BRANCH   6   9
HETATM    9  O1  UNL     1      27.534  46.489  17.350  1.00  0.00    -0.390 OA
ATOM     10  H1  UNL     1      27.263  47.372  17.126  1.00  0.00     0.210 HD
ENDBRANCH   6   9
BRANCH   6  11
HETATM   11  C11 UNL     1      29.709  47.271  17.607  1.00  0.00     0.045 C 
BRANCH  11  12
HETATM   12  C12 UNL     1      31.046  47.002  18.191  1.00  0.00     0.081 C 
BRANCH  12  13
HETATM   13  C13 UNL     1      31.870  48.245  18.009  1.00  0.00     0.123 C 
HETATM   14  C14 UNL     1      31.743  49.417  18.903  1.00  0.00     0.091 C 
HETATM   15  O2  UNL     1      32.666  48.243  17.065  1.00  0.00    -0.298 OA
ENDBRANCH  12  13
ENDBRANCH  11  12
ENDBRANCH   6  11
BRANCH   1  16
HETATM   16  C2  UNL     1      25.500  46.785  20.575  1.00  0.00     0.005 C 
HETATM   17  C1  UNL     1      24.606  45.976  19.716  1.00  0.00     0.006 C 
ENDBRANCH   1  16
BRANCH   1  18
HETATM   18  C4  UNL     1      26.574  46.474  22.729  1.00  0.00     0.005 C 
HETATM   19  C5  UNL     1      25.275  46.836  23.307  1.00  0.00     0.006 C 
ENDBRANCH   1  18
TORSDOF 6
ENDMDL
MODEL 4
REMARK VINA RESULT: -6.556235263      3.274      6.387
REMARK  6 active torsions:
REMARK  status: ('A' for Active; 'I' for Inactive)
REMARK    1  A    between atoms: C2_2  and  C3_3 
REMARK    2  A    between atoms: C3_3  and  C4_4 
REMARK    3  A    between atoms: C10_10  and  O1_11 
REMARK    4  A    between atoms: C10_10  and  C11_13 
REMARK    5  A    between atoms: C11_13  and  C12_14 
REMARK    6  A    between atoms: C12_14  and  C13_15 
ROOT
HETATM    1  C3  UNL     1      31.080  48.125  18.787  1.00  0.00    -0.041 C 
HETATM    2  C6  UNL     1      30.652  48.188  20.236  1.00  0.00     0.009 C 
HETATM    3  C7  UNL     1      29.359  47.573  20.608  1.00  0.00     0.001 C 
HETATM    4  C8  UNL     1      28.140  48.073  19.914  1.00  0.00     0.003 C 
HETATM    5  C9  UNL     1      27.610  47.124  18.880  1.00  0.00     0.038 C 
HETATM    6  C10 UNL     1      27.865  47.654  17.461  1.00  0.00     0.058 C 
HETATM    7  C15 UNL     1      29.288  47.546  17.055  1.00  0.00     0.038 C 
HETATM    8  C16 UNL     1      30.297  47.089  18.004  1.00  0.00     0.012 C 
ENDROOT
BRANCH   6   9
HETATM    9  O1  UNL     1      27.384  48.966  17.477  1.00  0.00    -0.390 OA
ATOM     10  H1  UNL     1      26.446  48.883  17.346  1.00  0.00     0.210 HD
ENDBRANCH   6   9
BRANCH   6  11
HETATM   11  C11 UNL     1      26.909  46.868  16.592  1.00  0.00     0.045 C 
BRANCH  11  12
HETATM   12  C12 UNL     1      25.607  47.512  16.293  1.00  0.00     0.081 C 
BRANCH  12  13
HETATM   13  C13 UNL     1      25.696  48.072  14.903  1.00  0.00     0.123 C 
HETATM   14  C14 UNL     1      25.905  47.216  13.715  1.00  0.00     0.091 C 
HETATM   15  O2  UNL     1      25.587  49.298  14.796  1.00  0.00    -0.298 OA
ENDBRANCH  12  13
ENDBRANCH  11  12
ENDBRANCH   6  11
BRANCH   1  16
HETATM   16  C2  UNL     1      31.121  49.448  18.132  1.00  0.00     0.005 C 
HETATM   17  C1  UNL     1      30.465  50.621  18.753  1.00  0.00     0.006 C 
ENDBRANCH   1  16
BRANCH   1  18
HETATM   18  C4  UNL     1      32.486  47.574  18.850  1.00  0.00     0.005 C 
HETATM   19  C5  UNL     1      32.802  46.343  18.119  1.00  0.00     0.006 C 
ENDBRANCH   1  18
TORSDOF 6
ENDMDL
MODEL 5
REMARK VINA RESULT: -6.546723893      3.300      6.139
REMARK  6 active torsions:
REMARK  status: ('A' for Active; 'I' for Inactive)
REMARK    1  A    between atoms: C2_2  and  C3_3 
REMARK    2  A    between atoms: C3_3  and  C4_4 
REMARK    3  A    between atoms: C10_10  and  O1_11 
REMARK    4  A    between atoms: C10_10  and  C11_13 
REMARK    5  A    between atoms: C11_13  and  C12_14 
REMARK    6  A    between atoms: C12_14  and  C13_15 
ROOT
HETATM    1  C3  UNL     1      29.464  48.400  19.503  1.00  0.00    -0.041 C 
HETATM    2  C6  UNL     1      30.726  47.627  19.193  1.00  0.00     0.009 C 
HETATM    3  C7  UNL     1      30.756  46.807  17.962  1.00  0.00     0.001 C 
HETATM    4  C8  UNL     1      29.716  45.750  17.821  1.00  0.00     0.003 C 
HETATM    5  C9  UNL     1      28.636  46.103  16.841  1.00  0.00     0.038 C 
HETATM    6  C10 UNL     1      27.317  46.417  17.562  1.00  0.00     0.058 C 
HETATM    7  C15 UNL     1      27.336  47.731  18.249  1.00  0.00     0.038 C 
HETATM    8  C16 UNL     1      28.559  48.526  18.294  1.00  0.00     0.012 C 
ENDROOT
BRANCH   6   9
HETATM    9  O1  UNL     1      27.114  45.335  18.422  1.00  0.00    -0.390 OA
ATOM     10  H1  UNL     1      27.986  45.068  18.689  1.00  0.00     0.210 HD
ENDBRANCH   6   9
BRANCH   6  11
HETATM   11  C11 UNL     1      26.265  46.296  16.481  1.00  0.00     0.045 C 
BRANCH  11  12
HETATM   12  C12 UNL     1      25.369  47.464  16.297  1.00  0.00     0.081 C 
BRANCH  12  13
HETATM   13  C13 UNL     1      25.661  48.039  14.941  1.00  0.00     0.123 C 
HETATM   14  C14 UNL     1      25.988  47.190  13.774  1.00  0.00     0.091 C 
HETATM   15  O2  UNL     1      25.617  49.269  14.844  1.00  0.00    -0.298 OA
ENDBRANCH  12  13
ENDBRANCH  11  12
ENDBRANCH   6  11
BRANCH   1  16
HETATM   16  C2  UNL     1      28.765  47.916  20.711  1.00  0.00     0.005 C 
HETATM   17  C1  UNL     1      29.438  47.920  22.030  1.00  0.00     0.006 C 
ENDBRANCH   1  16
BRANCH   1  18
HETATM   18  C4  UNL     1      29.956  49.805  19.761  1.00  0.00     0.005 C 
HETATM   19  C5  UNL     1      31.390  50.089  19.648  1.00  0.00     0.006 C 
ENDBRANCH   1  18
TORSDOF 6
ENDMDL
