MODEL 1
REMARK VINA RESULT: -7.149055121      0.000      0.000
REMARK  9 active torsions:
REMARK  status: ('A' for Active; 'I' for Inactive)
REMARK    1  A    between atoms: C2_2  and  C3_3 
REMARK    2  A    between atoms: C5_5  and  C6_6 
REMARK    3  A    between atoms: C6_6  and  C7_7 
REMARK    4  A    between atoms: C7_7  and  C8_8 
REMARK    5  A    between atoms: C8_8  and  O1_9 
REMARK    6  A    between atoms: C8_8  and  C9_11 
REMARK    7  A    between atoms: C9_11  and  C10_12 
REMARK    8  A    between atoms: C10_12  and  C11_13 
REMARK    9  A    between atoms: C11_13  and  O2_14 
ROOT
HETATM    1  C6  UNL     1      29.784  48.073  20.812  1.00  0.00     0.041 C 
ENDROOT
BRANCH   1   2
HETATM    2  C5  UNL     1      28.596  47.707  21.575  1.00  0.00    -0.057 A 
HETATM    3  C4  UNL     1      27.479  47.201  20.938  1.00  0.00     0.019 A 
HETATM    4  C3  UNL     1      26.358  46.834  21.652  1.00  0.00    -0.031 A 
HETATM    5  C15 UNL     1      26.352  46.974  23.031  1.00  0.00    -0.052 A 
HETATM    6  C14 UNL     1      27.459  47.479  23.690  1.00  0.00     0.008 A 
HETATM    7  C16 UNL     1      25.127  46.570  23.790  1.00  0.00     0.049 C 
HETATM    8  C13 UNL     1      28.585  47.844  22.943  1.00  0.00     0.007 A 
BRANCH   4   9
HETATM    9  C2  UNL     1      25.163  46.293  20.991  1.00  0.00     0.002 C 
HETATM   10  C1  UNL     1      24.780  46.610  19.783  1.00  0.00     0.012 C 
ENDBRANCH   4   9
ENDBRANCH   1   2
BRANCH   1  11
HETATM   11  C7  UNL     1      29.936  49.483  20.408  1.00  0.00     0.036 C 
BRANCH  11  12
HETATM   12  C8  UNL     1      30.458  49.779  19.059  1.00  0.00     0.118 C 
BRANCH  12  13
HETATM   13  O1  UNL     1      30.317  51.058  18.596  1.00  0.00    -0.396 OA
ATOM     14  H1  UNL     1      30.861  51.319  17.862  1.00  0.00     0.210 HD
ENDBRANCH  12  13
BRANCH  12  15
HETATM   15  C9  UNL     1      31.894  49.349  18.850  1.00  0.00     0.034 C 
BRANCH  15  16
HETATM   16  C10 UNL     1      31.865  48.252  17.793  1.00  0.00     0.029 C 
BRANCH  16  17
HETATM   17  C11 UNL     1      32.598  47.030  18.220  1.00  0.00     0.167 C 
BRANCH  17  18
HETATM   18  O2  UNL     1      32.063  45.861  17.761  1.00  0.00    -0.396 OA
HETATM   19  C12 UNL     1      30.685  45.891  17.867  1.00  0.00     0.201 C 
ENDBRANCH  17  18
ENDBRANCH  16  17
ENDBRANCH  15  16
ENDBRANCH  12  15
ENDBRANCH  11  12
ENDBRANCH   1  11
TORSDOF 9
ENDMDL
MODEL 2
REMARK VINA RESULT: -7.067039551      2.063      2.670
REMARK  9 active torsions:
REMARK  status: ('A' for Active; 'I' for Inactive)
REMARK    1  A    between atoms: C2_2  and  C3_3 
REMARK    2  A    between atoms: C5_5  and  C6_6 
REMARK    3  A    between atoms: C6_6  and  C7_7 
REMARK    4  A    between atoms: C7_7  and  C8_8 
REMARK    5  A    between atoms: C8_8  and  O1_9 
REMARK    6  A    between atoms: C8_8  and  C9_11 
REMARK    7  A    between atoms: C9_11  and  C10_12 
REMARK    8  A    between atoms: C10_12  and  C11_13 
REMARK    9  A    between atoms: C11_13  and  O2_14 
ROOT
HETATM    1  C6  UNL     1      30.018  47.932  20.808  1.00  0.00     0.041 C 
ENDROOT
BRANCH   1   2
HETATM    2  C5  UNL     1      28.813  47.648  21.579  1.00  0.00    -0.057 A 
HETATM    3  C4  UNL     1      27.667  47.194  20.952  1.00  0.00     0.019 A 
HETATM    4  C3  UNL     1      26.529  46.905  21.674  1.00  0.00    -0.031 A 
HETATM    5  C15 UNL     1      26.534  47.072  23.050  1.00  0.00    -0.052 A 
HETATM    6  C14 UNL     1      27.669  47.525  23.699  1.00  0.00     0.008 A 
HETATM    7  C16 UNL     1      25.288  46.752  23.818  1.00  0.00     0.049 C 
HETATM    8  C13 UNL     1      28.811  47.812  22.944  1.00  0.00     0.007 A 
BRANCH   4   9
HETATM    9  C2  UNL     1      25.304  46.420  21.025  1.00  0.00     0.002 C 
HETATM   10  C1  UNL     1      24.992  46.644  19.775  1.00  0.00     0.012 C 
ENDBRANCH   4   9
ENDBRANCH   1   2
BRANCH   1  11
HETATM   11  C7  UNL     1      30.273  49.330  20.416  1.00  0.00     0.036 C 
BRANCH  11  12
HETATM   12  C8  UNL     1      29.549  49.880  19.253  1.00  0.00     0.118 C 
BRANCH  12  13
HETATM   13  O1  UNL     1      29.890  51.138  18.837  1.00  0.00    -0.396 OA
ATOM     14  H1  UNL     1      30.412  51.210  18.046  1.00  0.00     0.210 HD
ENDBRANCH  12  13
BRANCH  12  15
HETATM   15  C9  UNL     1      29.540  48.964  18.048  1.00  0.00     0.034 C 
BRANCH  15  16
HETATM   16  C10 UNL     1      28.076  48.679  17.736  1.00  0.00     0.029 C 
BRANCH  16  17
HETATM   17  C11 UNL     1      27.851  48.356  16.302  1.00  0.00     0.167 C 
BRANCH  17  18
HETATM   18  O2  UNL     1      26.893  49.116  15.695  1.00  0.00    -0.396 OA
HETATM   19  C12 UNL     1      25.791  48.342  15.386  1.00  0.00     0.201 C 
ENDBRANCH  17  18
ENDBRANCH  16  17
ENDBRANCH  15  16
ENDBRANCH  12  15
ENDBRANCH  11  12
ENDBRANCH   1  11
TORSDOF 9
ENDMDL
MODEL 3
REMARK VINA RESULT: -6.925564041      2.830      5.174
REMARK  9 active torsions:
REMARK  status: ('A' for Active; 'I' for Inactive)
REMARK    1  A    between atoms: C2_2  and  C3_3 
REMARK    2  A    between atoms: C5_5  and  C6_6 
REMARK    3  A    between atoms: C6_6  and  C7_7 
REMARK    4  A    between atoms: C7_7  and  C8_8 
REMARK    5  A    between atoms: C8_8  and  O1_9 
REMARK    6  A    between atoms: C8_8  and  C9_11 
REMARK    7  A    between atoms: C9_11  and  C10_12 
REMARK    8  A    between atoms: C10_12  and  C11_13 
REMARK    9  A    between atoms: C11_13  and  O2_14 
ROOT
HETATM    1  C6  UNL     1      25.242  46.501  20.405  1.00  0.00     0.041 C 
ENDROOT
BRANCH   1   2
HETATM    2  C5  UNL     1      26.300  46.872  21.337  1.00  0.00    -0.057 A 
HETATM    3  C4  UNL     1      27.548  47.246  20.874  1.00  0.00     0.019 A 
HETATM    4  C3  UNL     1      28.549  47.616  21.745  1.00  0.00    -0.031 A 
HETATM    5  C15 UNL     1      28.301  47.615  23.109  1.00  0.00    -0.052 A 
HETATM    6  C14 UNL     1      27.059  47.245  23.597  1.00  0.00     0.008 A 
HETATM    7  C16 UNL     1      29.400  48.022  24.042  1.00  0.00     0.049 C 
HETATM    8  C13 UNL     1      26.060  46.873  22.691  1.00  0.00     0.007 A 
BRANCH   4   9
HETATM    9  C2  UNL     1      29.879  48.017  21.270  1.00  0.00     0.002 C 
HETATM   10  C1  UNL     1      30.100  48.985  20.419  1.00  0.00     0.012 C 
ENDBRANCH   4   9
ENDBRANCH   1   2
BRANCH   1  11
HETATM   11  C7  UNL     1      24.816  45.090  20.373  1.00  0.00     0.036 C 
BRANCH  11  12
HETATM   12  C8  UNL     1      25.847  44.038  20.480  1.00  0.00     0.118 C 
BRANCH  12  13
HETATM   13  O1  UNL     1      25.441  42.797  20.886  1.00  0.00    -0.396 OA
ATOM     14  H1  UNL     1      24.917  42.289  20.279  1.00  0.00     0.210 HD
ENDBRANCH  12  13
BRANCH  12  15
HETATM   15  C9  UNL     1      26.693  43.880  19.234  1.00  0.00     0.034 C 
BRANCH  15  16
HETATM   16  C10 UNL     1      28.113  43.604  19.710  1.00  0.00     0.029 C 
BRANCH  16  17
HETATM   17  C11 UNL     1      29.088  43.538  18.589  1.00  0.00     0.167 C 
BRANCH  17  18
HETATM   18  O2  UNL     1      30.199  42.789  18.850  1.00  0.00    -0.396 OA
HETATM   19  C12 UNL     1      29.913  41.444  18.709  1.00  0.00     0.201 C 
ENDBRANCH  17  18
ENDBRANCH  16  17
ENDBRANCH  15  16
ENDBRANCH  12  15
ENDBRANCH  11  12
ENDBRANCH   1  11
TORSDOF 9
ENDMDL
MODEL 4
REMARK VINA RESULT: -6.877469335      1.808      2.007
REMARK  9 active torsions:
REMARK  status: ('A' for Active; 'I' for Inactive)
REMARK    1  A    between atoms: C2_2  and  C3_3 
REMARK    2  A    between atoms: C5_5  and  C6_6 
REMARK    3  A    between atoms: C6_6  and  C7_7 
REMARK    4  A    between atoms: C7_7  and  C8_8 
REMARK    5  A    between atoms: C8_8  and  O1_9 
REMARK    6  A    between atoms: C8_8  and  C9_11 
REMARK    7  A    between atoms: C9_11  and  C10_12 
REMARK    8  A    between atoms: C10_12  and  C11_13 
REMARK    9  A    between atoms: C11_13  and  O2_14 
ROOT
HETATM    1  C6  UNL     1      30.288  48.300  20.974  1.00  0.00     0.041 C 
ENDROOT
BRANCH   1   2
HETATM    2  C5  UNL     1      29.073  47.910  21.680  1.00  0.00    -0.057 A 
HETATM    3  C4  UNL     1      27.953  47.501  20.980  1.00  0.00     0.019 A 
HETATM    4  C3  UNL     1      26.805  47.113  21.638  1.00  0.00    -0.031 A 
HETATM    5  C15 UNL     1      26.775  47.131  23.023  1.00  0.00    -0.052 A 
HETATM    6  C14 UNL     1      27.884  47.536  23.746  1.00  0.00     0.008 A 
HETATM    7  C16 UNL     1      25.520  46.705  23.722  1.00  0.00     0.049 C 
HETATM    8  C13 UNL     1      29.036  47.926  23.054  1.00  0.00     0.007 A 
BRANCH   4   9
HETATM    9  C2  UNL     1      25.608  46.675  20.910  1.00  0.00     0.002 C 
HETATM   10  C1  UNL     1      25.488  46.686  19.609  1.00  0.00     0.012 C 
ENDBRANCH   4   9
ENDBRANCH   1   2
BRANCH   1  11
HETATM   11  C7  UNL     1      30.165  49.281  19.880  1.00  0.00     0.036 C 
BRANCH  11  12
HETATM   12  C8  UNL     1      30.856  49.005  18.604  1.00  0.00     0.118 C 
BRANCH  12  13
HETATM   13  O1  UNL     1      32.155  49.418  18.491  1.00  0.00    -0.396 OA
ATOM     14  H1  UNL     1      32.688  49.003  17.823  1.00  0.00     0.210 HD
ENDBRANCH  12  13
BRANCH  12  15
HETATM   15  C9  UNL     1      30.773  47.559  18.163  1.00  0.00     0.034 C 
BRANCH  15  16
HETATM   16  C10 UNL     1      29.409  47.389  17.505  1.00  0.00     0.029 C 
BRANCH  16  17
HETATM   17  C11 UNL     1      29.143  48.423  16.469  1.00  0.00     0.167 C 
BRANCH  17  18
HETATM   18  O2  UNL     1      29.131  47.949  15.189  1.00  0.00    -0.396 OA
HETATM   19  C12 UNL     1      28.349  46.813  15.106  1.00  0.00     0.201 C 
ENDBRANCH  17  18
ENDBRANCH  16  17
ENDBRANCH  15  16
ENDBRANCH  12  15
ENDBRANCH  11  12
ENDBRANCH   1  11
TORSDOF 9
ENDMDL
MODEL 5
REMARK VINA RESULT: -6.838847490      1.146      1.384
REMARK  9 active torsions:
REMARK  status: ('A' for Active; 'I' for Inactive)
REMARK    1  A    between atoms: C2_2  and  C3_3 
REMARK    2  A    between atoms: C5_5  and  C6_6 
REMARK    3  A    between atoms: C6_6  and  C7_7 
REMARK    4  A    between atoms: C7_7  and  C8_8 
REMARK    5  A    between atoms: C8_8  and  O1_9 
REMARK    6  A    between atoms: C8_8  and  C9_11 
REMARK    7  A    between atoms: C9_11  and  C10_12 
REMARK    8  A    between atoms: C10_12  and  C11_13 
REMARK    9  A    between atoms: C11_13  and  O2_14 
ROOT
HETATM    1  C6  UNL     1      29.978  47.965  20.769  1.00  0.00     0.041 C 
ENDROOT
BRANCH   1   2
HETATM    2  C5  UNL     1      28.771  47.661  21.530  1.00  0.00    -0.057 A 
HETATM    3  C4  UNL     1      27.631  47.210  20.891  1.00  0.00     0.019 A 
HETATM    4  C3  UNL     1      26.491  46.902  21.602  1.00  0.00    -0.031 A 
HETATM    5  C15 UNL     1      26.489  47.046  22.981  1.00  0.00    -0.052 A 
HETATM    6  C14 UNL     1      27.619  47.495  23.643  1.00  0.00     0.008 A 
HETATM    7  C16 UNL     1      25.242  46.705  23.738  1.00  0.00     0.049 C 
HETATM    8  C13 UNL     1      28.763  47.801  22.897  1.00  0.00     0.007 A 
BRANCH   4   9
HETATM    9  C2  UNL     1      25.273  46.421  20.940  1.00  0.00     0.002 C 
HETATM   10  C1  UNL     1      24.959  46.672  19.696  1.00  0.00     0.012 C 
ENDBRANCH   4   9
ENDBRANCH   1   2
BRANCH   1  11
HETATM   11  C7  UNL     1      30.232  49.373  20.414  1.00  0.00     0.036 C 
BRANCH  11  12
HETATM   12  C8  UNL     1      29.643  49.904  19.167  1.00  0.00     0.118 C 
BRANCH  12  13
HETATM   13  O1  UNL     1      29.776  51.244  18.930  1.00  0.00    -0.396 OA
ATOM     14  H1  UNL     1      30.094  51.507  18.074  1.00  0.00     0.210 HD
ENDBRANCH  12  13
BRANCH  12  15
HETATM   15  C9  UNL     1      30.065  49.153  17.922  1.00  0.00     0.034 C 
BRANCH  15  16
HETATM   16  C10 UNL     1      28.806  48.502  17.366  1.00  0.00     0.029 C 
BRANCH  16  17
HETATM   17  C11 UNL     1      28.949  47.031  17.204  1.00  0.00     0.167 C 
BRANCH  17  18
HETATM   18  O2  UNL     1      30.227  46.570  17.334  1.00  0.00    -0.396 OA
HETATM   19  C12 UNL     1      30.222  45.247  17.734  1.00  0.00     0.201 C 
ENDBRANCH  17  18
ENDBRANCH  16  17
ENDBRANCH  15  16
ENDBRANCH  12  15
ENDBRANCH  11  12
ENDBRANCH   1  11
TORSDOF 9
ENDMDL
