MODEL 1
REMARK VINA RESULT: -6.642030194      0.000      0.000
REMARK  7 active torsions:
REMARK  status: ('A' for Active; 'I' for Inactive)
REMARK    1  A    between atoms: C2_2  and  C3_3 
REMARK    2  A    between atoms: C3_3  and  C4_4 
REMARK    3  A    between atoms: C4_4  and  C5_5 
REMARK    4  A    between atoms: C10_11  and  C11_12 
REMARK    5  A    between atoms: C11_12  and  C12_14 
REMARK    6  A    between atoms: C12_14  and  C13_15 
REMARK    7  A    between atoms: C13_15  and  C15_17 
ROOT
HETATM    1  C5  UNL     1      26.304  46.819  21.743  1.00  0.00    -0.012 A 
HETATM    2  C6  UNL     1      26.140  46.944  23.087  1.00  0.00     0.056 A 
HETATM    3  C7  UNL     1      24.878  46.859  23.850  1.00  0.00     0.077 C 
HETATM    4  O1  UNL     1      27.311  47.174  23.699  1.00  0.00    -0.319 OA
HETATM    5  C8  UNL     1      28.262  47.211  22.816  1.00  0.00     0.064 A 
HETATM    6  C9  UNL     1      29.729  47.445  23.086  1.00  0.00     0.077 C 
HETATM    7  C10 UNL     1      27.704  46.996  21.567  1.00  0.00     0.048 A 
ENDROOT
BRANCH   7   8
HETATM    8  C11 UNL     1      28.433  46.960  20.315  1.00  0.00     0.163 C 
HETATM    9  O2  UNL     1      28.695  45.852  19.819  1.00  0.00    -0.292 OA
BRANCH   8  10
HETATM   10  C12 UNL     1      28.827  48.220  19.682  1.00  0.00     0.088 C 
BRANCH  10  11
HETATM   11  C13 UNL     1      30.314  48.410  19.565  1.00  0.00    -0.012 C 
HETATM   12  C14 UNL     1      30.818  49.725  20.050  1.00  0.00     0.010 C 
BRANCH  11  13
HETATM   13  C15 UNL     1      30.848  48.029  18.199  1.00  0.00     0.000 C 
HETATM   14  C16 UNL     1      32.291  47.557  18.362  1.00  0.00     0.005 C 
ENDBRANCH  11  13
ENDBRANCH  10  11
ENDBRANCH   8  10
ENDBRANCH   7   8
BRANCH   1  15
HETATM   15  C4  UNL     1      25.413  46.560  20.625  1.00  0.00     0.042 C 
BRANCH  15  16
HETATM   16  C3  UNL     1      24.779  45.254  20.457  1.00  0.00     0.004 C 
BRANCH  16  17
HETATM   17  C2  UNL     1      25.596  44.002  20.486  1.00  0.00    -0.004 C 
HETATM   18  C1  UNL     1      26.153  43.618  19.132  1.00  0.00     0.005 C 
ENDBRANCH  16  17
ENDBRANCH  15  16
ENDBRANCH   1  15
TORSDOF 7
ENDMDL
MODEL 2
REMARK VINA RESULT: -6.637143405      2.860      6.228
REMARK  7 active torsions:
REMARK  status: ('A' for Active; 'I' for Inactive)
REMARK    1  A    between atoms: C2_2  and  C3_3 
REMARK    2  A    between atoms: C3_3  and  C4_4 
REMARK    3  A    between atoms: C4_4  and  C5_5 
REMARK    4  A    between atoms: C10_11  and  C11_12 
REMARK    5  A    between atoms: C11_12  and  C12_14 
REMARK    6  A    between atoms: C12_14  and  C13_15 
REMARK    7  A    between atoms: C13_15  and  C15_17 
ROOT
HETATM    1  C5  UNL     1      30.850  48.045  18.025  1.00  0.00    -0.012 A 
HETATM    2  C6  UNL     1      31.599  46.916  18.135  1.00  0.00     0.056 A 
HETATM    3  C7  UNL     1      32.949  46.786  18.719  1.00  0.00     0.077 C 
HETATM    4  O1  UNL     1      30.955  45.856  17.623  1.00  0.00    -0.319 OA
HETATM    5  C8  UNL     1      29.798  46.228  17.169  1.00  0.00     0.064 A 
HETATM    6  C9  UNL     1      28.763  45.345  16.513  1.00  0.00     0.077 C 
HETATM    7  C10 UNL     1      29.663  47.590  17.387  1.00  0.00     0.048 A 
ENDROOT
BRANCH   7   8
HETATM    8  C11 UNL     1      28.511  48.390  17.025  1.00  0.00     0.163 C 
HETATM    9  O2  UNL     1      28.508  48.949  15.916  1.00  0.00    -0.292 OA
BRANCH   8  10
HETATM   10  C12 UNL     1      27.398  48.507  17.969  1.00  0.00     0.088 C 
BRANCH  10  11
HETATM   11  C13 UNL     1      26.235  47.602  17.664  1.00  0.00    -0.012 C 
HETATM   12  C14 UNL     1      25.137  48.235  16.882  1.00  0.00     0.010 C 
BRANCH  11  13
HETATM   13  C15 UNL     1      25.746  46.845  18.882  1.00  0.00     0.000 C 
HETATM   14  C16 UNL     1      26.897  46.745  19.879  1.00  0.00     0.005 C 
ENDBRANCH  11  13
ENDBRANCH  10  11
ENDBRANCH   8  10
ENDBRANCH   7   8
BRANCH   1  15
HETATM   15  C4  UNL     1      31.034  49.435  18.409  1.00  0.00     0.042 C 
BRANCH  15  16
HETATM   16  C3  UNL     1      30.886  49.855  19.800  1.00  0.00     0.004 C 
BRANCH  16  17
HETATM   17  C2  UNL     1      29.696  49.434  20.600  1.00  0.00    -0.004 C 
HETATM   18  C1  UNL     1      29.946  48.203  21.445  1.00  0.00     0.005 C 
ENDBRANCH  16  17
ENDBRANCH  15  16
ENDBRANCH   1  15
TORSDOF 7
ENDMDL
MODEL 3
REMARK VINA RESULT: -6.615973347      2.266      4.182
REMARK  7 active torsions:
REMARK  status: ('A' for Active; 'I' for Inactive)
REMARK    1  A    between atoms: C2_2  and  C3_3 
REMARK    2  A    between atoms: C3_3  and  C4_4 
REMARK    3  A    between atoms: C4_4  and  C5_5 
REMARK    4  A    between atoms: C10_11  and  C11_12 
REMARK    5  A    between atoms: C11_12  and  C12_14 
REMARK    6  A    between atoms: C12_14  and  C13_15 
REMARK    7  A    between atoms: C13_15  and  C15_17 
ROOT
HETATM    1  C5  UNL     1      28.445  46.752  19.934  1.00  0.00    -0.012 A 
HETATM    2  C6  UNL     1      28.095  45.442  20.016  1.00  0.00     0.056 A 
HETATM    3  C7  UNL     1      27.662  44.701  21.219  1.00  0.00     0.077 C 
HETATM    4  O1  UNL     1      28.189  44.839  18.822  1.00  0.00    -0.319 OA
HETATM    5  C8  UNL     1      28.593  45.694  17.934  1.00  0.00     0.064 A 
HETATM    6  C9  UNL     1      28.829  45.424  16.467  1.00  0.00     0.077 C 
HETATM    7  C10 UNL     1      28.774  46.917  18.560  1.00  0.00     0.048 A 
ENDROOT
BRANCH   7   8
HETATM    8  C11 UNL     1      29.219  48.135  17.914  1.00  0.00     0.163 C 
HETATM    9  O2  UNL     1      28.373  49.009  17.659  1.00  0.00    -0.292 OA
BRANCH   8  10
HETATM   10  C12 UNL     1      30.638  48.295  17.591  1.00  0.00     0.088 C 
BRANCH  10  11
HETATM   11  C13 UNL     1      31.539  48.360  18.794  1.00  0.00    -0.012 C 
HETATM   12  C14 UNL     1      31.736  49.725  19.356  1.00  0.00     0.010 C 
BRANCH  11  13
HETATM   13  C15 UNL     1      32.834  47.598  18.599  1.00  0.00     0.000 C 
HETATM   14  C16 UNL     1      32.495  46.193  18.109  1.00  0.00     0.005 C 
ENDBRANCH  11  13
ENDBRANCH  10  11
ENDBRANCH   8  10
ENDBRANCH   7   8
BRANCH   1  15
HETATM   15  C4  UNL     1      28.516  47.853  20.881  1.00  0.00     0.042 C 
BRANCH  15  16
HETATM   16  C3  UNL     1      29.597  47.932  21.860  1.00  0.00     0.004 C 
BRANCH  16  17
HETATM   17  C2  UNL     1      29.361  47.553  23.287  1.00  0.00    -0.004 C 
HETATM   18  C1  UNL     1      27.895  47.513  23.662  1.00  0.00     0.005 C 
ENDBRANCH  16  17
ENDBRANCH  15  16
ENDBRANCH   1  15
TORSDOF 7
ENDMDL
MODEL 4
REMARK VINA RESULT: -6.497074807      2.676      6.193
REMARK  7 active torsions:
REMARK  status: ('A' for Active; 'I' for Inactive)
REMARK    1  A    between atoms: C2_2  and  C3_3 
REMARK    2  A    between atoms: C3_3  and  C4_4 
REMARK    3  A    between atoms: C4_4  and  C5_5 
REMARK    4  A    between atoms: C10_11  and  C11_12 
REMARK    5  A    between atoms: C11_12  and  C12_14 
REMARK    6  A    between atoms: C12_14  and  C13_15 
REMARK    7  A    between atoms: C13_15  and  C15_17 
ROOT
HETATM    1  C5  UNL     1      29.581  48.631  18.601  1.00  0.00    -0.012 A 
HETATM    2  C6  UNL     1      30.717  48.401  17.891  1.00  0.00     0.056 A 
HETATM    3  C7  UNL     1      32.107  48.683  18.303  1.00  0.00     0.077 C 
HETATM    4  O1  UNL     1      30.440  47.860  16.696  1.00  0.00    -0.319 OA
HETATM    5  C8  UNL     1      29.156  47.717  16.571  1.00  0.00     0.064 A 
HETATM    6  C9  UNL     1      28.427  47.147  15.378  1.00  0.00     0.077 C 
HETATM    7  C10 UNL     1      28.552  48.181  17.728  1.00  0.00     0.048 A 
ENDROOT
BRANCH   7   8
HETATM    8  C11 UNL     1      27.127  48.195  17.987  1.00  0.00     0.163 C 
HETATM    9  O2  UNL     1      26.438  49.072  17.440  1.00  0.00    -0.292 OA
BRANCH   8  10
HETATM   10  C12 UNL     1      26.552  47.180  18.873  1.00  0.00     0.088 C 
BRANCH  10  11
HETATM   11  C13 UNL     1      25.230  46.635  18.407  1.00  0.00    -0.012 C 
HETATM   12  C14 UNL     1      24.289  46.254  19.497  1.00  0.00     0.010 C 
BRANCH  11  13
HETATM   13  C15 UNL     1      25.378  45.568  17.341  1.00  0.00     0.000 C 
HETATM   14  C16 UNL     1      24.705  46.067  16.065  1.00  0.00     0.005 C 
ENDBRANCH  11  13
ENDBRANCH  10  11
ENDBRANCH   8  10
ENDBRANCH   7   8
BRANCH   1  15
HETATM   15  C4  UNL     1      29.292  49.173  19.919  1.00  0.00     0.042 C 
BRANCH  15  16
HETATM   16  C3  UNL     1      29.655  48.438  21.128  1.00  0.00     0.004 C 
BRANCH  16  17
HETATM   17  C2  UNL     1      28.604  48.006  22.100  1.00  0.00    -0.004 C 
HETATM   18  C1  UNL     1      29.152  47.698  23.478  1.00  0.00     0.005 C 
ENDBRANCH  16  17
ENDBRANCH  15  16
ENDBRANCH   1  15
TORSDOF 7
ENDMDL
MODEL 5
REMARK VINA RESULT: -6.481798684      1.716      4.693
REMARK  7 active torsions:
REMARK  status: ('A' for Active; 'I' for Inactive)
REMARK    1  A    between atoms: C2_2  and  C3_3 
REMARK    2  A    between atoms: C3_3  and  C4_4 
REMARK    3  A    between atoms: C4_4  and  C5_5 
REMARK    4  A    between atoms: C10_11  and  C11_12 
REMARK    5  A    between atoms: C11_12  and  C12_14 
REMARK    6  A    between atoms: C12_14  and  C13_15 
REMARK    7  A    between atoms: C13_15  and  C15_17 
ROOT
HETATM    1  C5  UNL     1      27.844  46.738  21.728  1.00  0.00    -0.012 A 
HETATM    2  C6  UNL     1      28.237  47.258  22.921  1.00  0.00     0.056 A 
HETATM    3  C7  UNL     1      29.588  47.717  23.300  1.00  0.00     0.077 C 
HETATM    4  O1  UNL     1      27.213  47.313  23.786  1.00  0.00    -0.319 OA
HETATM    5  C8  UNL     1      26.141  46.849  23.221  1.00  0.00     0.064 A 
HETATM    6  C9  UNL     1      24.772  46.734  23.848  1.00  0.00     0.077 C 
HETATM    7  C10 UNL     1      26.461  46.469  21.928  1.00  0.00     0.048 A 
ENDROOT
BRANCH   7   8
HETATM    8  C11 UNL     1      25.540  45.901  20.965  1.00  0.00     0.163 C 
HETATM    9  O2  UNL     1      25.288  44.687  21.036  1.00  0.00    -0.292 OA
BRANCH   8  10
HETATM   10  C12 UNL     1      24.939  46.773  19.953  1.00  0.00     0.088 C 
BRANCH  10  11
HETATM   11  C13 UNL     1      25.593  46.685  18.600  1.00  0.00    -0.012 C 
HETATM   12  C14 UNL     1      25.611  47.960  17.829  1.00  0.00     0.010 C 
BRANCH  11  13
HETATM   13  C15 UNL     1      25.108  45.500  17.790  1.00  0.00     0.000 C 
HETATM   14  C16 UNL     1      24.669  46.004  16.418  1.00  0.00     0.005 C 
ENDBRANCH  11  13
ENDBRANCH  10  11
ENDBRANCH   8  10
ENDBRANCH   7   8
BRANCH   1  15
HETATM   15  C4  UNL     1      28.507  46.467  20.464  1.00  0.00     0.042 C 
BRANCH  15  16
HETATM   16  C3  UNL     1      28.950  47.557  19.599  1.00  0.00     0.004 C 
BRANCH  16  17
HETATM   17  C2  UNL     1      30.346  48.084  19.692  1.00  0.00    -0.004 C 
HETATM   18  C1  UNL     1      30.410  49.547  20.078  1.00  0.00     0.005 C 
ENDBRANCH  16  17
ENDBRANCH  15  16
ENDBRANCH   1  15
TORSDOF 7
ENDMDL
