MODEL 1
REMARK VINA RESULT: -7.583251028      0.000      0.000
REMARK  7 active torsions:
REMARK  status: ('A' for Active; 'I' for Inactive)
REMARK    1  A    between atoms: O1_1  and  C1_3 
REMARK    2  A    between atoms: C1_3  and  C2_4 
REMARK    3  A    between atoms: N1_6  and  C4_7 
REMARK    4  A    between atoms: N2_9  and  C6_10 
REMARK    5  A    between atoms: N3_13  and  C8_14 
REMARK    6  A    between atoms: C14_22  and  O2_23 
REMARK    7  A    between atoms: C15_25  and  O3_26 
ROOT
HETATM    1  C4  UNL     1      -3.871   2.117  13.184  1.00  0.00     0.151 C 
HETATM    2  C5  UNL     1      -3.274   3.452  12.728  1.00  0.00     0.304 C 
HETATM    3  N2  UNL     1      -2.477   2.926  11.605  1.00  0.00     0.128 N 
HETATM    4  C14 UNL     1      -3.391   2.093  10.877  1.00  0.00     0.388 C 
HETATM    5  C15 UNL     1      -4.379   1.549  11.922  1.00  0.00     0.202 C 
ENDROOT
BRANCH   3   6
HETATM    6  C6  UNL     1      -1.931   4.027  10.838  1.00  0.00     0.250 C 
HETATM    7  C7  UNL     1      -2.386   5.333  11.414  1.00  0.00     0.128 C 
HETATM    8  S1  UNL     1      -0.880   5.951  12.270  1.00  0.00    -0.080 SA
HETATM    9  N3  UNL     1       0.233   4.781  11.564  1.00  0.00    -0.252 NA
HETATM   10  C13 UNL     1      -0.497   4.015  10.603  1.00  0.00     0.139 C 
BRANCH   9  11
HETATM   11  C8  UNL     1       1.355   5.435  10.934  1.00  0.00     0.075 C 
HETATM   12  C9  UNL     1       1.762   6.725  11.580  1.00  0.00     0.027 C 
HETATM   13  C10 UNL     1       3.162   6.480  12.123  1.00  0.00     0.081 C 
HETATM   14  C11 UNL     1       3.727   5.499  11.115  1.00  0.00     0.245 C 
HETATM   15  F1  UNL     1       4.868   4.891  11.535  1.00  0.00    -0.206 F 
HETATM   16  F2  UNL     1       3.855   6.159   9.913  1.00  0.00    -0.206 F 
HETATM   17  C12 UNL     1       2.551   4.517  11.007  1.00  0.00     0.099 C 
ENDBRANCH   9  11
ENDBRANCH   3   6
BRANCH   4  18
HETATM   18  O2  UNL     1      -4.075   2.765   9.855  1.00  0.00    -0.366 OA
ATOM     19  H2  UNL     1      -3.979   3.710   9.888  1.00  0.00     0.212 HD
ENDBRANCH   4  18
BRANCH   1  20
HETATM   20  N1  UNL     1      -4.773   2.240  14.277  1.00  0.00    -0.342 N 
HETATM   21  C3  UNL     1      -4.884   1.282  15.249  1.00  0.00     0.119 A 
HETATM   22  C2  UNL     1      -5.829   1.664  16.174  1.00  0.00     0.049 A 
HETATM   23  N4  UNL     1      -6.275   2.845  15.753  1.00  0.00    -0.353 N 
HETATM   24  C16 UNL     1      -5.638   3.199  14.604  1.00  0.00     0.183 A 
ATOM     25  H4  UNL     1      -6.989   3.403  16.222  1.00  0.00     0.166 HD
BRANCH  22  26
HETATM   26  C1  UNL     1      -6.226   0.885  17.382  1.00  0.00     0.222 C 
BRANCH  26  27
HETATM   27  O1  UNL     1      -5.653  -0.396  17.318  1.00  0.00    -0.395 OA
ATOM     28  H1  UNL     1      -6.309  -1.046  17.541  1.00  0.00     0.209 HD
ENDBRANCH  26  27
ENDBRANCH  22  26
ENDBRANCH   1  20
BRANCH   5  29
HETATM   29  O3  UNL     1      -5.632   1.928  11.523  1.00  0.00    -0.389 OA
ATOM     30  H3  UNL     1      -6.173   2.383  12.159  1.00  0.00     0.210 HD
ENDBRANCH   5  29
TORSDOF 7
ENDMDL
MODEL 2
REMARK VINA RESULT: -7.561179689      1.501      2.074
REMARK  7 active torsions:
REMARK  status: ('A' for Active; 'I' for Inactive)
REMARK    1  A    between atoms: O1_1  and  C1_3 
REMARK    2  A    between atoms: C1_3  and  C2_4 
REMARK    3  A    between atoms: N1_6  and  C4_7 
REMARK    4  A    between atoms: N2_9  and  C6_10 
REMARK    5  A    between atoms: N3_13  and  C8_14 
REMARK    6  A    between atoms: C14_22  and  O2_23 
REMARK    7  A    between atoms: C15_25  and  O3_26 
ROOT
HETATM    1  C4  UNL     1      -3.869   2.222  13.180  1.00  0.00     0.151 C 
HETATM    2  C5  UNL     1      -3.341   3.573  12.689  1.00  0.00     0.304 C 
HETATM    3  N2  UNL     1      -2.527   3.061  11.571  1.00  0.00     0.128 N 
HETATM    4  C14 UNL     1      -3.405   2.168  10.870  1.00  0.00     0.388 C 
HETATM    5  C15 UNL     1      -4.358   1.601  11.935  1.00  0.00     0.202 C 
ENDROOT
BRANCH   3   6
HETATM    6  C6  UNL     1      -2.042   4.169  10.775  1.00  0.00     0.250 C 
HETATM    7  C7  UNL     1      -2.042   5.428  11.588  1.00  0.00     0.128 C 
HETATM    8  S1  UNL     1      -0.257   5.675  11.959  1.00  0.00    -0.080 SA
HETATM    9  N3  UNL     1       0.342   4.470  10.822  1.00  0.00    -0.252 NA
HETATM   10  C13 UNL     1      -0.778   3.976  10.084  1.00  0.00     0.139 C 
BRANCH   9  11
HETATM   11  C8  UNL     1       1.322   5.034   9.924  1.00  0.00     0.075 C 
HETATM   12  C9  UNL     1       2.432   4.098   9.550  1.00  0.00     0.027 C 
HETATM   13  C10 UNL     1       2.281   3.871   8.053  1.00  0.00     0.081 C 
HETATM   14  C11 UNL     1       1.724   5.201   7.585  1.00  0.00     0.245 C 
HETATM   15  F1  UNL     1       1.221   5.160   6.322  1.00  0.00    -0.206 F 
HETATM   16  F2  UNL     1       2.703   6.153   7.765  1.00  0.00    -0.206 F 
HETATM   17  C12 UNL     1       0.630   5.422   8.639  1.00  0.00     0.099 C 
ENDBRANCH   9  11
ENDBRANCH   3   6
BRANCH   4  18
HETATM   18  O2  UNL     1      -4.129   2.783   9.839  1.00  0.00    -0.366 OA
ATOM     19  H2  UNL     1      -3.584   3.233   9.205  1.00  0.00     0.212 HD
ENDBRANCH   4  18
BRANCH   1  20
HETATM   20  N1  UNL     1      -4.767   2.326  14.277  1.00  0.00    -0.342 N 
HETATM   21  C3  UNL     1      -4.879   1.348  15.230  1.00  0.00     0.119 A 
HETATM   22  C2  UNL     1      -5.820   1.715  16.166  1.00  0.00     0.049 A 
HETATM   23  N4  UNL     1      -6.264   2.906  15.769  1.00  0.00    -0.353 N 
HETATM   24  C16 UNL     1      -5.629   3.280  14.626  1.00  0.00     0.183 A 
ATOM     25  H4  UNL     1      -6.975   3.456  16.252  1.00  0.00     0.166 HD
BRANCH  22  26
HETATM   26  C1  UNL     1      -6.217   0.913  17.358  1.00  0.00     0.222 C 
BRANCH  26  27
HETATM   27  O1  UNL     1      -5.634  -0.363  17.276  1.00  0.00    -0.395 OA
ATOM     28  H1  UNL     1      -5.673  -0.782  18.127  1.00  0.00     0.209 HD
ENDBRANCH  26  27
ENDBRANCH  22  26
ENDBRANCH   1  20
BRANCH   5  29
HETATM   29  O3  UNL     1      -5.631   1.909  11.539  1.00  0.00    -0.389 OA
ATOM     30  H3  UNL     1      -5.727   2.476  10.782  1.00  0.00     0.210 HD
ENDBRANCH   5  29
TORSDOF 7
ENDMDL
MODEL 3
REMARK VINA RESULT: -7.519912324      4.670      8.727
REMARK  7 active torsions:
REMARK  status: ('A' for Active; 'I' for Inactive)
REMARK    1  A    between atoms: O1_1  and  C1_3 
REMARK    2  A    between atoms: C1_3  and  C2_4 
REMARK    3  A    between atoms: N1_6  and  C4_7 
REMARK    4  A    between atoms: N2_9  and  C6_10 
REMARK    5  A    between atoms: N3_13  and  C8_14 
REMARK    6  A    between atoms: C14_22  and  O2_23 
REMARK    7  A    between atoms: C15_25  and  O3_26 
ROOT
HETATM    1  C4  UNL     1      -0.074   4.001  11.462  1.00  0.00     0.151 C 
HETATM    2  C5  UNL     1      -1.490   3.454  11.253  1.00  0.00     0.304 C 
HETATM    3  N2  UNL     1      -1.989   3.702  12.618  1.00  0.00     0.128 N 
HETATM    4  C14 UNL     1      -1.617   5.060  12.893  1.00  0.00     0.388 C 
HETATM    5  C15 UNL     1      -0.329   5.309  12.092  1.00  0.00     0.202 C 
ENDROOT
BRANCH   3   6
HETATM    6  C6  UNL     1      -3.415   3.451  12.668  1.00  0.00     0.250 C 
HETATM    7  C7  UNL     1      -3.792   2.413  11.655  1.00  0.00     0.128 C 
HETATM    8  S1  UNL     1      -4.086   0.921  12.687  1.00  0.00    -0.080 SA
HETATM    9  N3  UNL     1      -4.081   1.758  14.238  1.00  0.00    -0.252 NA
HETATM   10  C13 UNL     1      -3.984   3.159  13.973  1.00  0.00     0.139 C 
BRANCH   9  11
HETATM   11  C8  UNL     1      -5.279   1.475  14.993  1.00  0.00     0.075 C 
HETATM   12  C9  UNL     1      -5.034   0.837  16.328  1.00  0.00     0.027 C 
HETATM   13  C10 UNL     1      -5.519   1.851  17.354  1.00  0.00     0.081 C 
HETATM   14  C11 UNL     1      -6.662   2.523  16.621  1.00  0.00     0.245 C 
HETATM   15  F1  UNL     1      -7.078   3.675  17.212  1.00  0.00    -0.206 F 
HETATM   16  F2  UNL     1      -7.661   1.589  16.454  1.00  0.00    -0.206 F 
HETATM   17  C12 UNL     1      -5.999   2.775  15.259  1.00  0.00     0.099 C 
ENDBRANCH   9  11
ENDBRANCH   3   6
BRANCH   4  18
HETATM   18  O2  UNL     1      -2.601   5.996  12.546  1.00  0.00    -0.366 OA
ATOM     19  H2  UNL     1      -2.388   6.887  12.799  1.00  0.00     0.212 HD
ENDBRANCH   4  18
BRANCH   1  20
HETATM   20  N1  UNL     1       0.729   3.964  10.289  1.00  0.00    -0.342 N 
HETATM   21  C3  UNL     1       0.193   3.824   9.036  1.00  0.00     0.119 A 
HETATM   22  C2  UNL     1       1.201   3.820   8.097  1.00  0.00     0.049 A 
HETATM   23  N4  UNL     1       2.328   3.956   8.791  1.00  0.00    -0.353 N 
HETATM   24  C16 UNL     1       2.048   4.044  10.119  1.00  0.00     0.183 A 
ATOM     25  H4  UNL     1       3.264   3.991   8.386  1.00  0.00     0.166 HD
BRANCH  22  26
HETATM   26  C1  UNL     1       1.012   3.692   6.624  1.00  0.00     0.222 C 
BRANCH  26  27
HETATM   27  O1  UNL     1       1.902   2.728   6.122  1.00  0.00    -0.395 OA
ATOM     28  H1  UNL     1       1.443   1.904   6.008  1.00  0.00     0.209 HD
ENDBRANCH  26  27
ENDBRANCH  22  26
ENDBRANCH   1  20
BRANCH   5  29
HETATM   29  O3  UNL     1      -0.572   6.368  11.261  1.00  0.00    -0.389 OA
ATOM     30  H3  UNL     1       0.154   6.954  11.079  1.00  0.00     0.210 HD
ENDBRANCH   5  29
TORSDOF 7
ENDMDL
MODEL 4
REMARK VINA RESULT: -7.506987700      1.567      1.769
REMARK  7 active torsions:
REMARK  status: ('A' for Active; 'I' for Inactive)
REMARK    1  A    between atoms: O1_1  and  C1_3 
REMARK    2  A    between atoms: C1_3  and  C2_4 
REMARK    3  A    between atoms: N1_6  and  C4_7 
REMARK    4  A    between atoms: N2_9  and  C6_10 
REMARK    5  A    between atoms: N3_13  and  C8_14 
REMARK    6  A    between atoms: C14_22  and  O2_23 
REMARK    7  A    between atoms: C15_25  and  O3_26 
ROOT
HETATM    1  C4  UNL     1      -3.845   2.006  13.135  1.00  0.00     0.151 C 
HETATM    2  C5  UNL     1      -3.184   3.288  12.621  1.00  0.00     0.304 C 
HETATM    3  N2  UNL     1      -2.503   2.694  11.456  1.00  0.00     0.128 N 
HETATM    4  C14 UNL     1      -3.522   1.922  10.802  1.00  0.00     0.388 C 
HETATM    5  C15 UNL     1      -4.475   1.463  11.918  1.00  0.00     0.202 C 
ENDROOT
BRANCH   3   6
HETATM    6  C6  UNL     1      -1.932   3.744  10.638  1.00  0.00     0.250 C 
HETATM    7  C7  UNL     1      -1.304   4.791  11.506  1.00  0.00     0.128 C 
HETATM    8  S1  UNL     1       0.495   4.463  11.308  1.00  0.00    -0.080 SA
HETATM    9  N3  UNL     1       0.337   3.354   9.947  1.00  0.00    -0.252 NA
HETATM   10  C13 UNL     1      -1.041   3.329   9.568  1.00  0.00     0.139 C 
BRANCH   9  11
HETATM   11  C8  UNL     1       1.155   3.771   8.832  1.00  0.00     0.075 C 
HETATM   12  C9  UNL     1       0.716   5.050   8.186  1.00  0.00     0.027 C 
HETATM   13  C10 UNL     1       1.852   6.034   8.428  1.00  0.00     0.081 C 
HETATM   14  C11 UNL     1       3.066   5.127   8.418  1.00  0.00     0.245 C 
HETATM   15  F1  UNL     1       4.187   5.720   8.907  1.00  0.00    -0.206 F 
HETATM   16  F2  UNL     1       3.208   4.631   7.140  1.00  0.00    -0.206 F 
HETATM   17  C12 UNL     1       2.564   3.994   9.326  1.00  0.00     0.099 C 
ENDBRANCH   9  11
ENDBRANCH   3   6
BRANCH   4  18
HETATM   18  O2  UNL     1      -4.222   2.631   9.817  1.00  0.00    -0.366 OA
ATOM     19  H2  UNL     1      -4.417   2.117   9.042  1.00  0.00     0.212 HD
ENDBRANCH   4  18
BRANCH   1  20
HETATM   20  N1  UNL     1      -4.661   2.206  14.282  1.00  0.00    -0.342 N 
HETATM   21  C3  UNL     1      -4.790   1.261  15.265  1.00  0.00     0.119 A 
HETATM   22  C2  UNL     1      -5.638   1.723  16.247  1.00  0.00     0.049 A 
HETATM   23  N4  UNL     1      -6.009   2.938  15.848  1.00  0.00    -0.353 N 
HETATM   24  C16 UNL     1      -5.419   3.235  14.658  1.00  0.00     0.183 A 
ATOM     25  H4  UNL     1      -6.641   3.555  16.358  1.00  0.00     0.166 HD
BRANCH  22  26
HETATM   26  C1  UNL     1      -6.022   0.981  17.482  1.00  0.00     0.222 C 
BRANCH  26  27
HETATM   27  O1  UNL     1      -5.664  -0.370  17.343  1.00  0.00    -0.395 OA
ATOM     28  H1  UNL     1      -5.936  -0.849  18.117  1.00  0.00     0.209 HD
ENDBRANCH  26  27
ENDBRANCH  22  26
ENDBRANCH   1  20
BRANCH   5  29
HETATM   29  O3  UNL     1      -5.721   1.928  11.596  1.00  0.00    -0.389 OA
ATOM     30  H3  UNL     1      -5.931   2.820  11.847  1.00  0.00     0.210 HD
ENDBRANCH   5  29
TORSDOF 7
ENDMDL
MODEL 5
REMARK VINA RESULT: -7.343951365      5.018      8.382
REMARK  7 active torsions:
REMARK  status: ('A' for Active; 'I' for Inactive)
REMARK    1  A    between atoms: O1_1  and  C1_3 
REMARK    2  A    between atoms: C1_3  and  C2_4 
REMARK    3  A    between atoms: N1_6  and  C4_7 
REMARK    4  A    between atoms: N2_9  and  C6_10 
REMARK    5  A    between atoms: N3_13  and  C8_14 
REMARK    6  A    between atoms: C14_22  and  O2_23 
REMARK    7  A    between atoms: C15_25  and  O3_26 
ROOT
HETATM    1  C4  UNL     1      -2.402   4.003  10.217  1.00  0.00     0.151 C 
HETATM    2  C5  UNL     1      -3.213   4.593  11.375  1.00  0.00     0.304 C 
HETATM    3  N2  UNL     1      -2.583   3.816  12.459  1.00  0.00     0.128 N 
HETATM    4  C14 UNL     1      -1.174   3.958  12.229  1.00  0.00     0.388 C 
HETATM    5  C15 UNL     1      -1.017   4.121  10.708  1.00  0.00     0.202 C 
ENDROOT
BRANCH   3   6
HETATM    6  C6  UNL     1      -3.032   4.317  13.742  1.00  0.00     0.250 C 
HETATM    7  C7  UNL     1      -4.099   5.352  13.547  1.00  0.00     0.128 C 
HETATM    8  S1  UNL     1      -5.632   4.453  14.021  1.00  0.00    -0.080 SA
HETATM    9  N3  UNL     1      -4.823   3.061  14.739  1.00  0.00    -0.252 NA
HETATM   10  C13 UNL     1      -3.418   3.328  14.733  1.00  0.00     0.139 C 
BRANCH   9  11
HETATM   11  C8  UNL     1      -5.282   2.824  16.087  1.00  0.00     0.075 C 
HETATM   12  C9  UNL     1      -6.772   2.838  16.246  1.00  0.00     0.027 C 
HETATM   13  C10 UNL     1      -7.146   1.423  16.662  1.00  0.00     0.081 C 
HETATM   14  C11 UNL     1      -5.933   0.996  17.464  1.00  0.00     0.245 C 
HETATM   15  F1  UNL     1      -5.888  -0.342  17.702  1.00  0.00    -0.206 F 
HETATM   16  F2  UNL     1      -5.890   1.768  18.604  1.00  0.00    -0.206 F 
HETATM   17  C12 UNL     1      -4.811   1.456  16.522  1.00  0.00     0.099 C 
ENDBRANCH   9  11
ENDBRANCH   3   6
BRANCH   4  18
HETATM   18  O2  UNL     1      -0.599   5.043  12.902  1.00  0.00    -0.366 OA
ATOM     19  H2  UNL     1       0.247   4.849  13.288  1.00  0.00     0.212 HD
ENDBRANCH   4  18
BRANCH   1  20
HETATM   20  N1  UNL     1      -2.719   4.571   8.953  1.00  0.00    -0.342 N 
HETATM   21  C3  UNL     1      -3.896   5.233   8.719  1.00  0.00     0.119 A 
HETATM   22  C2  UNL     1      -3.931   5.673   7.415  1.00  0.00     0.049 A 
HETATM   23  N4  UNL     1      -2.780   5.274   6.878  1.00  0.00    -0.353 N 
HETATM   24  C16 UNL     1      -2.042   4.607   7.806  1.00  0.00     0.183 A 
ATOM     25  H4  UNL     1      -2.494   5.444   5.914  1.00  0.00     0.166 HD
BRANCH  22  26
HETATM   26  C1  UNL     1      -5.047   6.437   6.788  1.00  0.00     0.222 C 
BRANCH  26  27
HETATM   27  O1  UNL     1      -6.219   5.662   6.821  1.00  0.00    -0.395 OA
ATOM     28  H1  UNL     1      -6.837   5.998   6.183  1.00  0.00     0.209 HD
ENDBRANCH  26  27
ENDBRANCH  22  26
ENDBRANCH   1  20
BRANCH   5  29
HETATM   29  O3  UNL     1      -0.376   5.312  10.497  1.00  0.00    -0.389 OA
ATOM     30  H3  UNL     1       0.529   5.376  10.779  1.00  0.00     0.210 HD
ENDBRANCH   5  29
TORSDOF 7
ENDMDL
