MODEL 1
REMARK VINA RESULT: -8.489804219      0.000      0.000
REMARK  8 active torsions:
REMARK  status: ('A' for Active; 'I' for Inactive)
REMARK    1  A    between atoms: C2_2  and  O2_4 
REMARK    2  A    between atoms: O2_4  and  C3_5 
REMARK    3  A    between atoms: C3_5  and  C4_6 
REMARK    4  A    between atoms: C5_8  and  C6_9 
REMARK    5  A    between atoms: N1_12  and  C9_13 
REMARK    6  A    between atoms: C15_22  and  O5_23 
REMARK    7  A    between atoms: C16_25  and  O6_26 
REMARK    8  A    between atoms: C17_28  and  O7_29 
ROOT
HETATM    1  C4  UNL     1      -4.379   1.766  13.825  1.00  0.00     0.178 C 
HETATM    2  O3  UNL     1      -3.725   2.995  13.878  1.00  0.00    -0.368 OA
HETATM    3  C5  UNL     1      -4.338   3.788  12.904  1.00  0.00     0.188 C 
HETATM    4  C15 UNL     1      -4.030   3.285  11.514  1.00  0.00     0.183 C 
HETATM    5  C16 UNL     1      -4.322   1.807  11.375  1.00  0.00     0.181 C 
HETATM    6  C17 UNL     1      -3.909   1.036  12.611  1.00  0.00     0.180 C 
ENDROOT
BRANCH   3   7
HETATM    7  C6  UNL     1      -3.798   5.163  13.033  1.00  0.00    -0.010 A 
HETATM    8  C7  UNL     1      -4.224   6.339  12.471  1.00  0.00     0.028 A 
HETATM    9  C8  UNL     1      -3.377   7.342  12.903  1.00  0.00     0.092 A 
HETATM   10  N1  UNL     1      -2.446   6.831  13.710  1.00  0.00    -0.353 N 
HETATM   11  C14 UNL     1      -2.686   5.530  13.795  1.00  0.00     0.101 A 
BRANCH  10  12
HETATM   12  C9  UNL     1      -1.389   7.586  14.351  1.00  0.00     0.191 C 
HETATM   13  C10 UNL     1      -1.913   8.703  15.202  1.00  0.00     0.036 C 
HETATM   14  C11 UNL     1      -1.628  10.068  14.653  1.00  0.00     0.029 C 
HETATM   15  C12 UNL     1      -1.635  10.150  13.166  1.00  0.00     0.174 C 
HETATM   16  O4  UNL     1      -1.008   9.116  12.522  1.00  0.00    -0.325 OA
HETATM   17  C13 UNL     1      -0.431   8.181  13.342  1.00  0.00     0.375 C 
HETATM   18  F1  UNL     1       0.044   7.153  12.521  1.00  0.00    -0.173 F 
HETATM   19  F2  UNL     1       0.658   8.652  14.048  1.00  0.00    -0.173 F 
ENDBRANCH  10  12
ENDBRANCH   3   7
BRANCH   4  20
HETATM   20  O5  UNL     1      -2.716   3.543  11.139  1.00  0.00    -0.390 OA
ATOM     21  H5  UNL     1      -2.660   4.190  10.446  1.00  0.00     0.210 HD
ENDBRANCH   4  20
BRANCH   1  22
HETATM   22  C3  UNL     1      -4.171   0.959  15.085  1.00  0.00     0.213 C 
BRANCH  22  23
HETATM   23  O2  UNL     1      -5.332   0.310  15.513  1.00  0.00    -0.319 OA
BRANCH  23  24
HETATM   24  C2  UNL     1      -5.889   0.643  16.737  1.00  0.00     0.254 C 
HETATM   25  C1  UNL     1      -7.168   1.434  16.825  1.00  0.00     0.126 C 
HETATM   26  O1  UNL     1      -5.291   0.262  17.774  1.00  0.00    -0.266 OA
ENDBRANCH  23  24
ENDBRANCH  22  23
ENDBRANCH   1  22
BRANCH   5  27
HETATM   27  O6  UNL     1      -5.640   1.528  11.108  1.00  0.00    -0.390 OA
ATOM     28  H6  UNL     1      -5.763   0.780  10.535  1.00  0.00     0.210 HD
ENDBRANCH   5  27
BRANCH   6  29
HETATM   29  O7  UNL     1      -4.506  -0.221  12.590  1.00  0.00    -0.390 OA
ATOM     30  H7  UNL     1      -5.119  -0.253  11.865  1.00  0.00     0.210 HD
ENDBRANCH   6  29
TORSDOF 8
ENDMDL
MODEL 2
REMARK VINA RESULT: -8.040512690      1.368      1.767
REMARK  8 active torsions:
REMARK  status: ('A' for Active; 'I' for Inactive)
REMARK    1  A    between atoms: C2_2  and  O2_4 
REMARK    2  A    between atoms: O2_4  and  C3_5 
REMARK    3  A    between atoms: C3_5  and  C4_6 
REMARK    4  A    between atoms: C5_8  and  C6_9 
REMARK    5  A    between atoms: N1_12  and  C9_13 
REMARK    6  A    between atoms: C15_22  and  O5_23 
REMARK    7  A    between atoms: C16_25  and  O6_26 
REMARK    8  A    between atoms: C17_28  and  O7_29 
ROOT
HETATM    1  C4  UNL     1      -4.238   1.557  13.887  1.00  0.00     0.178 C 
HETATM    2  O3  UNL     1      -3.329   2.602  14.044  1.00  0.00    -0.368 OA
HETATM    3  C5  UNL     1      -3.753   3.602  13.163  1.00  0.00     0.188 C 
HETATM    4  C15 UNL     1      -3.563   3.182  11.725  1.00  0.00     0.183 C 
HETATM    5  C16 UNL     1      -4.173   1.825  11.452  1.00  0.00     0.181 C 
HETATM    6  C17 UNL     1      -3.939   0.865  12.600  1.00  0.00     0.180 C 
ENDROOT
BRANCH   3   7
HETATM    7  C6  UNL     1      -2.925   4.806  13.411  1.00  0.00    -0.010 A 
HETATM    8  C7  UNL     1      -1.627   4.918  13.841  1.00  0.00     0.028 A 
HETATM    9  C8  UNL     1      -1.323   6.264  13.916  1.00  0.00     0.092 A 
HETATM   10  N1  UNL     1      -2.382   6.987  13.547  1.00  0.00    -0.353 N 
HETATM   11  C14 UNL     1      -3.345   6.129  13.244  1.00  0.00     0.101 A 
BRANCH  10  12
HETATM   12  C9  UNL     1      -2.431   8.434  13.502  1.00  0.00     0.191 C 
HETATM   13  C10 UNL     1      -1.713   8.999  12.314  1.00  0.00     0.036 C 
HETATM   14  C11 UNL     1      -0.451   9.730  12.660  1.00  0.00     0.029 C 
HETATM   15  C12 UNL     1       0.287   9.170  13.825  1.00  0.00     0.174 C 
HETATM   16  O4  UNL     1      -0.493   8.810  14.892  1.00  0.00    -0.325 OA
HETATM   17  C13 UNL     1      -1.834   9.057  14.745  1.00  0.00     0.375 C 
HETATM   18  F1  UNL     1      -2.475   8.517  15.864  1.00  0.00    -0.173 F 
HETATM   19  F2  UNL     1      -2.156  10.399  14.718  1.00  0.00    -0.173 F 
ENDBRANCH  10  12
ENDBRANCH   3   7
BRANCH   4  20
HETATM   20  O5  UNL     1      -2.225   3.182  11.349  1.00  0.00    -0.390 OA
ATOM     21  H5  UNL     1      -1.908   4.054  11.144  1.00  0.00     0.210 HD
ENDBRANCH   4  20
BRANCH   1  22
HETATM   22  C3  UNL     1      -4.211   0.605  15.060  1.00  0.00     0.213 C 
BRANCH  22  23
HETATM   23  O2  UNL     1      -5.488   0.226  15.481  1.00  0.00    -0.319 OA
BRANCH  23  24
HETATM   24  C2  UNL     1      -5.935   0.603  16.736  1.00  0.00     0.254 C 
HETATM   25  C1  UNL     1      -7.184   1.428  16.908  1.00  0.00     0.126 C 
HETATM   26  O1  UNL     1      -5.262   0.234  17.731  1.00  0.00    -0.266 OA
ENDBRANCH  23  24
ENDBRANCH  22  23
ENDBRANCH   1  22
BRANCH   5  27
HETATM   27  O6  UNL     1      -5.520   1.868  11.189  1.00  0.00    -0.390 OA
ATOM     28  H6  UNL     1      -6.063   1.783  11.964  1.00  0.00     0.210 HD
ENDBRANCH   5  27
BRANCH   6  29
HETATM   29  O7  UNL     1      -4.798  -0.223  12.472  1.00  0.00    -0.390 OA
ATOM     30  H7  UNL     1      -4.637  -0.639  11.632  1.00  0.00     0.210 HD
ENDBRANCH   6  29
TORSDOF 8
ENDMDL
MODEL 3
REMARK VINA RESULT: -7.901937994      2.357      3.267
REMARK  8 active torsions:
REMARK  status: ('A' for Active; 'I' for Inactive)
REMARK    1  A    between atoms: C2_2  and  O2_4 
REMARK    2  A    between atoms: O2_4  and  C3_5 
REMARK    3  A    between atoms: C3_5  and  C4_6 
REMARK    4  A    between atoms: C5_8  and  C6_9 
REMARK    5  A    between atoms: N1_12  and  C9_13 
REMARK    6  A    between atoms: C15_22  and  O5_23 
REMARK    7  A    between atoms: C16_25  and  O6_26 
REMARK    8  A    between atoms: C17_28  and  O7_29 
ROOT
HETATM    1  C4  UNL     1      -4.471   1.714  13.669  1.00  0.00     0.178 C 
HETATM    2  O3  UNL     1      -3.968   3.011  13.580  1.00  0.00    -0.368 OA
HETATM    3  C5  UNL     1      -4.602   3.583  12.473  1.00  0.00     0.188 C 
HETATM    4  C15 UNL     1      -4.146   2.938  11.186  1.00  0.00     0.183 C 
HETATM    5  C16 UNL     1      -4.256   1.430  11.245  1.00  0.00     0.181 C 
HETATM    6  C17 UNL     1      -3.840   0.891  12.597  1.00  0.00     0.180 C 
ENDROOT
BRANCH   3   7
HETATM    7  C6  UNL     1      -4.235   5.018  12.431  1.00  0.00    -0.010 A 
HETATM    8  C7  UNL     1      -3.309   5.719  13.160  1.00  0.00     0.028 A 
HETATM    9  C8  UNL     1      -3.355   7.036  12.744  1.00  0.00     0.092 A 
HETATM   10  N1  UNL     1      -4.273   7.175  11.786  1.00  0.00    -0.353 N 
HETATM   11  C14 UNL     1      -4.806   5.978  11.590  1.00  0.00     0.101 A 
BRANCH  10  12
HETATM   12  C9  UNL     1      -4.597   8.417  11.113  1.00  0.00     0.191 C 
HETATM   13  C10 UNL     1      -6.072   8.601  10.921  1.00  0.00     0.036 C 
HETATM   14  C11 UNL     1      -6.513   8.501   9.493  1.00  0.00     0.029 C 
HETATM   15  C12 UNL     1      -5.734   7.534   8.671  1.00  0.00     0.174 C 
HETATM   16  O4  UNL     1      -4.378   7.566   8.864  1.00  0.00    -0.325 OA
HETATM   17  C13 UNL     1      -3.936   8.510   9.755  1.00  0.00     0.375 C 
HETATM   18  F1  UNL     1      -2.561   8.310   9.915  1.00  0.00    -0.173 F 
HETATM   19  F2  UNL     1      -4.095   9.809   9.317  1.00  0.00    -0.173 F 
ENDBRANCH  10  12
ENDBRANCH   3   7
BRANCH   4  20
HETATM   20  O5  UNL     1      -2.849   3.303  10.845  1.00  0.00    -0.390 OA
ATOM     21  H5  UNL     1      -2.199   2.873  11.388  1.00  0.00     0.210 HD
ENDBRANCH   4  20
BRANCH   1  22
HETATM   22  C3  UNL     1      -4.256   1.118  15.041  1.00  0.00     0.213 C 
BRANCH  22  23
HETATM   23  O2  UNL     1      -5.340   0.353  15.477  1.00  0.00    -0.319 OA
BRANCH  23  24
HETATM   24  C2  UNL     1      -5.908   0.614  16.713  1.00  0.00     0.254 C 
HETATM   25  C1  UNL     1      -7.187   1.400  16.836  1.00  0.00     0.126 C 
HETATM   26  O1  UNL     1      -5.320   0.173  17.732  1.00  0.00    -0.266 OA
ENDBRANCH  23  24
ENDBRANCH  22  23
ENDBRANCH   1  22
BRANCH   5  27
HETATM   27  O6  UNL     1      -5.512   0.957  10.955  1.00  0.00    -0.390 OA
ATOM     28  H6  UNL     1      -6.181   1.256  11.560  1.00  0.00     0.210 HD
ENDBRANCH   5  27
BRANCH   6  29
HETATM   29  O7  UNL     1      -4.285  -0.422  12.726  1.00  0.00    -0.390 OA
ATOM     30  H7  UNL     1      -5.230  -0.432  12.634  1.00  0.00     0.210 HD
ENDBRANCH   6  29
TORSDOF 8
ENDMDL
MODEL 4
REMARK VINA RESULT: -7.785332715      3.933      4.856
REMARK  8 active torsions:
REMARK  status: ('A' for Active; 'I' for Inactive)
REMARK    1  A    between atoms: C2_2  and  O2_4 
REMARK    2  A    between atoms: O2_4  and  C3_5 
REMARK    3  A    between atoms: C3_5  and  C4_6 
REMARK    4  A    between atoms: C5_8  and  C6_9 
REMARK    5  A    between atoms: N1_12  and  C9_13 
REMARK    6  A    between atoms: C15_22  and  O5_23 
REMARK    7  A    between atoms: C16_25  and  O6_26 
REMARK    8  A    between atoms: C17_28  and  O7_29 
ROOT
HETATM    1  C4  UNL     1      -3.697   2.559  12.790  1.00  0.00     0.178 C 
HETATM    2  O3  UNL     1      -2.430   3.126  12.658  1.00  0.00    -0.368 OA
HETATM    3  C5  UNL     1      -2.292   3.423  11.299  1.00  0.00     0.188 C 
HETATM    4  C15 UNL     1      -2.203   2.165  10.469  1.00  0.00     0.183 C 
HETATM    5  C16 UNL     1      -3.334   1.209  10.776  1.00  0.00     0.181 C 
HETATM    6  C17 UNL     1      -3.644   1.165  12.258  1.00  0.00     0.180 C 
ENDROOT
BRANCH   3   7
HETATM    7  C6  UNL     1      -1.033   4.186  11.128  1.00  0.00    -0.010 A 
HETATM    8  C7  UNL     1      -0.214   4.769  12.061  1.00  0.00     0.028 A 
HETATM    9  C8  UNL     1       0.834   5.366  11.386  1.00  0.00     0.092 A 
HETATM   10  N1  UNL     1       0.695   5.173  10.074  1.00  0.00    -0.353 N 
HETATM   11  C14 UNL     1      -0.416   4.470   9.905  1.00  0.00     0.101 A 
BRANCH  10  12
HETATM   12  C9  UNL     1       1.606   5.656   9.056  1.00  0.00     0.191 C 
HETATM   13  C10 UNL     1       0.907   6.024   7.783  1.00  0.00     0.036 C 
HETATM   14  C11 UNL     1       1.200   5.098   6.642  1.00  0.00     0.029 C 
HETATM   15  C12 UNL     1       1.406   3.678   7.036  1.00  0.00     0.174 C 
HETATM   16  O4  UNL     1       2.174   3.489   8.156  1.00  0.00    -0.325 OA
HETATM   17  C13 UNL     1       2.671   4.634   8.723  1.00  0.00     0.375 C 
HETATM   18  F1  UNL     1       3.313   4.258   9.907  1.00  0.00    -0.173 F 
HETATM   19  F2  UNL     1       3.618   5.275   7.950  1.00  0.00    -0.173 F 
ENDBRANCH  10  12
ENDBRANCH   3   7
BRANCH   4  20
HETATM   20  O5  UNL     1      -0.983   1.517  10.625  1.00  0.00    -0.390 OA
ATOM     21  H5  UNL     1      -0.329   2.073  11.032  1.00  0.00     0.210 HD
ENDBRANCH   4  20
BRANCH   1  22
HETATM   22  C3  UNL     1      -4.189   2.600  14.217  1.00  0.00     0.213 C 
BRANCH  22  23
HETATM   23  O2  UNL     1      -3.733   1.524  14.981  1.00  0.00    -0.319 OA
BRANCH  23  24
HETATM   24  C2  UNL     1      -4.641   0.763  15.700  1.00  0.00     0.254 C 
HETATM   25  C1  UNL     1      -5.407   1.347  16.859  1.00  0.00     0.126 C 
HETATM   26  O1  UNL     1      -4.806  -0.433  15.353  1.00  0.00    -0.266 OA
ENDBRANCH  23  24
ENDBRANCH  22  23
ENDBRANCH   1  22
BRANCH   5  27
HETATM   27  O6  UNL     1      -4.494   1.491  10.097  1.00  0.00    -0.390 OA
ATOM     28  H6  UNL     1      -5.220   1.729  10.664  1.00  0.00     0.210 HD
ENDBRANCH   5  27
BRANCH   6  29
HETATM   29  O7  UNL     1      -4.887   0.570  12.451  1.00  0.00    -0.390 OA
ATOM     30  H7  UNL     1      -5.164   0.174  11.632  1.00  0.00     0.210 HD
ENDBRANCH   6  29
TORSDOF 8
ENDMDL
MODEL 5
REMARK VINA RESULT: -7.772023261      1.067      1.312
REMARK  8 active torsions:
REMARK  status: ('A' for Active; 'I' for Inactive)
REMARK    1  A    between atoms: C2_2  and  O2_4 
REMARK    2  A    between atoms: O2_4  and  C3_5 
REMARK    3  A    between atoms: C3_5  and  C4_6 
REMARK    4  A    between atoms: C5_8  and  C6_9 
REMARK    5  A    between atoms: N1_12  and  C9_13 
REMARK    6  A    between atoms: C15_22  and  O5_23 
REMARK    7  A    between atoms: C16_25  and  O6_26 
REMARK    8  A    between atoms: C17_28  and  O7_29 
ROOT
HETATM    1  C4  UNL     1      -4.521   2.245  13.653  1.00  0.00     0.178 C 
HETATM    2  O3  UNL     1      -3.950   3.508  13.505  1.00  0.00    -0.368 OA
HETATM    3  C5  UNL     1      -4.573   4.072  12.388  1.00  0.00     0.188 C 
HETATM    4  C15 UNL     1      -4.177   3.355  11.120  1.00  0.00     0.183 C 
HETATM    5  C16 UNL     1      -4.366   1.858  11.238  1.00  0.00     0.181 C 
HETATM    6  C17 UNL     1      -3.954   1.349  12.603  1.00  0.00     0.180 C 
ENDROOT
BRANCH   3   7
HETATM    7  C6  UNL     1      -4.130   5.482  12.285  1.00  0.00    -0.010 A 
HETATM    8  C7  UNL     1      -4.397   6.428  11.329  1.00  0.00     0.028 A 
HETATM    9  C8  UNL     1      -3.742   7.590  11.693  1.00  0.00     0.092 A 
HETATM   10  N1  UNL     1      -3.083   7.398  12.836  1.00  0.00    -0.353 N 
HETATM   11  C14 UNL     1      -3.306   6.143  13.201  1.00  0.00     0.101 A 
BRANCH  10  12
HETATM   12  C9  UNL     1      -2.284   8.395  13.519  1.00  0.00     0.191 C 
HETATM   13  C10 UNL     1      -2.044   9.614  12.681  1.00  0.00     0.036 C 
HETATM   14  C11 UNL     1      -0.623   9.768  12.230  1.00  0.00     0.029 C 
HETATM   15  C12 UNL     1       0.083   8.485  11.962  1.00  0.00     0.174 C 
HETATM   16  O4  UNL     1      -0.135   7.496  12.885  1.00  0.00    -0.325 OA
HETATM   17  C13 UNL     1      -0.938   7.847  13.940  1.00  0.00     0.375 C 
HETATM   18  F1  UNL     1      -1.146   6.692  14.699  1.00  0.00    -0.173 F 
HETATM   19  F2  UNL     1      -0.371   8.777  14.788  1.00  0.00    -0.173 F 
ENDBRANCH  10  12
ENDBRANCH   3   7
BRANCH   4  20
HETATM   20  O5  UNL     1      -2.868   3.636  10.743  1.00  0.00    -0.390 OA
ATOM     21  H5  UNL     1      -2.707   3.440   9.828  1.00  0.00     0.210 HD
ENDBRANCH   4  20
BRANCH   1  22
HETATM   22  C3  UNL     1      -4.312   1.689  15.043  1.00  0.00     0.213 C 
BRANCH  22  23
HETATM   23  O2  UNL     1      -5.273   0.741  15.399  1.00  0.00    -0.319 OA
BRANCH  23  24
HETATM   24  C2  UNL     1      -5.751   0.707  16.698  1.00  0.00     0.254 C 
HETATM   25  C1  UNL     1      -6.389   1.917  17.330  1.00  0.00     0.126 C 
HETATM   26  O1  UNL     1      -5.635  -0.369  17.336  1.00  0.00    -0.266 OA
ENDBRANCH  23  24
ENDBRANCH  22  23
ENDBRANCH   1  22
BRANCH   5  27
HETATM   27  O6  UNL     1      -5.651   1.444  10.988  1.00  0.00    -0.390 OA
ATOM     28  H6  UNL     1      -5.907   0.676  11.485  1.00  0.00     0.210 HD
ENDBRANCH   5  27
BRANCH   6  29
HETATM   29  O7  UNL     1      -4.466   0.068  12.789  1.00  0.00    -0.390 OA
ATOM     30  H7  UNL     1      -4.738  -0.276  11.946  1.00  0.00     0.210 HD
ENDBRANCH   6  29
TORSDOF 8
ENDMDL
