MODEL 1
REMARK VINA RESULT: -7.819983397      0.000      0.000
REMARK  5 active torsions:
REMARK  status: ('A' for Active; 'I' for Inactive)
REMARK    1  A    between atoms: C6_7  and  N1_8 
REMARK    2  A    between atoms: C9_16  and  O4_18 
REMARK    3  A    between atoms: O4_18  and  C11_19 
REMARK    4  A    between atoms: C11_19  and  C12_20 
REMARK    5  A    between atoms: C14_22  and  O5_24 
ROOT
HETATM    1  C1  UNL     1      -2.528   1.032  11.117  1.00  0.00     0.042 C 
HETATM    2  C2  UNL     1      -1.311   1.667  10.584  1.00  0.00     0.150 C 
HETATM    3  O1  UNL     1      -1.488   2.400   9.420  1.00  0.00    -0.375 OA
HETATM    4  C3  UNL     1      -1.887   3.691   9.775  1.00  0.00     0.166 C 
HETATM    5  C4  UNL     1      -1.089   4.669   8.998  1.00  0.00     0.067 A 
HETATM    6  C5  UNL     1      -0.402   4.096   7.737  1.00  0.00     0.060 A 
HETATM    7  C6  UNL     1       0.350   4.589   9.005  1.00  0.00     0.216 A 
HETATM    8  C7  UNL     1       1.004   3.600   9.839  1.00  0.00     0.296 C 
HETATM    9  O2  UNL     1       2.124   3.216   9.428  1.00  0.00    -0.262 OA
HETATM   10  O3  UNL     1       0.579   3.030  11.006  1.00  0.00    -0.308 OA
HETATM   11  C8  UNL     1      -0.697   2.713  11.487  1.00  0.00     0.197 C 
HETATM   12  C9  UNL     1      -1.661   3.865  11.232  1.00  0.00     0.112 C 
HETATM   13  C10 UNL     1      -0.953   5.140  11.614  1.00  0.00     0.051 C 
ENDROOT
BRANCH  12  14
HETATM   14  O4  UNL     1      -2.781   3.774  12.033  1.00  0.00    -0.374 OA
BRANCH  14  15
HETATM   15  C11 UNL     1      -2.501   3.948  13.353  1.00  0.00     0.180 C 
BRANCH  15  16
HETATM   16  C12 UNL     1      -3.745   4.055  14.216  1.00  0.00     0.091 C 
HETATM   17  C13 UNL     1      -4.780   4.795  13.427  1.00  0.00     0.051 C 
HETATM   18  C14 UNL     1      -6.053   5.018  14.192  1.00  0.00     0.060 C 
HETATM   19  C15 UNL     1      -5.870   5.918  15.385  1.00  0.00     0.046 C 
HETATM   20  C16 UNL     1      -6.606   3.666  14.587  1.00  0.00     0.095 C 
HETATM   21  C17 UNL     1      -5.564   2.877  15.306  1.00  0.00     0.055 C 
HETATM   22  N2  UNL     1      -5.886   2.352  16.440  1.00  0.00    -0.401 N 
HETATM   23  C18 UNL     1      -4.219   2.724  14.706  1.00  0.00     0.287 C 
ATOM     24  H22 UNL     1      -6.813   2.457  16.853  1.00  0.00     0.155 HD
ATOM     25  H21 UNL     1      -5.174   1.812  16.931  1.00  0.00     0.155 HD
HETATM   26  F1  UNL     1      -3.378   2.287  15.738  1.00  0.00    -0.199 F 
HETATM   27  F2  UNL     1      -4.208   1.751  13.715  1.00  0.00    -0.199 F 
BRANCH  18  28
HETATM   28  O5  UNL     1      -6.969   5.630  13.338  1.00  0.00    -0.390 OA
ATOM     29  H5  UNL     1      -7.387   6.339  13.814  1.00  0.00     0.210 HD
ENDBRANCH  18  28
ENDBRANCH  15  16
ENDBRANCH  14  15
ENDBRANCH  12  14
BRANCH   7  30
HETATM   30  N1  UNL     1       1.123   5.796   8.735  1.00  0.00    -0.060 N 
ATOM     31  H13 UNL     1       0.970   6.075   7.765  1.00  0.00     0.275 HD
ATOM     32  H12 UNL     1       0.699   6.578   9.235  1.00  0.00     0.275 HD
ATOM     33  H11 UNL     1       2.125   5.790   8.922  1.00  0.00     0.275 HD
ENDBRANCH   7  30
TORSDOF 5
ENDMDL
MODEL 2
REMARK VINA RESULT: -7.416930401      2.669      6.953
REMARK  5 active torsions:
REMARK  status: ('A' for Active; 'I' for Inactive)
REMARK    1  A    between atoms: C6_7  and  N1_8 
REMARK    2  A    between atoms: C9_16  and  O4_18 
REMARK    3  A    between atoms: O4_18  and  C11_19 
REMARK    4  A    between atoms: C11_19  and  C12_20 
REMARK    5  A    between atoms: C14_22  and  O5_24 
ROOT
HETATM    1  C1  UNL     1      -3.009   0.329  11.042  1.00  0.00     0.042 C 
HETATM    2  C2  UNL     1      -3.768   1.158  11.996  1.00  0.00     0.150 C 
HETATM    3  O1  UNL     1      -2.997   1.898  12.879  1.00  0.00    -0.375 OA
HETATM    4  C3  UNL     1      -2.657   3.101  12.255  1.00  0.00     0.166 C 
HETATM    5  C4  UNL     1      -2.895   4.215  13.205  1.00  0.00     0.067 A 
HETATM    6  C5  UNL     1      -2.992   3.798  14.690  1.00  0.00     0.060 A 
HETATM    7  C6  UNL     1      -4.177   4.349  13.848  1.00  0.00     0.216 A 
HETATM    8  C7  UNL     1      -5.249   3.439  13.496  1.00  0.00     0.296 C 
HETATM    9  O2  UNL     1      -6.095   3.240  14.400  1.00  0.00    -0.262 OA
HETATM   10  O3  UNL     1      -5.471   2.769  12.326  1.00  0.00    -0.308 OA
HETATM   11  C8  UNL     1      -4.600   2.249  11.361  1.00  0.00     0.197 C 
HETATM   12  C9  UNL     1      -3.500   3.254  11.043  1.00  0.00     0.112 C 
HETATM   13  C10 UNL     1      -4.151   4.605  10.891  1.00  0.00     0.051 C 
ENDROOT
BRANCH  12  14
HETATM   14  O4  UNL     1      -2.887   2.968   9.840  1.00  0.00    -0.374 OA
BRANCH  14  15
HETATM   15  C11 UNL     1      -2.557   4.085   9.137  1.00  0.00     0.180 C 
BRANCH  15  16
HETATM   16  C12 UNL     1      -1.145   4.045   8.583  1.00  0.00     0.091 C 
HETATM   17  C13 UNL     1      -1.008   5.178   7.614  1.00  0.00     0.051 C 
HETATM   18  C14 UNL     1       0.338   5.221   6.947  1.00  0.00     0.060 C 
HETATM   19  C15 UNL     1       0.594   4.027   6.067  1.00  0.00     0.046 C 
HETATM   20  C16 UNL     1       1.391   5.361   8.025  1.00  0.00     0.095 C 
HETATM   21  C17 UNL     1       1.223   4.288   9.048  1.00  0.00     0.055 C 
HETATM   22  N2  UNL     1       2.264   3.592   9.362  1.00  0.00    -0.401 N 
HETATM   23  C18 UNL     1      -0.106   4.061   9.658  1.00  0.00     0.287 C 
ATOM     24  H22 UNL     1       3.180   3.749   8.941  1.00  0.00     0.155 HD
ATOM     25  H21 UNL     1       2.149   2.858  10.061  1.00  0.00     0.155 HD
HETATM   26  F1  UNL     1      -0.048   2.798  10.261  1.00  0.00    -0.199 F 
HETATM   27  F2  UNL     1      -0.378   4.991  10.654  1.00  0.00    -0.199 F 
BRANCH  18  28
HETATM   28  O5  UNL     1       0.385   6.357   6.142  1.00  0.00    -0.390 OA
ATOM     29  H5  UNL     1       0.303   6.080   5.236  1.00  0.00     0.210 HD
ENDBRANCH  18  28
ENDBRANCH  15  16
ENDBRANCH  14  15
ENDBRANCH  12  14
BRANCH   7  30
HETATM   30  N1  UNL     1      -4.597   5.667  14.312  1.00  0.00    -0.060 N 
ATOM     31  H13 UNL     1      -5.089   5.563  15.199  1.00  0.00     0.275 HD
ATOM     32  H12 UNL     1      -3.772   6.193  14.602  1.00  0.00     0.275 HD
ATOM     33  H11 UNL     1      -5.157   6.251  13.691  1.00  0.00     0.275 HD
ENDBRANCH   7  30
TORSDOF 5
ENDMDL
MODEL 3
REMARK VINA RESULT: -7.406848810      2.601      6.679
REMARK  5 active torsions:
REMARK  status: ('A' for Active; 'I' for Inactive)
REMARK    1  A    between atoms: C6_7  and  N1_8 
REMARK    2  A    between atoms: C9_16  and  O4_18 
REMARK    3  A    between atoms: O4_18  and  C11_19 
REMARK    4  A    between atoms: C11_19  and  C12_20 
REMARK    5  A    between atoms: C14_22  and  O5_24 
ROOT
HETATM    1  C1  UNL     1      -3.573  -0.303  11.532  1.00  0.00     0.042 C 
HETATM    2  C2  UNL     1      -4.240   0.701  12.379  1.00  0.00     0.150 C 
HETATM    3  O1  UNL     1      -3.402   1.412  13.224  1.00  0.00    -0.375 OA
HETATM    4  C3  UNL     1      -2.887   2.498  12.512  1.00  0.00     0.166 C 
HETATM    5  C4  UNL     1      -3.000   3.716  13.351  1.00  0.00     0.067 A 
HETATM    6  C5  UNL     1      -3.193   3.452  14.861  1.00  0.00     0.060 A 
HETATM    7  C6  UNL     1      -4.270   4.074  13.929  1.00  0.00     0.216 A 
HETATM    8  C7  UNL     1      -5.444   3.283  13.616  1.00  0.00     0.296 C 
HETATM    9  O2  UNL     1      -6.333   3.280  14.499  1.00  0.00    -0.262 OA
HETATM   10  O3  UNL     1      -5.721   2.544  12.501  1.00  0.00    -0.308 OA
HETATM   11  C8  UNL     1      -4.901   1.828  11.620  1.00  0.00     0.197 C 
HETATM   12  C9  UNL     1      -3.668   2.648  11.259  1.00  0.00     0.112 C 
HETATM   13  C10 UNL     1      -4.129   4.053  10.964  1.00  0.00     0.051 C 
ENDROOT
BRANCH  12  14
HETATM   14  O4  UNL     1      -3.066   2.176  10.110  1.00  0.00    -0.374 OA
BRANCH  14  15
HETATM   15  C11 UNL     1      -1.720   2.029  10.242  1.00  0.00     0.180 C 
BRANCH  15  16
HETATM   16  C12 UNL     1      -0.968   3.346  10.169  1.00  0.00     0.091 C 
HETATM   17  C13 UNL     1       0.327   3.166  10.898  1.00  0.00     0.051 C 
HETATM   18  C14 UNL     1       1.151   4.421  10.948  1.00  0.00     0.060 C 
HETATM   19  C15 UNL     1       0.498   5.521  11.742  1.00  0.00     0.046 C 
HETATM   20  C16 UNL     1       1.439   4.849   9.525  1.00  0.00     0.095 C 
HETATM   21  C17 UNL     1       0.167   4.956   8.755  1.00  0.00     0.055 C 
HETATM   22  N2  UNL     1      -0.047   6.048   8.101  1.00  0.00    -0.401 N 
HETATM   23  C18 UNL     1      -0.791   3.828   8.765  1.00  0.00     0.287 C 
ATOM     24  H22 UNL     1       0.613   6.826   8.094  1.00  0.00     0.155 HD
ATOM     25  H21 UNL     1      -0.917   6.122   7.573  1.00  0.00     0.155 HD
HETATM   26  F1  UNL     1      -2.007   4.344   8.298  1.00  0.00    -0.199 F 
HETATM   27  F2  UNL     1      -0.402   2.818   7.894  1.00  0.00    -0.199 F 
BRANCH  18  28
HETATM   28  O5  UNL     1       2.363   4.118  11.566  1.00  0.00    -0.390 OA
ATOM     29  H5  UNL     1       3.064   4.337  10.963  1.00  0.00     0.210 HD
ENDBRANCH  18  28
ENDBRANCH  15  16
ENDBRANCH  14  15
ENDBRANCH  12  14
BRANCH   7  30
HETATM   30  N1  UNL     1      -4.522   5.473  14.259  1.00  0.00    -0.060 N 
ATOM     31  H13 UNL     1      -4.777   5.972  13.407  1.00  0.00     0.275 HD
ATOM     32  H12 UNL     1      -5.390   5.534  14.793  1.00  0.00     0.275 HD
ATOM     33  H11 UNL     1      -3.798   6.001  14.747  1.00  0.00     0.275 HD
ENDBRANCH   7  30
TORSDOF 5
ENDMDL
MODEL 4
REMARK VINA RESULT: -7.351290149      4.050      6.108
REMARK  5 active torsions:
REMARK  status: ('A' for Active; 'I' for Inactive)
REMARK    1  A    between atoms: C6_7  and  N1_8 
REMARK    2  A    between atoms: C9_16  and  O4_18 
REMARK    3  A    between atoms: O4_18  and  C11_19 
REMARK    4  A    between atoms: C11_19  and  C12_20 
REMARK    5  A    between atoms: C14_22  and  O5_24 
ROOT
HETATM    1  C1  UNL     1      -6.066   5.448  14.502  1.00  0.00     0.042 C 
HETATM    2  C2  UNL     1      -5.625   4.054  14.320  1.00  0.00     0.150 C 
HETATM    3  O1  UNL     1      -5.695   3.576  13.020  1.00  0.00    -0.375 OA
HETATM    4  C3  UNL     1      -4.514   3.931  12.363  1.00  0.00     0.166 C 
HETATM    5  C4  UNL     1      -4.000   2.748  11.632  1.00  0.00     0.067 A 
HETATM    6  C5  UNL     1      -5.040   1.631  11.385  1.00  0.00     0.060 A 
HETATM    7  C6  UNL     1      -3.811   1.501  12.327  1.00  0.00     0.216 A 
HETATM    8  C7  UNL     1      -4.048   1.438  13.756  1.00  0.00     0.296 C 
HETATM    9  O2  UNL     1      -4.392   0.313  14.189  1.00  0.00    -0.262 OA
HETATM   10  O3  UNL     1      -3.949   2.424  14.696  1.00  0.00    -0.308 OA
HETATM   11  C8  UNL     1      -4.168   3.806  14.637  1.00  0.00     0.197 C 
HETATM   12  C9  UNL     1      -3.534   4.389  13.380  1.00  0.00     0.112 C 
HETATM   13  C10 UNL     1      -2.158   3.787  13.247  1.00  0.00     0.051 C 
ENDROOT
BRANCH  12  14
HETATM   14  O4  UNL     1      -3.364   5.755  13.485  1.00  0.00    -0.374 OA
BRANCH  14  15
HETATM   15  C11 UNL     1      -2.293   6.096  14.250  1.00  0.00     0.180 C 
BRANCH  15  16
HETATM   16  C12 UNL     1      -1.680   7.428  13.856  1.00  0.00     0.091 C 
HETATM   17  C13 UNL     1      -2.353   7.879  12.597  1.00  0.00     0.051 C 
HETATM   18  C14 UNL     1      -1.797   9.169  12.065  1.00  0.00     0.060 C 
HETATM   19  C15 UNL     1      -0.363   9.053  11.625  1.00  0.00     0.046 C 
HETATM   20  C16 UNL     1      -1.975  10.230  13.129  1.00  0.00     0.095 C 
HETATM   21  C17 UNL     1      -1.383   9.768  14.417  1.00  0.00     0.055 C 
HETATM   22  N2  UNL     1      -0.562  10.563  15.018  1.00  0.00    -0.401 N 
HETATM   23  C18 UNL     1      -1.748   8.439  14.955  1.00  0.00     0.287 C 
ATOM     24  H22 UNL     1      -0.310  11.479  14.647  1.00  0.00     0.155 HD
ATOM     25  H21 UNL     1      -0.156  10.247  15.899  1.00  0.00     0.155 HD
HETATM   26  F1  UNL     1      -0.785   8.131  15.925  1.00  0.00    -0.199 F 
HETATM   27  F2  UNL     1      -2.986   8.464  15.586  1.00  0.00    -0.199 F 
BRANCH  18  28
HETATM   28  O5  UNL     1      -2.551   9.538  10.952  1.00  0.00    -0.390 OA
ATOM     29  H5  UNL     1      -1.990   9.487  10.186  1.00  0.00     0.210 HD
ENDBRANCH  18  28
ENDBRANCH  15  16
ENDBRANCH  14  15
ENDBRANCH  12  14
BRANCH   7  30
HETATM   30  N1  UNL     1      -2.836   0.547  11.808  1.00  0.00    -0.060 N 
ATOM     31  H13 UNL     1      -2.628   0.785  10.838  1.00  0.00     0.275 HD
ATOM     32  H12 UNL     1      -1.935   0.722  12.254  1.00  0.00     0.275 HD
ATOM     33  H11 UNL     1      -3.045  -0.450  11.866  1.00  0.00     0.275 HD
ENDBRANCH   7  30
TORSDOF 5
ENDMDL
MODEL 5
REMARK VINA RESULT: -7.307689876      4.368      5.836
REMARK  5 active torsions:
REMARK  status: ('A' for Active; 'I' for Inactive)
REMARK    1  A    between atoms: C6_7  and  N1_8 
REMARK    2  A    between atoms: C9_16  and  O4_18 
REMARK    3  A    between atoms: O4_18  and  C11_19 
REMARK    4  A    between atoms: C11_19  and  C12_20 
REMARK    5  A    between atoms: C14_22  and  O5_24 
ROOT
HETATM    1  C1  UNL     1      -1.523   5.632  13.454  1.00  0.00     0.042 C 
HETATM    2  C2  UNL     1      -1.610   4.256  12.937  1.00  0.00     0.150 C 
HETATM    3  O1  UNL     1      -2.741   3.550  13.321  1.00  0.00    -0.375 OA
HETATM    4  C3  UNL     1      -3.766   3.849  12.420  1.00  0.00     0.166 C 
HETATM    5  C4  UNL     1      -4.425   2.585  12.011  1.00  0.00     0.067 A 
HETATM    6  C5  UNL     1      -4.177   1.385  12.953  1.00  0.00     0.060 A 
HETATM    7  C6  UNL     1      -3.634   1.495  11.500  1.00  0.00     0.216 A 
HETATM    8  C7  UNL     1      -2.208   1.675  11.315  1.00  0.00     0.296 C 
HETATM    9  O2  UNL     1      -1.524   0.628  11.400  1.00  0.00    -0.262 OA
HETATM   10  O3  UNL     1      -1.503   2.817  11.059  1.00  0.00    -0.308 OA
HETATM   11  C8  UNL     1      -1.707   4.151  11.432  1.00  0.00     0.197 C 
HETATM   12  C9  UNL     1      -3.170   4.535  11.246  1.00  0.00     0.112 C 
HETATM   13  C10 UNL     1      -3.612   3.999   9.908  1.00  0.00     0.051 C 
ENDROOT
BRANCH  12  14
HETATM   14  O4  UNL     1      -3.332   5.905  11.200  1.00  0.00    -0.374 OA
BRANCH  14  15
HETATM   15  C11 UNL     1      -4.623   6.291  11.382  1.00  0.00     0.180 C 
BRANCH  15  16
HETATM   16  C12 UNL     1      -5.179   7.081  10.211  1.00  0.00     0.091 C 
HETATM   17  C13 UNL     1      -6.074   6.166   9.434  1.00  0.00     0.051 C 
HETATM   18  C14 UNL     1      -6.652   6.813   8.207  1.00  0.00     0.060 C 
HETATM   19  C15 UNL     1      -5.606   7.168   7.184  1.00  0.00     0.046 C 
HETATM   20  C16 UNL     1      -7.444   8.024   8.646  1.00  0.00     0.095 C 
HETATM   21  C17 UNL     1      -6.596   8.913   9.491  1.00  0.00     0.055 C 
HETATM   22  N2  UNL     1      -6.542  10.164   9.179  1.00  0.00    -0.401 N 
HETATM   23  C18 UNL     1      -5.858   8.342  10.640  1.00  0.00     0.287 C 
ATOM     24  H22 UNL     1      -7.051  10.557   8.388  1.00  0.00     0.155 HD
ATOM     25  H21 UNL     1      -5.962  10.772   9.758  1.00  0.00     0.155 HD
HETATM   26  F1  UNL     1      -4.888   9.290  10.991  1.00  0.00    -0.199 F 
HETATM   27  F2  UNL     1      -6.685   8.159  11.741  1.00  0.00    -0.199 F 
BRANCH  18  28
HETATM   28  O5  UNL     1      -7.531   5.908   7.615  1.00  0.00    -0.390 OA
ATOM     29  H5  UNL     1      -8.333   5.900   8.125  1.00  0.00     0.210 HD
ENDBRANCH  18  28
ENDBRANCH  15  16
ENDBRANCH  14  15
ENDBRANCH  12  14
BRANCH   7  30
HETATM   30  N1  UNL     1      -4.266   0.521  10.617  1.00  0.00    -0.060 N 
ATOM     31  H13 UNL     1      -4.989   0.991  10.071  1.00  0.00     0.275 HD
ATOM     32  H12 UNL     1      -3.604   0.260   9.886  1.00  0.00     0.275 HD
ATOM     33  H11 UNL     1      -4.660  -0.328  11.023  1.00  0.00     0.275 HD
ENDBRANCH   7  30
TORSDOF 5
ENDMDL
