MODEL 1
REMARK VINA RESULT: -7.034311868      0.000      0.000
REMARK  7 active torsions:
REMARK  status: ('A' for Active; 'I' for Inactive)
REMARK    1  A    between atoms: S1_2  and  C2_3 
REMARK    2  A    between atoms: C2_3  and  C4_5 
REMARK    3  A    between atoms: C2_3  and  C15_28 
REMARK    4  A    between atoms: C5_6  and  C6_7 
REMARK    5  A    between atoms: N1_9  and  C8_10 
REMARK    6  A    between atoms: C14_24  and  N4_25 
REMARK    7  A    between atoms: C15_28  and  O4_29 
ROOT
HETATM    1  C8  UNL     1      -4.149   0.808  12.771  1.00  0.00     0.389 C 
HETATM    2  O1  UNL     1      -4.967   0.698  11.646  1.00  0.00    -0.273 OA
HETATM    3  C9  UNL     1      -4.450  -0.337  10.887  1.00  0.00     0.402 C 
HETATM    4  F1  UNL     1      -5.079  -1.503  11.281  1.00  0.00    -0.171 F 
HETATM    5  F2  UNL     1      -4.728  -0.145   9.558  1.00  0.00    -0.171 F 
HETATM    6  C10 UNL     1      -2.997  -0.319  11.220  1.00  0.00     0.242 C 
HETATM    7  C11 UNL     1      -2.218   0.391  10.141  1.00  0.00     0.072 C 
HETATM    8  C12 UNL     1      -2.546  -1.705  11.388  1.00  0.00     0.107 C 
HETATM    9  N2  UNL     1      -2.200  -2.804  11.534  1.00  0.00    -0.194 NA
HETATM   10  O2  UNL     1      -2.888   0.412  12.393  1.00  0.00    -0.308 OA
ENDROOT
BRANCH   1  11
HETATM   11  N1  UNL     1      -4.189   2.187  13.239  1.00  0.00    -0.258 N 
HETATM   12  C7  UNL     1      -4.399   3.206  12.392  1.00  0.00     0.125 A 
HETATM   13  C6  UNL     1      -4.429   4.493  12.883  1.00  0.00     0.077 A 
HETATM   14  C14 UNL     1      -4.243   4.717  14.228  1.00  0.00     0.123 A 
HETATM   15  N3  UNL     1      -4.036   3.687  15.051  1.00  0.00    -0.293 N 
HETATM   16  C13 UNL     1      -4.011   2.442  14.557  1.00  0.00     0.331 A 
ATOM     17  H3  UNL     1      -3.898   3.847  16.049  1.00  0.00     0.172 HD
HETATM   18  O3  UNL     1      -3.814   1.478  15.349  1.00  0.00    -0.246 OA
BRANCH  13  19
HETATM   19  C5  UNL     1      -4.654   5.578  11.972  1.00  0.00    -0.060 C 
HETATM   20  C4  UNL     1      -4.847   6.477  11.191  1.00  0.00    -0.078 C 
BRANCH  20  21
HETATM   21  C2  UNL     1      -5.087   7.564  10.212  1.00  0.00     0.088 C 
HETATM   22  C3  UNL     1      -3.763   8.298   9.932  1.00  0.00     0.043 C 
BRANCH  21  23
HETATM   23  S1  UNL     1      -6.237   8.783  10.832  1.00  0.00    -0.148 SA
HETATM   24  C1  UNL     1      -5.975  10.434  10.153  1.00  0.00     0.091 C 
ENDBRANCH  21  23
BRANCH  21  25
HETATM   25  C15 UNL     1      -5.510   6.893   8.939  1.00  0.00     0.197 C 
BRANCH  25  26
HETATM   26  O4  UNL     1      -6.490   5.949   9.061  1.00  0.00    -0.398 OA
ATOM     27  H4  UNL     1      -6.843   5.612   8.247  1.00  0.00     0.209 HD
ENDBRANCH  25  26
ENDBRANCH  21  25
ENDBRANCH  20  21
ENDBRANCH  13  19
BRANCH  14  28
HETATM   28  N4  UNL     1      -4.264   5.920  14.733  1.00  0.00    -0.384 N 
ATOM     29  H42 UNL     1      -3.939   6.694  14.154  1.00  0.00     0.157 HD
ATOM     30  H41 UNL     1      -4.593   6.098  15.681  1.00  0.00     0.157 HD
ENDBRANCH  14  28
ENDBRANCH   1  11
TORSDOF 7
ENDMDL
MODEL 2
REMARK VINA RESULT: -7.003369446      1.241      1.602
REMARK  7 active torsions:
REMARK  status: ('A' for Active; 'I' for Inactive)
REMARK    1  A    between atoms: S1_2  and  C2_3 
REMARK    2  A    between atoms: C2_3  and  C4_5 
REMARK    3  A    between atoms: C2_3  and  C15_28 
REMARK    4  A    between atoms: C5_6  and  C6_7 
REMARK    5  A    between atoms: N1_9  and  C8_10 
REMARK    6  A    between atoms: C14_24  and  N4_25 
REMARK    7  A    between atoms: C15_28  and  O4_29 
ROOT
HETATM    1  C8  UNL     1      -4.210   0.870  12.783  1.00  0.00     0.389 C 
HETATM    2  O1  UNL     1      -4.983   0.823  11.623  1.00  0.00    -0.273 OA
HETATM    3  C9  UNL     1      -4.461  -0.198  10.849  1.00  0.00     0.402 C 
HETATM    4  F1  UNL     1      -5.138  -1.359  11.173  1.00  0.00    -0.171 F 
HETATM    5  F2  UNL     1      -4.678   0.048   9.517  1.00  0.00    -0.171 F 
HETATM    6  C10 UNL     1      -3.024  -0.233  11.242  1.00  0.00     0.242 C 
HETATM    7  C11 UNL     1      -2.182   0.492  10.222  1.00  0.00     0.072 C 
HETATM    8  C12 UNL     1      -2.618  -1.637  11.378  1.00  0.00     0.107 C 
HETATM    9  N2  UNL     1      -2.308  -2.749  11.497  1.00  0.00    -0.194 NA
HETATM   10  O2  UNL     1      -2.945   0.453  12.444  1.00  0.00    -0.308 OA
ENDROOT
BRANCH   1  11
HETATM   11  N1  UNL     1      -4.233   2.233  13.300  1.00  0.00    -0.258 N 
HETATM   12  C7  UNL     1      -4.495   3.278  12.500  1.00  0.00     0.125 A 
HETATM   13  C6  UNL     1      -4.506   4.547  13.036  1.00  0.00     0.077 A 
HETATM   14  C14 UNL     1      -4.248   4.727  14.375  1.00  0.00     0.123 A 
HETATM   15  N3  UNL     1      -3.990   3.673  15.151  1.00  0.00    -0.293 N 
HETATM   16  C13 UNL     1      -3.984   2.445  14.613  1.00  0.00     0.331 A 
ATOM     17  H3  UNL     1      -3.798   3.800  16.144  1.00  0.00     0.172 HD
HETATM   18  O3  UNL     1      -3.737   1.456  15.361  1.00  0.00    -0.246 OA
BRANCH  13  19
HETATM   19  C5  UNL     1      -4.787   5.661  12.175  1.00  0.00    -0.060 C 
HETATM   20  C4  UNL     1      -5.040   6.585  11.444  1.00  0.00    -0.078 C 
BRANCH  20  21
HETATM   21  C2  UNL     1      -5.367   7.708  10.532  1.00  0.00     0.088 C 
HETATM   22  C3  UNL     1      -6.705   8.338  10.958  1.00  0.00     0.043 C 
BRANCH  21  23
HETATM   23  S1  UNL     1      -5.563   7.163   8.841  1.00  0.00    -0.148 SA
HETATM   24  C1  UNL     1      -7.249   6.667   8.434  1.00  0.00     0.091 C 
ENDBRANCH  21  23
BRANCH  21  25
HETATM   25  C15 UNL     1      -4.296   8.738  10.739  1.00  0.00     0.197 C 
BRANCH  25  26
HETATM   26  O4  UNL     1      -4.685  10.039  10.596  1.00  0.00    -0.398 OA
ATOM     27  H4  UNL     1      -4.072  10.608  10.146  1.00  0.00     0.209 HD
ENDBRANCH  25  26
ENDBRANCH  21  25
ENDBRANCH  20  21
ENDBRANCH  13  19
BRANCH  14  28
HETATM   28  N4  UNL     1      -4.249   5.913  14.921  1.00  0.00    -0.384 N 
ATOM     29  H42 UNL     1      -3.428   6.505  14.793  1.00  0.00     0.157 HD
ATOM     30  H41 UNL     1      -5.041   6.253  15.464  1.00  0.00     0.157 HD
ENDBRANCH  14  28
ENDBRANCH   1  11
TORSDOF 7
ENDMDL
MODEL 3
REMARK VINA RESULT: -6.764018776      1.004      1.342
REMARK  7 active torsions:
REMARK  status: ('A' for Active; 'I' for Inactive)
REMARK    1  A    between atoms: S1_2  and  C2_3 
REMARK    2  A    between atoms: C2_3  and  C4_5 
REMARK    3  A    between atoms: C2_3  and  C15_28 
REMARK    4  A    between atoms: C5_6  and  C6_7 
REMARK    5  A    between atoms: N1_9  and  C8_10 
REMARK    6  A    between atoms: C14_24  and  N4_25 
REMARK    7  A    between atoms: C15_28  and  O4_29 
ROOT
HETATM    1  C8  UNL     1      -4.185   0.835  12.796  1.00  0.00     0.389 C 
HETATM    2  O1  UNL     1      -4.984   0.753  11.656  1.00  0.00    -0.273 OA
HETATM    3  C9  UNL     1      -4.458  -0.268  10.884  1.00  0.00     0.402 C 
HETATM    4  F1  UNL     1      -5.100  -1.439  11.241  1.00  0.00    -0.171 F 
HETATM    5  F2  UNL     1      -4.713  -0.047   9.555  1.00  0.00    -0.171 F 
HETATM    6  C10 UNL     1      -3.012  -0.264  11.242  1.00  0.00     0.242 C 
HETATM    7  C11 UNL     1      -2.211   0.465  10.192  1.00  0.00     0.072 C 
HETATM    8  C12 UNL     1      -2.570  -1.656  11.389  1.00  0.00     0.107 C 
HETATM    9  N2  UNL     1      -2.231  -2.759  11.517  1.00  0.00    -0.194 NA
HETATM   10  O2  UNL     1      -2.919   0.441  12.432  1.00  0.00    -0.308 OA
ENDROOT
BRANCH   1  11
HETATM   11  N1  UNL     1      -4.228   2.204  13.293  1.00  0.00    -0.258 N 
HETATM   12  C7  UNL     1      -4.487   3.236  12.475  1.00  0.00     0.125 A 
HETATM   13  C6  UNL     1      -4.517   4.512  12.993  1.00  0.00     0.077 A 
HETATM   14  C14 UNL     1      -4.280   4.713  14.333  1.00  0.00     0.123 A 
HETATM   15  N3  UNL     1      -4.024   3.672  15.127  1.00  0.00    -0.293 N 
HETATM   16  C13 UNL     1      -4.000   2.437  14.607  1.00  0.00     0.331 A 
ATOM     17  H3  UNL     1      -3.849   3.814  16.121  1.00  0.00     0.172 HD
HETATM   18  O3  UNL     1      -3.756   1.461  15.372  1.00  0.00    -0.246 OA
BRANCH  13  19
HETATM   19  C5  UNL     1      -4.795   5.611  12.113  1.00  0.00    -0.060 C 
HETATM   20  C4  UNL     1      -5.037   6.521  11.360  1.00  0.00    -0.078 C 
BRANCH  20  21
HETATM   21  C2  UNL     1      -5.342   7.624  10.416  1.00  0.00     0.088 C 
HETATM   22  C3  UNL     1      -5.944   7.038   9.126  1.00  0.00     0.043 C 
BRANCH  21  23
HETATM   23  S1  UNL     1      -3.875   8.527   9.943  1.00  0.00    -0.148 SA
HETATM   24  C1  UNL     1      -2.754   8.855  11.319  1.00  0.00     0.091 C 
ENDBRANCH  21  23
BRANCH  21  25
HETATM   25  C15 UNL     1      -6.404   8.453  11.075  1.00  0.00     0.197 C 
BRANCH  25  26
HETATM   26  O4  UNL     1      -7.403   7.758  11.696  1.00  0.00    -0.398 OA
ATOM     27  H4  UNL     1      -7.690   8.104  12.532  1.00  0.00     0.209 HD
ENDBRANCH  25  26
ENDBRANCH  21  25
ENDBRANCH  20  21
ENDBRANCH  13  19
BRANCH  14  28
HETATM   28  N4  UNL     1      -4.299   5.906  14.862  1.00  0.00    -0.384 N 
ATOM     29  H42 UNL     1      -4.435   6.707  14.246  1.00  0.00     0.157 HD
ATOM     30  H41 UNL     1      -4.181   6.050  15.865  1.00  0.00     0.157 HD
ENDBRANCH  14  28
ENDBRANCH   1  11
TORSDOF 7
ENDMDL
MODEL 4
REMARK VINA RESULT: -6.734876560      3.257      4.364
REMARK  7 active torsions:
REMARK  status: ('A' for Active; 'I' for Inactive)
REMARK    1  A    between atoms: S1_2  and  C2_3 
REMARK    2  A    between atoms: C2_3  and  C4_5 
REMARK    3  A    between atoms: C2_3  and  C15_28 
REMARK    4  A    between atoms: C5_6  and  C6_7 
REMARK    5  A    between atoms: N1_9  and  C8_10 
REMARK    6  A    between atoms: C14_24  and  N4_25 
REMARK    7  A    between atoms: C15_28  and  O4_29 
ROOT
HETATM    1  C8  UNL     1      -3.023   2.442  12.979  1.00  0.00     0.389 C 
HETATM    2  O1  UNL     1      -2.923   3.460  13.928  1.00  0.00    -0.273 OA
HETATM    3  C9  UNL     1      -3.698   3.066  15.004  1.00  0.00     0.402 C 
HETATM    4  F1  UNL     1      -2.882   2.370  15.877  1.00  0.00    -0.171 F 
HETATM    5  F2  UNL     1      -4.182   4.160  15.675  1.00  0.00    -0.171 F 
HETATM    6  C10 UNL     1      -4.748   2.211  14.382  1.00  0.00     0.242 C 
HETATM    7  C11 UNL     1      -6.026   2.993  14.203  1.00  0.00     0.072 C 
HETATM    8  C12 UNL     1      -4.951   1.035  15.237  1.00  0.00     0.107 C 
HETATM    9  N2  UNL     1      -5.095   0.101  15.910  1.00  0.00    -0.194 NA
HETATM   10  O2  UNL     1      -4.263   1.869  13.129  1.00  0.00    -0.308 OA
ENDROOT
BRANCH   1  11
HETATM   11  N1  UNL     1      -2.828   3.022  11.656  1.00  0.00    -0.258 N 
HETATM   12  C7  UNL     1      -3.667   3.950  11.171  1.00  0.00     0.125 A 
HETATM   13  C6  UNL     1      -3.440   4.468   9.914  1.00  0.00     0.077 A 
HETATM   14  C14 UNL     1      -2.364   4.032   9.178  1.00  0.00     0.123 A 
HETATM   15  N3  UNL     1      -1.542   3.109   9.682  1.00  0.00    -0.293 N 
HETATM   16  C13 UNL     1      -1.778   2.615  10.905  1.00  0.00     0.331 A 
ATOM     17  H3  UNL     1      -0.742   2.782   9.141  1.00  0.00     0.172 HD
HETATM   18  O3  UNL     1      -0.991   1.742  11.369  1.00  0.00    -0.246 OA
BRANCH  13  19
HETATM   19  C5  UNL     1      -4.342   5.460   9.400  1.00  0.00    -0.060 C 
HETATM   20  C4  UNL     1      -5.115   6.282   8.976  1.00  0.00    -0.078 C 
BRANCH  20  21
HETATM   21  C2  UNL     1      -6.086   7.277   8.459  1.00  0.00     0.088 C 
HETATM   22  C3  UNL     1      -5.469   8.011   7.254  1.00  0.00     0.043 C 
BRANCH  21  23
HETATM   23  S1  UNL     1      -6.484   8.520   9.679  1.00  0.00    -0.148 SA
HETATM   24  C1  UNL     1      -6.663   7.861  11.349  1.00  0.00     0.091 C 
ENDBRANCH  21  23
BRANCH  21  25
HETATM   25  C15 UNL     1      -7.260   6.491   7.957  1.00  0.00     0.197 C 
BRANCH  25  26
HETATM   26  O4  UNL     1      -7.012   5.656   6.905  1.00  0.00    -0.398 OA
ATOM     27  H4  UNL     1      -7.760   5.443   6.360  1.00  0.00     0.209 HD
ENDBRANCH  25  26
ENDBRANCH  21  25
ENDBRANCH  20  21
ENDBRANCH  13  19
BRANCH  14  28
HETATM   28  N4  UNL     1      -2.114   4.498   7.984  1.00  0.00    -0.384 N 
ATOM     29  H42 UNL     1      -2.881   4.915   7.457  1.00  0.00     0.157 HD
ATOM     30  H41 UNL     1      -1.181   4.453   7.575  1.00  0.00     0.157 HD
ENDBRANCH  14  28
ENDBRANCH   1  11
TORSDOF 7
ENDMDL
MODEL 5
REMARK VINA RESULT: -6.551145835      1.492      1.914
REMARK  7 active torsions:
REMARK  status: ('A' for Active; 'I' for Inactive)
REMARK    1  A    between atoms: S1_2  and  C2_3 
REMARK    2  A    between atoms: C2_3  and  C4_5 
REMARK    3  A    between atoms: C2_3  and  C15_28 
REMARK    4  A    between atoms: C5_6  and  C6_7 
REMARK    5  A    between atoms: N1_9  and  C8_10 
REMARK    6  A    between atoms: C14_24  and  N4_25 
REMARK    7  A    between atoms: C15_28  and  O4_29 
ROOT
HETATM    1  C8  UNL     1      -4.371   0.782  12.797  1.00  0.00     0.389 C 
HETATM    2  O1  UNL     1      -5.090   0.614  11.614  1.00  0.00    -0.273 OA
HETATM    3  C9  UNL     1      -4.363  -0.272  10.838  1.00  0.00     0.402 C 
HETATM    4  F1  UNL     1      -4.814  -1.547  11.123  1.00  0.00    -0.171 F 
HETATM    5  F2  UNL     1      -4.588  -0.043   9.505  1.00  0.00    -0.171 F 
HETATM    6  C10 UNL     1      -2.956  -0.041  11.274  1.00  0.00     0.242 C 
HETATM    7  C11 UNL     1      -2.242   0.854  10.292  1.00  0.00     0.072 C 
HETATM    8  C12 UNL     1      -2.293  -1.344  11.398  1.00  0.00     0.107 C 
HETATM    9  N2  UNL     1      -1.779  -2.380  11.509  1.00  0.00    -0.194 NA
HETATM   10  O2  UNL     1      -3.041   0.621  12.489  1.00  0.00    -0.308 OA
ENDROOT
BRANCH   1  11
HETATM   11  N1  UNL     1      -4.668   2.103  13.335  1.00  0.00    -0.258 N 
HETATM   12  C7  UNL     1      -4.553   3.206  12.579  1.00  0.00     0.125 A 
HETATM   13  C6  UNL     1      -4.845   4.433  13.134  1.00  0.00     0.077 A 
HETATM   14  C14 UNL     1      -5.248   4.513  14.447  1.00  0.00     0.123 A 
HETATM   15  N3  UNL     1      -5.355   3.402  15.179  1.00  0.00    -0.293 N 
HETATM   16  C13 UNL     1      -5.067   2.217  14.624  1.00  0.00     0.331 A 
ATOM     17  H3  UNL     1      -5.653   3.455  16.152  1.00  0.00     0.172 HD
HETATM   18  O3  UNL     1      -5.173   1.174  15.330  1.00  0.00    -0.246 OA
BRANCH  13  19
HETATM   19  C5  UNL     1      -4.720   5.609  12.321  1.00  0.00    -0.060 C 
HETATM   20  C4  UNL     1      -4.633   6.591  11.626  1.00  0.00    -0.078 C 
BRANCH  20  21
HETATM   21  C2  UNL     1      -4.542   7.789  10.757  1.00  0.00     0.088 C 
HETATM   22  C3  UNL     1      -5.835   8.615  10.892  1.00  0.00     0.043 C 
BRANCH  21  23
HETATM   23  S1  UNL     1      -4.379   7.354   9.031  1.00  0.00    -0.148 SA
HETATM   24  C1  UNL     1      -3.572   5.764   8.761  1.00  0.00     0.091 C 
ENDBRANCH  21  23
BRANCH  21  25
HETATM   25  C15 UNL     1      -3.417   8.616  11.304  1.00  0.00     0.197 C 
BRANCH  25  26
HETATM   26  O4  UNL     1      -2.250   7.949  11.546  1.00  0.00    -0.398 OA
ATOM     27  H4  UNL     1      -2.050   7.237  10.951  1.00  0.00     0.209 HD
ENDBRANCH  25  26
ENDBRANCH  21  25
ENDBRANCH  20  21
ENDBRANCH  13  19
BRANCH  14  28
HETATM   28  N4  UNL     1      -5.534   5.656  15.009  1.00  0.00    -0.384 N 
ATOM     29  H42 UNL     1      -6.199   5.662  15.781  1.00  0.00     0.157 HD
ATOM     30  H41 UNL     1      -5.110   6.529  14.696  1.00  0.00     0.157 HD
ENDBRANCH  14  28
ENDBRANCH   1  11
TORSDOF 7
ENDMDL
