MODEL 1
REMARK VINA RESULT: -8.331911887      0.000      0.000
REMARK  12 active torsions:
REMARK  status: ('A' for Active; 'I' for Inactive)
REMARK    1  A    between atoms: C3_3  and  O1_6 
REMARK    2  A    between atoms: O1_6  and  C4_7 
REMARK       I    between atoms: C4_7  and  N1_9 
REMARK    3  A    between atoms: C5_11  and  O3_12 
REMARK    4  A    between atoms: C5_11  and  C6_14 
REMARK    5  A    between atoms: C8_17  and  O5_18 
REMARK    6  A    between atoms: O5_18  and  C9_19 
REMARK    7  A    between atoms: C9_19  and  C10_21 
REMARK    8  A    between atoms: C10_21  and  N2_23 
REMARK    9  A    between atoms: C12_27  and  O7_28 
REMARK   10  A    between atoms: C13_30  and  N3_31 
REMARK   11  A    between atoms: N3_31  and  N4_33 
REMARK   12  A    between atoms: N4_33  and  N5_34 
ROOT
HETATM    1  C1  UNL     1      -6.405   4.073  15.393  1.00  0.00     0.021 C 
HETATM    2  C2  UNL     1      -6.238   3.050  16.012  1.00  0.00    -0.007 C 
HETATM    3  C3  UNL     1      -6.010   1.800  16.774  1.00  0.00     0.432 C 
HETATM    4  F1  UNL     1      -6.035   2.124  18.114  1.00  0.00    -0.162 F 
HETATM    5  F2  UNL     1      -7.008   0.939  16.423  1.00  0.00    -0.162 F 
ENDROOT
BRANCH   3   6
HETATM    6  O1  UNL     1      -4.725   1.289  16.476  1.00  0.00    -0.222 OA
BRANCH   6   7
HETATM    7  C4  UNL     1      -4.393   0.722  15.253  1.00  0.00     0.372 C 
HETATM    8  O2  UNL     1      -4.557  -0.531  15.139  1.00  0.00    -0.238 OA
HETATM    9  N1  UNL     1      -3.893   1.496  14.175  1.00  0.00    -0.282 N 
HETATM   10  C5  UNL     1      -3.989   1.160  12.948  1.00  0.00     0.154 C 
ATOM     11  H1  UNL     1      -3.428   2.375  14.395  1.00  0.00     0.173 HD
BRANCH  10  12
HETATM   12  O3  UNL     1      -4.610  -0.021  12.614  1.00  0.00    -0.345 OA
ATOM     13  H3  UNL     1      -4.665  -0.279  11.701  1.00  0.00     0.219 HD
ENDBRANCH  10  12
BRANCH  10  14
HETATM   14  C6  UNL     1      -3.450   2.012  11.919  1.00  0.00     0.043 C 
HETATM   15  C7  UNL     1      -4.207   2.582  10.976  1.00  0.00     0.151 C 
HETATM   16  O4  UNL     1      -3.640   3.396  10.006  1.00  0.00    -0.328 OA
HETATM   17  C8  UNL     1      -2.264   3.494   9.775  1.00  0.00     0.305 C 
HETATM   18  C12 UNL     1      -1.597   2.284  10.397  1.00  0.00     0.204 C 
HETATM   19  C13 UNL     1      -1.972   2.298  11.869  1.00  0.00     0.187 C 
BRANCH  17  20
HETATM   20  O5  UNL     1      -1.940   3.624   8.419  1.00  0.00    -0.285 OA
BRANCH  20  21
HETATM   21  C9  UNL     1      -1.868   4.886   7.853  1.00  0.00     0.291 C 
HETATM   22  O6  UNL     1      -0.780   5.506   7.928  1.00  0.00    -0.263 OA
BRANCH  21  23
HETATM   23  C10 UNL     1      -2.999   5.546   7.166  1.00  0.00     0.278 C 
HETATM   24  C11 UNL     1      -2.703   5.884   5.742  1.00  0.00     0.050 C 
BRANCH  23  25
HETATM   25  N2  UNL     1      -4.218   4.773   7.307  1.00  0.00    -0.066 N 
ATOM     26  H23 UNL     1      -4.362   4.470   8.271  1.00  0.00     0.275 HD
ATOM     27  H22 UNL     1      -5.047   5.356   7.203  1.00  0.00     0.275 HD
ATOM     28  H21 UNL     1      -4.229   3.985   6.660  1.00  0.00     0.275 HD
ENDBRANCH  23  25
ENDBRANCH  21  23
ENDBRANCH  20  21
ENDBRANCH  17  20
BRANCH  18  29
HETATM   29  O7  UNL     1      -2.104   1.102   9.855  1.00  0.00    -0.388 OA
ATOM     30  H7  UNL     1      -1.545   0.364  10.070  1.00  0.00     0.210 HD
ENDBRANCH  18  29
BRANCH  19  31
HETATM   31  N3  UNL     1      -1.705   3.590  12.432  1.00  0.00    -0.240 N 
ATOM     32  H3  UNL     1      -1.634   4.385  11.796  1.00  0.00     0.198 HD
BRANCH  31  33
HETATM   33  N4  UNL     1      -1.558   3.799  13.625  1.00  0.00    -0.248 NA
BRANCH  33  34
HETATM   34  N5  UNL     1      -1.278   3.989  14.806  1.00  0.00    -0.261 N 
ATOM     35  H52 UNL     1      -0.453   3.438  14.569  1.00  0.00     0.193 HD
ATOM     36  H51 UNL     1      -1.141   4.205  15.794  1.00  0.00     0.193 HD
ENDBRANCH  33  34
ENDBRANCH  31  33
ENDBRANCH  19  31
ENDBRANCH  10  14
ENDBRANCH   6   7
ENDBRANCH   3   6
TORSDOF 12
ENDMDL
MODEL 2
REMARK VINA RESULT: -8.313125222      1.274      1.599
REMARK  12 active torsions:
REMARK  status: ('A' for Active; 'I' for Inactive)
REMARK    1  A    between atoms: C3_3  and  O1_6 
REMARK    2  A    between atoms: O1_6  and  C4_7 
REMARK       I    between atoms: C4_7  and  N1_9 
REMARK    3  A    between atoms: C5_11  and  O3_12 
REMARK    4  A    between atoms: C5_11  and  C6_14 
REMARK    5  A    between atoms: C8_17  and  O5_18 
REMARK    6  A    between atoms: O5_18  and  C9_19 
REMARK    7  A    between atoms: C9_19  and  C10_21 
REMARK    8  A    between atoms: C10_21  and  N2_23 
REMARK    9  A    between atoms: C12_27  and  O7_28 
REMARK   10  A    between atoms: C13_30  and  N3_31 
REMARK   11  A    between atoms: N3_31  and  N4_33 
REMARK   12  A    between atoms: N4_33  and  N5_34 
ROOT
HETATM    1  C1  UNL     1      -6.358   4.041  15.389  1.00  0.00     0.021 C 
HETATM    2  C2  UNL     1      -6.200   3.023  16.017  1.00  0.00    -0.007 C 
HETATM    3  C3  UNL     1      -5.983   1.778  16.792  1.00  0.00     0.432 C 
HETATM    4  F1  UNL     1      -5.990   2.117  18.128  1.00  0.00    -0.162 F 
HETATM    5  F2  UNL     1      -6.998   0.929  16.461  1.00  0.00    -0.162 F 
ENDROOT
BRANCH   3   6
HETATM    6  O1  UNL     1      -4.710   1.244  16.486  1.00  0.00    -0.222 OA
BRANCH   6   7
HETATM    7  C4  UNL     1      -4.391   0.683  15.256  1.00  0.00     0.372 C 
HETATM    8  O2  UNL     1      -4.580  -0.564  15.130  1.00  0.00    -0.238 OA
HETATM    9  N1  UNL     1      -3.877   1.458  14.186  1.00  0.00    -0.282 N 
HETATM   10  C5  UNL     1      -3.981   1.137  12.955  1.00  0.00     0.154 C 
ATOM     11  H1  UNL     1      -3.393   2.326  14.414  1.00  0.00     0.173 HD
BRANCH  10  12
HETATM   12  O3  UNL     1      -4.627  -0.027  12.610  1.00  0.00    -0.345 OA
ATOM     13  H3  UNL     1      -5.221  -0.031  11.869  1.00  0.00     0.219 HD
ENDBRANCH  10  12
BRANCH  10  14
HETATM   14  C6  UNL     1      -3.427   1.989  11.934  1.00  0.00     0.043 C 
HETATM   15  C7  UNL     1      -4.167   2.548  10.972  1.00  0.00     0.151 C 
HETATM   16  O4  UNL     1      -3.586   3.361  10.010  1.00  0.00    -0.328 OA
HETATM   17  C8  UNL     1      -2.206   3.471   9.810  1.00  0.00     0.305 C 
HETATM   18  C12 UNL     1      -1.542   2.270  10.454  1.00  0.00     0.204 C 
HETATM   19  C13 UNL     1      -1.950   2.287  11.917  1.00  0.00     0.187 C 
BRANCH  17  20
HETATM   20  O5  UNL     1      -1.853   3.597   8.461  1.00  0.00    -0.285 OA
BRANCH  20  21
HETATM   21  C9  UNL     1      -0.962   4.586   8.079  1.00  0.00     0.291 C 
HETATM   22  O6  UNL     1      -1.362   5.775   8.082  1.00  0.00    -0.263 OA
BRANCH  21  23
HETATM   23  C10 UNL     1       0.433   4.323   7.668  1.00  0.00     0.278 C 
HETATM   24  C11 UNL     1       1.336   4.017   8.818  1.00  0.00     0.050 C 
BRANCH  23  25
HETATM   25  N2  UNL     1       0.490   3.305   6.637  1.00  0.00    -0.066 N 
ATOM     26  H23 UNL     1       0.848   2.422   7.000  1.00  0.00     0.275 HD
ATOM     27  H22 UNL     1      -0.442   2.994   6.364  1.00  0.00     0.275 HD
ATOM     28  H21 UNL     1       1.028   3.627   5.833  1.00  0.00     0.275 HD
ENDBRANCH  23  25
ENDBRANCH  21  23
ENDBRANCH  20  21
ENDBRANCH  17  20
BRANCH  18  29
HETATM   29  O7  UNL     1      -2.027   1.081   9.906  1.00  0.00    -0.388 OA
ATOM     30  H7  UNL     1      -2.949   0.969  10.103  1.00  0.00     0.210 HD
ENDBRANCH  18  29
BRANCH  19  31
HETATM   31  N3  UNL     1      -1.708   3.585  12.479  1.00  0.00    -0.240 N 
ATOM     32  H3  UNL     1      -1.633   4.378  11.841  1.00  0.00     0.198 HD
BRANCH  31  33
HETATM   33  N4  UNL     1      -1.586   3.800  13.673  1.00  0.00    -0.248 NA
BRANCH  33  34
HETATM   34  N5  UNL     1      -1.341   3.959  14.867  1.00  0.00    -0.261 N 
ATOM     35  H52 UNL     1      -0.749   4.712  14.516  1.00  0.00     0.193 HD
ATOM     36  H51 UNL     1      -1.206   4.004  15.877  1.00  0.00     0.193 HD
ENDBRANCH  33  34
ENDBRANCH  31  33
ENDBRANCH  19  31
ENDBRANCH  10  14
ENDBRANCH   6   7
ENDBRANCH   3   6
TORSDOF 12
ENDMDL
MODEL 3
REMARK VINA RESULT: -7.855302590      2.259      2.992
REMARK  12 active torsions:
REMARK  status: ('A' for Active; 'I' for Inactive)
REMARK    1  A    between atoms: C3_3  and  O1_6 
REMARK    2  A    between atoms: O1_6  and  C4_7 
REMARK       I    between atoms: C4_7  and  N1_9 
REMARK    3  A    between atoms: C5_11  and  O3_12 
REMARK    4  A    between atoms: C5_11  and  C6_14 
REMARK    5  A    between atoms: C8_17  and  O5_18 
REMARK    6  A    between atoms: O5_18  and  C9_19 
REMARK    7  A    between atoms: C9_19  and  C10_21 
REMARK    8  A    between atoms: C10_21  and  N2_23 
REMARK    9  A    between atoms: C12_27  and  O7_28 
REMARK   10  A    between atoms: C13_30  and  N3_31 
REMARK   11  A    between atoms: N3_31  and  N4_33 
REMARK   12  A    between atoms: N4_33  and  N5_34 
ROOT
HETATM    1  C1  UNL     1      -6.434   3.814  15.583  1.00  0.00     0.021 C 
HETATM    2  C2  UNL     1      -6.290   2.816  16.247  1.00  0.00    -0.007 C 
HETATM    3  C3  UNL     1      -6.090   1.597  17.066  1.00  0.00     0.432 C 
HETATM    4  F1  UNL     1      -6.060   1.988  18.388  1.00  0.00    -0.162 F 
HETATM    5  F2  UNL     1      -7.134   0.764  16.789  1.00  0.00    -0.162 F 
ENDROOT
BRANCH   3   6
HETATM    6  O1  UNL     1      -4.838   1.017  16.755  1.00  0.00    -0.222 OA
BRANCH   6   7
HETATM    7  C4  UNL     1      -4.465   0.645  15.471  1.00  0.00     0.372 C 
HETATM    8  O2  UNL     1      -4.650  -0.568  15.150  1.00  0.00    -0.238 OA
HETATM    9  N1  UNL     1      -3.901   1.568  14.554  1.00  0.00    -0.282 N 
HETATM   10  C5  UNL     1      -3.950   1.437  13.285  1.00  0.00     0.154 C 
ATOM     11  H1  UNL     1      -3.427   2.387  14.931  1.00  0.00     0.173 HD
BRANCH  10  12
HETATM   12  O3  UNL     1      -4.581   0.343  12.740  1.00  0.00    -0.345 OA
ATOM     13  H3  UNL     1      -4.065  -0.336  12.322  1.00  0.00     0.219 HD
ENDBRANCH  10  12
BRANCH  10  14
HETATM   14  C6  UNL     1      -3.349   2.428  12.430  1.00  0.00     0.043 C 
HETATM   15  C7  UNL     1      -2.687   2.119  11.311  1.00  0.00     0.151 C 
HETATM   16  O4  UNL     1      -2.125   3.111  10.521  1.00  0.00    -0.328 OA
HETATM   17  C8  UNL     1      -1.982   4.443  10.923  1.00  0.00     0.305 C 
HETATM   18  C12 UNL     1      -2.097   4.491  12.433  1.00  0.00     0.204 C 
HETATM   19  C13 UNL     1      -3.448   3.890  12.780  1.00  0.00     0.187 C 
BRANCH  17  20
HETATM   20  O5  UNL     1      -0.793   5.029  10.474  1.00  0.00    -0.285 OA
BRANCH  20  21
HETATM   21  C9  UNL     1       0.063   4.301   9.663  1.00  0.00     0.291 C 
HETATM   22  O6  UNL     1      -0.184   4.256   8.435  1.00  0.00    -0.263 OA
BRANCH  21  23
HETATM   23  C10 UNL     1       1.250   3.576  10.162  1.00  0.00     0.278 C 
HETATM   24  C11 UNL     1       2.437   3.706   9.265  1.00  0.00     0.050 C 
BRANCH  23  25
HETATM   25  N2  UNL     1       1.551   3.947  11.532  1.00  0.00    -0.066 N 
ATOM     26  H23 UNL     1       2.053   4.833  11.579  1.00  0.00     0.275 HD
ATOM     27  H22 UNL     1       0.710   4.218  12.041  1.00  0.00     0.275 HD
ATOM     28  H21 UNL     1       2.056   3.202  12.011  1.00  0.00     0.275 HD
ENDBRANCH  23  25
ENDBRANCH  21  23
ENDBRANCH  20  21
ENDBRANCH  17  20
BRANCH  18  29
HETATM   29  O7  UNL     1      -1.124   3.689  13.032  1.00  0.00    -0.388 OA
ATOM     30  H7  UNL     1      -0.528   4.213  13.554  1.00  0.00     0.210 HD
ENDBRANCH  18  29
BRANCH  19  31
HETATM   31  N3  UNL     1      -4.478   4.510  11.996  1.00  0.00    -0.240 N 
ATOM     32  H3  UNL     1      -4.589   4.210  11.027  1.00  0.00     0.198 HD
BRANCH  31  33
HETATM   33  N4  UNL     1      -5.229   5.374  12.416  1.00  0.00    -0.248 NA
BRANCH  33  34
HETATM   34  N5  UNL     1      -5.875   6.312  12.876  1.00  0.00    -0.261 N 
ATOM     35  H52 UNL     1      -5.371   6.843  12.167  1.00  0.00     0.193 HD
ATOM     36  H51 UNL     1      -6.457   7.017  13.330  1.00  0.00     0.193 HD
ENDBRANCH  33  34
ENDBRANCH  31  33
ENDBRANCH  19  31
ENDBRANCH  10  14
ENDBRANCH   6   7
ENDBRANCH   3   6
TORSDOF 12
ENDMDL
MODEL 4
REMARK VINA RESULT: -7.831172621      2.363      2.768
REMARK  12 active torsions:
REMARK  status: ('A' for Active; 'I' for Inactive)
REMARK    1  A    between atoms: C3_3  and  O1_6 
REMARK    2  A    between atoms: O1_6  and  C4_7 
REMARK       I    between atoms: C4_7  and  N1_9 
REMARK    3  A    between atoms: C5_11  and  O3_12 
REMARK    4  A    between atoms: C5_11  and  C6_14 
REMARK    5  A    between atoms: C8_17  and  O5_18 
REMARK    6  A    between atoms: O5_18  and  C9_19 
REMARK    7  A    between atoms: C9_19  and  C10_21 
REMARK    8  A    between atoms: C10_21  and  N2_23 
REMARK    9  A    between atoms: C12_27  and  O7_28 
REMARK   10  A    between atoms: C13_30  and  N3_31 
REMARK   11  A    between atoms: N3_31  and  N4_33 
REMARK   12  A    between atoms: N4_33  and  N5_34 
ROOT
HETATM    1  C1  UNL     1      -6.722   3.600  16.197  1.00  0.00     0.021 C 
HETATM    2  C2  UNL     1      -6.436   2.563  16.746  1.00  0.00    -0.007 C 
HETATM    3  C3  UNL     1      -6.063   1.298  17.421  1.00  0.00     0.432 C 
HETATM    4  F1  UNL     1      -5.955   1.565  18.769  1.00  0.00    -0.162 F 
HETATM    5  F2  UNL     1      -7.050   0.399  17.141  1.00  0.00    -0.162 F 
ENDROOT
BRANCH   3   6
HETATM    6  O1  UNL     1      -4.795   0.870  16.960  1.00  0.00    -0.222 OA
BRANCH   6   7
HETATM    7  C4  UNL     1      -4.478   0.727  15.616  1.00  0.00     0.372 C 
HETATM    8  O2  UNL     1      -4.485  -0.452  15.149  1.00  0.00    -0.238 OA
HETATM    9  N1  UNL     1      -4.159   1.838  14.796  1.00  0.00    -0.282 N 
HETATM   10  C5  UNL     1      -4.296   1.854  13.527  1.00  0.00     0.154 C 
ATOM     11  H1  UNL     1      -3.798   2.678  15.247  1.00  0.00     0.173 HD
BRANCH  10  12
HETATM   12  O3  UNL     1      -4.780   0.739  12.883  1.00  0.00    -0.345 OA
ATOM     13  H3  UNL     1      -5.130   0.019  13.393  1.00  0.00     0.219 HD
ENDBRANCH  10  12
BRANCH  10  14
HETATM   14  C6  UNL     1      -3.945   3.031  12.774  1.00  0.00     0.043 C 
HETATM   15  C7  UNL     1      -4.595   4.193  12.897  1.00  0.00     0.151 C 
HETATM   16  O4  UNL     1      -4.220   5.299  12.148  1.00  0.00    -0.328 OA
HETATM   17  C8  UNL     1      -3.336   5.247  11.066  1.00  0.00     0.305 C 
HETATM   18  C12 UNL     1      -3.254   3.809  10.597  1.00  0.00     0.204 C 
HETATM   19  C13 UNL     1      -2.802   2.991  11.795  1.00  0.00     0.187 C 
BRANCH  17  20
HETATM   20  O5  UNL     1      -3.688   6.113  10.024  1.00  0.00    -0.285 OA
BRANCH  20  21
HETATM   21  C9  UNL     1      -4.965   6.650   9.987  1.00  0.00     0.291 C 
HETATM   22  O6  UNL     1      -5.887   5.951   9.503  1.00  0.00    -0.263 OA
BRANCH  21  23
HETATM   23  C10 UNL     1      -5.303   8.001  10.484  1.00  0.00     0.278 C 
HETATM   24  C11 UNL     1      -6.602   8.046  11.221  1.00  0.00     0.050 C 
BRANCH  23  25
HETATM   25  N2  UNL     1      -4.212   8.561  11.257  1.00  0.00    -0.066 N 
ATOM     26  H23 UNL     1      -3.576   7.836  11.589  1.00  0.00     0.275 HD
ATOM     27  H22 UNL     1      -3.561   9.080  10.667  1.00  0.00     0.275 HD
ATOM     28  H21 UNL     1      -4.562   9.135  12.023  1.00  0.00     0.275 HD
ENDBRANCH  23  25
ENDBRANCH  21  23
ENDBRANCH  20  21
ENDBRANCH  17  20
BRANCH  18  29
HETATM   29  O7  UNL     1      -4.514   3.333  10.227  1.00  0.00    -0.388 OA
ATOM     30  H7  UNL     1      -4.897   3.881   9.552  1.00  0.00     0.210 HD
ENDBRANCH  18  29
BRANCH  19  31
HETATM   31  N3  UNL     1      -1.635   3.586  12.383  1.00  0.00    -0.240 N 
ATOM     32  H3  UNL     1      -0.895   3.908  11.758  1.00  0.00     0.198 HD
BRANCH  31  33
HETATM   33  N4  UNL     1      -1.473   3.730  13.583  1.00  0.00    -0.248 NA
BRANCH  33  34
HETATM   34  N5  UNL     1      -1.233   3.982  14.761  1.00  0.00    -0.261 N 
ATOM     35  H52 UNL     1      -0.273   3.789  14.476  1.00  0.00     0.193 HD
ATOM     36  H51 UNL     1      -1.144   4.208  15.752  1.00  0.00     0.193 HD
ENDBRANCH  33  34
ENDBRANCH  31  33
ENDBRANCH  19  31
ENDBRANCH  10  14
ENDBRANCH   6   7
ENDBRANCH   3   6
TORSDOF 12
ENDMDL
MODEL 5
REMARK VINA RESULT: -7.729753926      2.027      2.562
REMARK  12 active torsions:
REMARK  status: ('A' for Active; 'I' for Inactive)
REMARK    1  A    between atoms: C3_3  and  O1_6 
REMARK    2  A    between atoms: O1_6  and  C4_7 
REMARK       I    between atoms: C4_7  and  N1_9 
REMARK    3  A    between atoms: C5_11  and  O3_12 
REMARK    4  A    between atoms: C5_11  and  C6_14 
REMARK    5  A    between atoms: C8_17  and  O5_18 
REMARK    6  A    between atoms: O5_18  and  C9_19 
REMARK    7  A    between atoms: C9_19  and  C10_21 
REMARK    8  A    between atoms: C10_21  and  N2_23 
REMARK    9  A    between atoms: C12_27  and  O7_28 
REMARK   10  A    between atoms: C13_30  and  N3_31 
REMARK   11  A    between atoms: N3_31  and  N4_33 
REMARK   12  A    between atoms: N4_33  and  N5_34 
ROOT
HETATM    1  C1  UNL     1      -6.282   4.193  14.908  1.00  0.00     0.021 C 
HETATM    2  C2  UNL     1      -6.203   3.231  15.633  1.00  0.00    -0.007 C 
HETATM    3  C3  UNL     1      -6.083   2.054  16.525  1.00  0.00     0.432 C 
HETATM    4  F1  UNL     1      -6.159   2.511  17.823  1.00  0.00    -0.162 F 
HETATM    5  F2  UNL     1      -7.107   1.212  16.204  1.00  0.00    -0.162 F 
ENDROOT
BRANCH   3   6
HETATM    6  O1  UNL     1      -4.814   1.453  16.350  1.00  0.00    -0.222 OA
BRANCH   6   7
HETATM    7  C4  UNL     1      -4.468   0.710  15.230  1.00  0.00     0.372 C 
HETATM    8  O2  UNL     1      -4.752  -0.526  15.252  1.00  0.00    -0.238 OA
HETATM    9  N1  UNL     1      -3.826   1.294  14.109  1.00  0.00    -0.282 N 
HETATM   10  C5  UNL     1      -3.880   0.820  12.925  1.00  0.00     0.154 C 
ATOM     11  H1  UNL     1      -3.287   2.147  14.257  1.00  0.00     0.173 HD
BRANCH  10  12
HETATM   12  O3  UNL     1      -4.597  -0.329  12.687  1.00  0.00    -0.345 OA
ATOM     13  H3  UNL     1      -4.221  -1.172  12.911  1.00  0.00     0.219 HD
ENDBRANCH  10  12
BRANCH  10  14
HETATM   14  C6  UNL     1      -3.195   1.484  11.846  1.00  0.00     0.043 C 
HETATM   15  C7  UNL     1      -2.533   0.825  10.889  1.00  0.00     0.151 C 
HETATM   16  O4  UNL     1      -1.888   1.511   9.870  1.00  0.00    -0.328 OA
HETATM   17  C8  UNL     1      -1.663   2.892   9.878  1.00  0.00     0.305 C 
HETATM   18  C12 UNL     1      -1.806   3.382  11.304  1.00  0.00     0.204 C 
HETATM   19  C13 UNL     1      -3.202   2.988  11.756  1.00  0.00     0.187 C 
BRANCH  17  20
HETATM   20  O5  UNL     1      -0.428   3.251   9.327  1.00  0.00    -0.285 OA
BRANCH  20  21
HETATM   21  C9  UNL     1      -0.390   3.918   8.113  1.00  0.00     0.291 C 
HETATM   22  O6  UNL     1      -1.462   4.395   7.668  1.00  0.00    -0.263 OA
BRANCH  21  23
HETATM   23  C10 UNL     1       0.839   4.102   7.313  1.00  0.00     0.278 C 
HETATM   24  C11 UNL     1       2.089   3.975   8.120  1.00  0.00     0.050 C 
BRANCH  23  25
HETATM   25  N2  UNL     1       0.841   3.231   6.153  1.00  0.00    -0.066 N 
ATOM     26  H23 UNL     1       1.684   3.354   5.592  1.00  0.00     0.275 HD
ATOM     27  H22 UNL     1       0.971   2.255   6.416  1.00  0.00     0.275 HD
ATOM     28  H21 UNL     1      -0.004   3.361   5.597  1.00  0.00     0.275 HD
ENDBRANCH  23  25
ENDBRANCH  21  23
ENDBRANCH  20  21
ENDBRANCH  17  20
BRANCH  18  29
HETATM   29  O7  UNL     1      -0.902   2.731  12.147  1.00  0.00    -0.388 OA
ATOM     30  H7  UNL     1      -1.333   2.039  12.635  1.00  0.00     0.210 HD
ENDBRANCH  18  29
BRANCH  19  31
HETATM   31  N3  UNL     1      -4.170   3.414  10.787  1.00  0.00    -0.240 N 
ATOM     32  H3  UNL     1      -4.563   2.712  10.160  1.00  0.00     0.198 HD
BRANCH  31  33
HETATM   33  N4  UNL     1      -4.553   4.566  10.666  1.00  0.00    -0.248 NA
BRANCH  33  34
HETATM   34  N5  UNL     1      -4.868   5.730  10.429  1.00  0.00    -0.261 N 
ATOM     35  H52 UNL     1      -5.444   5.295   9.709  1.00  0.00     0.193 HD
ATOM     36  H51 UNL     1      -5.059   6.725  10.316  1.00  0.00     0.193 HD
ENDBRANCH  33  34
ENDBRANCH  31  33
ENDBRANCH  19  31
ENDBRANCH  10  14
ENDBRANCH   6   7
ENDBRANCH   3   6
TORSDOF 12
ENDMDL
