MODEL 1
REMARK VINA RESULT: -8.702665674      0.000      0.000
REMARK  12 active torsions:
REMARK  status: ('A' for Active; 'I' for Inactive)
REMARK    1  A    between atoms: C2_2  and  C3_3 
REMARK    2  A    between atoms: C3_3  and  N1_4 
REMARK       I    between atoms: N1_4  and  C4_5 
REMARK    3  A    between atoms: N1_4  and  C15_23 
REMARK    4  A    between atoms: C4_5  and  C5_7 
REMARK    5  A    between atoms: C7_9  and  N2_10 
REMARK    6  A    between atoms: N2_10  and  C8_12 
REMARK    7  A    between atoms: C11_17  and  O3_18 
REMARK    8  A    between atoms: C13_20  and  O4_21 
REMARK    9  A    between atoms: C15_23  and  C16_24 
REMARK   10  A    between atoms: C15_23  and  C22_33 
REMARK       I    between atoms: C16_24  and  N4_26 
REMARK   11  A    between atoms: N4_26  and  C17_28 
REMARK   12  A    between atoms: C24_36  and  N5_37 
REMARK       I    between atoms: N5_37  and  C25_39 
ROOT
HETATM    1  C5  UNL     1      -0.288   7.526  36.759  1.00  0.00     0.070 A 
HETATM    2  C6  UNL     1      -0.062   7.699  35.376  1.00  0.00     0.051 A 
HETATM    3  C7  UNL     1      -1.035   7.993  34.471  1.00  0.00     0.059 A 
HETATM    4  C9  UNL     1      -2.348   8.136  34.925  1.00  0.00     0.107 A 
HETATM    5  C10 UNL     1      -3.420   8.451  33.987  1.00  0.00     0.104 C 
HETATM    6  N3  UNL     1      -4.283   8.698  33.258  1.00  0.00    -0.191 NA
HETATM    7  C11 UNL     1      -2.606   7.975  36.256  1.00  0.00     0.125 A 
HETATM    8  C13 UNL     1      -1.594   7.672  37.177  1.00  0.00     0.118 A 
ENDROOT
BRANCH   3   9
HETATM    9  N2  UNL     1      -0.830   8.168  33.093  1.00  0.00    -0.333 N 
ATOM     10  H2  UNL     1      -1.585   7.883  32.469  1.00  0.00     0.168 HD
BRANCH   9  11
HETATM   11  C8  UNL     1       0.322   8.701  32.503  1.00  0.00     0.353 C 
HETATM   12  O2  UNL     1       1.355   8.099  32.199  1.00  0.00    -0.283 OA
ENDBRANCH   9  11
ENDBRANCH   3   9
BRANCH   7  13
HETATM   13  O3  UNL     1      -3.941   8.127  36.650  1.00  0.00    -0.352 OA
HETATM   14  C12 UNL     1      -4.392   9.421  36.983  1.00  0.00     0.210 C 
ENDBRANCH   7  13
BRANCH   8  15
HETATM   15  O4  UNL     1      -1.993   7.532  38.470  1.00  0.00    -0.352 OA
HETATM   16  C14 UNL     1      -1.914   8.526  39.431  1.00  0.00     0.210 C 
ENDBRANCH   8  15
BRANCH   1  17
HETATM   17  C4  UNL     1       0.815   7.250  37.643  1.00  0.00     0.258 C 
HETATM   18  N1  UNL     1       1.577   8.165  38.392  1.00  0.00    -0.326 N 
HETATM   19  O1  UNL     1       1.136   6.016  37.739  1.00  0.00    -0.267 OA
BRANCH  18  20
HETATM   20  C3  UNL     1       1.334   9.587  38.352  1.00  0.00     0.154 C 
BRANCH  20  21
HETATM   21  C2  UNL     1       1.796  10.333  37.193  1.00  0.00    -0.017 C 
HETATM   22  C1  UNL     1       0.926  10.867  36.323  1.00  0.00     0.008 C 
ENDBRANCH  20  21
ENDBRANCH  18  20
BRANCH  18  23
HETATM   23  C15 UNL     1       2.712   7.722  39.197  1.00  0.00     0.230 C 
BRANCH  23  24
HETATM   24  C16 UNL     1       2.697   8.415  40.524  1.00  0.00     0.247 C 
HETATM   25  O5  UNL     1       2.541   9.664  40.615  1.00  0.00    -0.271 OA
HETATM   26  N4  UNL     1       2.851   7.722  41.754  1.00  0.00    -0.354 N 
ATOM     27  H4  UNL     1       2.979   6.711  41.719  1.00  0.00     0.162 HD
BRANCH  26  28
HETATM   28  C17 UNL     1       2.838   8.350  43.037  1.00  0.00     0.084 C 
HETATM   29  C18 UNL     1       2.454   7.353  44.116  1.00  0.00     0.025 C 
HETATM   30  C19 UNL     1       3.623   7.273  45.063  1.00  0.00     0.002 C 
HETATM   31  C20 UNL     1       4.783   7.601  44.135  1.00  0.00     0.002 C 
HETATM   32  C21 UNL     1       4.244   8.789  43.385  1.00  0.00     0.025 C 
ENDBRANCH  26  28
ENDBRANCH  23  24
BRANCH  23  33
HETATM   33  C22 UNL     1       4.037   7.906  38.486  1.00  0.00     0.050 A 
HETATM   34  C23 UNL     1       4.302   7.154  37.369  1.00  0.00     0.081 A 
HETATM   35  S1  UNL     1       5.853   7.690  36.894  1.00  0.00    -0.064 SA
HETATM   36  C24 UNL     1       6.092   8.837  38.125  1.00  0.00     0.151 A 
HETATM   37  N6  UNL     1       4.978   8.764  38.849  1.00  0.00    -0.337 N 
ATOM     38  H6  UNL     1       4.850   9.357  39.668  1.00  0.00     0.168 HD
BRANCH  36  39
HETATM   39  N5  UNL     1       7.126   9.634  38.346  1.00  0.00    -0.307 N 
HETATM   40  C25 UNL     1       7.926   9.308  39.449  1.00  0.00     0.219 C 
HETATM   41  C26 UNL     1       7.626   9.737  40.843  1.00  0.00     0.117 C 
HETATM   42  O6  UNL     1       8.960   8.616  39.267  1.00  0.00    -0.274 OA
ATOM     43  H5  UNL     1       7.328  10.436  37.749  1.00  0.00     0.171 HD
ENDBRANCH  36  39
ENDBRANCH  23  33
ENDBRANCH  18  23
ENDBRANCH   1  17
TORSDOF 12
ENDMDL
MODEL 2
REMARK VINA RESULT: -8.501253381      2.474      9.496
REMARK  12 active torsions:
REMARK  status: ('A' for Active; 'I' for Inactive)
REMARK    1  A    between atoms: C2_2  and  C3_3 
REMARK    2  A    between atoms: C3_3  and  N1_4 
REMARK       I    between atoms: N1_4  and  C4_5 
REMARK    3  A    between atoms: N1_4  and  C15_23 
REMARK    4  A    between atoms: C4_5  and  C5_7 
REMARK    5  A    between atoms: C7_9  and  N2_10 
REMARK    6  A    between atoms: N2_10  and  C8_12 
REMARK    7  A    between atoms: C11_17  and  O3_18 
REMARK    8  A    between atoms: C13_20  and  O4_21 
REMARK    9  A    between atoms: C15_23  and  C16_24 
REMARK   10  A    between atoms: C15_23  and  C22_33 
REMARK       I    between atoms: C16_24  and  N4_26 
REMARK   11  A    between atoms: N4_26  and  C17_28 
REMARK   12  A    between atoms: C24_36  and  N5_37 
REMARK       I    between atoms: N5_37  and  C25_39 
ROOT
HETATM    1  C5  UNL     1       3.413   7.635  38.834  1.00  0.00     0.070 A 
HETATM    2  C6  UNL     1       3.099   7.697  40.210  1.00  0.00     0.051 A 
HETATM    3  C7  UNL     1       3.964   8.112  41.175  1.00  0.00     0.059 A 
HETATM    4  C9  UNL     1       5.249   8.506  40.796  1.00  0.00     0.107 A 
HETATM    5  C10 UNL     1       6.206   8.959  41.801  1.00  0.00     0.104 C 
HETATM    6  N3  UNL     1       6.978   9.317  42.582  1.00  0.00    -0.191 NA
HETATM    7  C11 UNL     1       5.590   8.459  39.475  1.00  0.00     0.125 A 
HETATM    8  C13 UNL     1       4.689   8.029  38.490  1.00  0.00     0.118 A 
ENDROOT
BRANCH   3   9
HETATM    9  N2  UNL     1       3.671   8.181  42.547  1.00  0.00    -0.333 N 
ATOM     10  H2  UNL     1       3.653   9.107  42.975  1.00  0.00     0.168 HD
BRANCH   9  11
HETATM   11  C8  UNL     1       3.401   7.086  43.377  1.00  0.00     0.353 C 
HETATM   12  O2  UNL     1       4.101   6.651  44.295  1.00  0.00    -0.283 OA
ENDBRANCH   9  11
ENDBRANCH   3   9
BRANCH   7  13
HETATM   13  O3  UNL     1       6.892   8.862  39.157  1.00  0.00    -0.352 OA
HETATM   14  C12 UNL     1       7.849   7.863  38.882  1.00  0.00     0.210 C 
ENDBRANCH   7  13
BRANCH   8  15
HETATM   15  O4  UNL     1       5.163   8.025  37.216  1.00  0.00    -0.352 OA
HETATM   16  C14 UNL     1       5.291   9.150  36.420  1.00  0.00     0.210 C 
ENDBRANCH   8  15
BRANCH   1  17
HETATM   17  C4  UNL     1       2.417   7.213  37.884  1.00  0.00     0.258 C 
HETATM   18  N1  UNL     1       1.676   8.010  36.991  1.00  0.00    -0.326 N 
HETATM   19  O1  UNL     1       2.179   5.956  37.871  1.00  0.00    -0.267 OA
BRANCH  18  20
HETATM   20  C3  UNL     1       1.831   9.442  36.924  1.00  0.00     0.154 C 
BRANCH  20  21
HETATM   21  C2  UNL     1       1.514  10.225  38.107  1.00  0.00    -0.017 C 
HETATM   22  C1  UNL     1       0.477   9.902  38.894  1.00  0.00     0.008 C 
ENDBRANCH  20  21
ENDBRANCH  18  20
BRANCH  18  23
HETATM   23  C15 UNL     1       0.651   7.426  36.130  1.00  0.00     0.230 C 
BRANCH  23  24
HETATM   24  C16 UNL     1       0.851   7.881  34.718  1.00  0.00     0.247 C 
HETATM   25  O5  UNL     1       1.982   7.828  34.161  1.00  0.00    -0.271 OA
HETATM   26  N4  UNL     1      -0.206   8.393  33.920  1.00  0.00    -0.354 N 
ATOM     27  H4  UNL     1      -1.135   8.449  34.337  1.00  0.00     0.162 HD
BRANCH  26  28
HETATM   28  C17 UNL     1      -0.052   8.833  32.570  1.00  0.00     0.084 C 
HETATM   29  C18 UNL     1      -0.793   7.910  31.619  1.00  0.00     0.025 C 
HETATM   30  C19 UNL     1      -1.831   8.752  30.923  1.00  0.00     0.002 C 
HETATM   31  C20 UNL     1      -2.111   9.812  31.977  1.00  0.00     0.002 C 
HETATM   32  C21 UNL     1      -0.718  10.183  32.412  1.00  0.00     0.025 C 
ENDBRANCH  26  28
ENDBRANCH  23  24
BRANCH  23  33
HETATM   33  C22 UNL     1      -0.753   7.718  36.618  1.00  0.00     0.050 A 
HETATM   34  C23 UNL     1      -1.322   6.882  37.546  1.00  0.00     0.081 A 
HETATM   35  S1  UNL     1      -2.856   7.583  37.818  1.00  0.00    -0.064 SA
HETATM   36  C24 UNL     1      -2.706   8.897  36.749  1.00  0.00     0.151 A 
HETATM   37  N6  UNL     1      -1.491   8.746  36.230  1.00  0.00    -0.337 N 
ATOM     38  H6  UNL     1      -1.134   9.410  35.544  1.00  0.00     0.168 HD
BRANCH  36  39
HETATM   39  N5  UNL     1      -3.570   9.861  36.473  1.00  0.00    -0.307 N 
HETATM   40  C25 UNL     1      -4.718   9.473  35.772  1.00  0.00     0.219 C 
HETATM   41  C26 UNL     1      -4.778   9.347  34.289  1.00  0.00     0.117 C 
HETATM   42  O6  UNL     1      -5.766   9.214  36.417  1.00  0.00    -0.274 OA
ATOM     43  H5  UNL     1      -3.409  10.828  36.754  1.00  0.00     0.171 HD
ENDBRANCH  36  39
ENDBRANCH  23  33
ENDBRANCH  18  23
ENDBRANCH   1  17
TORSDOF 12
ENDMDL
MODEL 3
REMARK VINA RESULT: -8.427369277      0.969      1.056
REMARK  12 active torsions:
REMARK  status: ('A' for Active; 'I' for Inactive)
REMARK    1  A    between atoms: C2_2  and  C3_3 
REMARK    2  A    between atoms: C3_3  and  N1_4 
REMARK       I    between atoms: N1_4  and  C4_5 
REMARK    3  A    between atoms: N1_4  and  C15_23 
REMARK    4  A    between atoms: C4_5  and  C5_7 
REMARK    5  A    between atoms: C7_9  and  N2_10 
REMARK    6  A    between atoms: N2_10  and  C8_12 
REMARK    7  A    between atoms: C11_17  and  O3_18 
REMARK    8  A    between atoms: C13_20  and  O4_21 
REMARK    9  A    between atoms: C15_23  and  C16_24 
REMARK   10  A    between atoms: C15_23  and  C22_33 
REMARK       I    between atoms: C16_24  and  N4_26 
REMARK   11  A    between atoms: N4_26  and  C17_28 
REMARK   12  A    between atoms: C24_36  and  N5_37 
REMARK       I    between atoms: N5_37  and  C25_39 
ROOT
HETATM    1  C5  UNL     1       0.123   7.417  36.776  1.00  0.00     0.070 A 
HETATM    2  C6  UNL     1       0.376   7.618  35.401  1.00  0.00     0.051 A 
HETATM    3  C7  UNL     1      -0.573   7.969  34.491  1.00  0.00     0.059 A 
HETATM    4  C9  UNL     1      -1.887   8.146  34.930  1.00  0.00     0.107 A 
HETATM    5  C10 UNL     1      -2.934   8.523  33.986  1.00  0.00     0.104 C 
HETATM    6  N3  UNL     1      -3.776   8.819  33.252  1.00  0.00    -0.191 NA
HETATM    7  C11 UNL     1      -2.171   7.959  36.252  1.00  0.00     0.125 A 
HETATM    8  C13 UNL     1      -1.183   7.597  37.180  1.00  0.00     0.118 A 
ENDROOT
BRANCH   3   9
HETATM    9  N2  UNL     1      -0.342   8.174  33.121  1.00  0.00    -0.333 N 
ATOM     10  H2  UNL     1      -1.127   8.022  32.487  1.00  0.00     0.168 HD
BRANCH   9  11
HETATM   11  C8  UNL     1       0.875   8.567  32.551  1.00  0.00     0.353 C 
HETATM   12  O2  UNL     1       1.776   7.836  32.129  1.00  0.00    -0.283 OA
ENDBRANCH   9  11
ENDBRANCH   3   9
BRANCH   7  13
HETATM   13  O3  UNL     1      -3.505   8.147  36.632  1.00  0.00    -0.352 OA
HETATM   14  C12 UNL     1      -3.913   9.444  37.005  1.00  0.00     0.210 C 
ENDBRANCH   7  13
BRANCH   8  15
HETATM   15  O4  UNL     1      -1.606   7.437  38.462  1.00  0.00    -0.352 OA
HETATM   16  C14 UNL     1      -1.534   8.412  39.442  1.00  0.00     0.210 C 
ENDBRANCH   8  15
BRANCH   1  17
HETATM   17  C4  UNL     1       1.202   7.079  37.667  1.00  0.00     0.258 C 
HETATM   18  N1  UNL     1       1.955   7.942  38.485  1.00  0.00    -0.326 N 
HETATM   19  O1  UNL     1       1.510   5.838  37.699  1.00  0.00    -0.267 OA
BRANCH  18  20
HETATM   20  C3  UNL     1       1.726   9.366  38.522  1.00  0.00     0.154 C 
BRANCH  20  21
HETATM   21  C2  UNL     1       2.033  10.144  37.333  1.00  0.00    -0.017 C 
HETATM   22  C1  UNL     1       1.082  10.848  36.702  1.00  0.00     0.008 C 
ENDBRANCH  20  21
ENDBRANCH  18  20
BRANCH  18  23
HETATM   23  C15 UNL     1       3.067   7.441  39.289  1.00  0.00     0.230 C 
BRANCH  23  24
HETATM   24  C16 UNL     1       2.705   7.485  40.741  1.00  0.00     0.247 C 
HETATM   25  O5  UNL     1       1.506   7.585  41.120  1.00  0.00    -0.271 OA
HETATM   26  N4  UNL     1       3.675   7.414  41.776  1.00  0.00    -0.354 N 
ATOM     27  H4  UNL     1       4.655   7.332  41.507  1.00  0.00     0.162 HD
BRANCH  26  28
HETATM   28  C17 UNL     1       3.366   7.450  43.170  1.00  0.00     0.084 C 
HETATM   29  C18 UNL     1       4.484   6.822  43.982  1.00  0.00     0.025 C 
HETATM   30  C19 UNL     1       5.010   7.899  44.896  1.00  0.00     0.002 C 
HETATM   31  C20 UNL     1       4.718   9.150  44.082  1.00  0.00     0.002 C 
HETATM   32  C21 UNL     1       3.307   8.893  43.625  1.00  0.00     0.025 C 
ENDBRANCH  26  28
ENDBRANCH  23  24
BRANCH  23  33
HETATM   33  C22 UNL     1       4.362   8.177  39.013  1.00  0.00     0.050 A 
HETATM   34  C23 UNL     1       5.042   7.912  37.851  1.00  0.00     0.081 A 
HETATM   35  S1  UNL     1       6.393   8.954  37.941  1.00  0.00    -0.064 SA
HETATM   36  C24 UNL     1       6.036   9.673  39.439  1.00  0.00     0.151 A 
HETATM   37  N6  UNL     1       4.899   9.088  39.808  1.00  0.00    -0.337 N 
ATOM     38  H6  UNL     1       4.449   9.338  40.689  1.00  0.00     0.168 HD
BRANCH  36  39
HETATM   39  N5  UNL     1       6.703  10.597  40.111  1.00  0.00    -0.307 N 
HETATM   40  C25 UNL     1       7.848  10.157  40.787  1.00  0.00     0.219 C 
HETATM   41  C26 UNL     1       7.823   9.553  42.148  1.00  0.00     0.117 C 
HETATM   42  O6  UNL     1       8.968  10.272  40.226  1.00  0.00    -0.274 OA
ATOM     43  H5  UNL     1       6.402  11.572  40.135  1.00  0.00     0.171 HD
ENDBRANCH  36  39
ENDBRANCH  23  33
ENDBRANCH  18  23
ENDBRANCH   1  17
TORSDOF 12
ENDMDL
MODEL 4
REMARK VINA RESULT: -8.256180363      2.023      3.932
REMARK  12 active torsions:
REMARK  status: ('A' for Active; 'I' for Inactive)
REMARK    1  A    between atoms: C2_2  and  C3_3 
REMARK    2  A    between atoms: C3_3  and  N1_4 
REMARK       I    between atoms: N1_4  and  C4_5 
REMARK    3  A    between atoms: N1_4  and  C15_23 
REMARK    4  A    between atoms: C4_5  and  C5_7 
REMARK    5  A    between atoms: C7_9  and  N2_10 
REMARK    6  A    between atoms: N2_10  and  C8_12 
REMARK    7  A    between atoms: C11_17  and  O3_18 
REMARK    8  A    between atoms: C13_20  and  O4_21 
REMARK    9  A    between atoms: C15_23  and  C16_24 
REMARK   10  A    between atoms: C15_23  and  C22_33 
REMARK       I    between atoms: C16_24  and  N4_26 
REMARK   11  A    between atoms: N4_26  and  C17_28 
REMARK   12  A    between atoms: C24_36  and  N5_37 
REMARK       I    between atoms: N5_37  and  C25_39 
ROOT
HETATM    1  C5  UNL     1       0.081   9.221  36.702  1.00  0.00     0.070 A 
HETATM    2  C6  UNL     1       0.338   8.998  35.331  1.00  0.00     0.051 A 
HETATM    3  C7  UNL     1      -0.592   8.562  34.438  1.00  0.00     0.059 A 
HETATM    4  C9  UNL     1      -1.890   8.314  34.892  1.00  0.00     0.107 A 
HETATM    5  C10 UNL     1      -2.916   7.846  33.967  1.00  0.00     0.104 C 
HETATM    6  N3  UNL     1      -3.741   7.472  33.249  1.00  0.00    -0.191 NA
HETATM    7  C11 UNL     1      -2.176   8.518  36.212  1.00  0.00     0.125 A 
HETATM    8  C13 UNL     1      -1.208   8.967  37.121  1.00  0.00     0.118 A 
ENDROOT
BRANCH   3   9
HETATM    9  N2  UNL     1      -0.356   8.334  33.073  1.00  0.00    -0.333 N 
ATOM     10  H2  UNL     1      -1.121   7.935  32.528  1.00  0.00     0.168 HD
BRANCH   9  11
HETATM   11  C8  UNL     1       0.839   8.606  32.397  1.00  0.00     0.353 C 
HETATM   12  O2  UNL     1       1.801   7.850  32.242  1.00  0.00    -0.283 OA
ENDBRANCH   9  11
ENDBRANCH   3   9
BRANCH   7  13
HETATM   13  O3  UNL     1      -3.492   8.249  36.608  1.00  0.00    -0.352 OA
HETATM   14  C12 UNL     1      -4.387   9.334  36.718  1.00  0.00     0.210 C 
ENDBRANCH   7  13
BRANCH   8  15
HETATM   15  O4  UNL     1      -1.629   9.119  38.406  1.00  0.00    -0.352 OA
HETATM   16  C14 UNL     1      -1.432   8.191  39.414  1.00  0.00     0.210 C 
ENDBRANCH   8  15
BRANCH   1  17
HETATM   17  C4  UNL     1       1.124   9.717  37.561  1.00  0.00     0.258 C 
HETATM   18  N1  UNL     1       2.152   8.988  38.187  1.00  0.00    -0.326 N 
HETATM   19  O1  UNL     1       1.093  10.976  37.780  1.00  0.00    -0.267 OA
BRANCH  18  20
HETATM   20  C3  UNL     1       2.284   7.559  38.042  1.00  0.00     0.154 C 
BRANCH  20  21
HETATM   21  C2  UNL     1       3.033   7.048  36.905  1.00  0.00    -0.017 C 
HETATM   22  C1  UNL     1       4.324   6.709  37.023  1.00  0.00     0.008 C 
ENDBRANCH  20  21
ENDBRANCH  18  20
BRANCH  18  23
HETATM   23  C15 UNL     1       3.102   9.640  39.085  1.00  0.00     0.230 C 
BRANCH  23  24
HETATM   24  C16 UNL     1       4.421   9.808  38.397  1.00  0.00     0.247 C 
HETATM   25  O5  UNL     1       4.494  10.112  37.174  1.00  0.00    -0.271 OA
HETATM   26  N4  UNL     1       5.662   9.641  39.066  1.00  0.00    -0.354 N 
ATOM     27  H4  UNL     1       5.642   9.396  40.056  1.00  0.00     0.162 HD
BRANCH  26  28
HETATM   28  C17 UNL     1       6.938   9.796  38.442  1.00  0.00     0.084 C 
HETATM   29  C18 UNL     1       7.592  11.095  38.878  1.00  0.00     0.025 C 
HETATM   30  C19 UNL     1       8.877  10.719  39.569  1.00  0.00     0.002 C 
HETATM   31  C20 UNL     1       8.530   9.344  40.119  1.00  0.00     0.002 C 
HETATM   32  C21 UNL     1       7.862   8.702  38.932  1.00  0.00     0.025 C 
ENDBRANCH  26  28
ENDBRANCH  23  24
BRANCH  23  33
HETATM   33  C22 UNL     1       3.249   8.912  40.405  1.00  0.00     0.050 A 
HETATM   34  C23 UNL     1       2.125   8.650  41.148  1.00  0.00     0.081 A 
HETATM   35  S1  UNL     1       2.739   7.817  42.508  1.00  0.00    -0.064 SA
HETATM   36  C24 UNL     1       4.383   7.840  42.074  1.00  0.00     0.151 A 
HETATM   37  N6  UNL     1       4.394   8.482  40.909  1.00  0.00    -0.337 N 
ATOM     38  H6  UNL     1       5.271   8.639  40.412  1.00  0.00     0.168 HD
BRANCH  36  39
HETATM   39  N5  UNL     1       5.430   7.347  42.715  1.00  0.00    -0.307 N 
HETATM   40  C25 UNL     1       5.479   7.598  44.093  1.00  0.00     0.219 C 
HETATM   41  C26 UNL     1       6.029   8.848  44.686  1.00  0.00     0.117 C 
HETATM   42  O6  UNL     1       5.039   6.726  44.886  1.00  0.00    -0.274 OA
ATOM     43  H5  UNL     1       6.157   6.816  42.236  1.00  0.00     0.171 HD
ENDBRANCH  36  39
ENDBRANCH  23  33
ENDBRANCH  18  23
ENDBRANCH   1  17
TORSDOF 12
ENDMDL
MODEL 5
REMARK VINA RESULT: -8.073653826      1.386      2.814
REMARK  12 active torsions:
REMARK  status: ('A' for Active; 'I' for Inactive)
REMARK    1  A    between atoms: C2_2  and  C3_3 
REMARK    2  A    between atoms: C3_3  and  N1_4 
REMARK       I    between atoms: N1_4  and  C4_5 
REMARK    3  A    between atoms: N1_4  and  C15_23 
REMARK    4  A    between atoms: C4_5  and  C5_7 
REMARK    5  A    between atoms: C7_9  and  N2_10 
REMARK    6  A    between atoms: N2_10  and  C8_12 
REMARK    7  A    between atoms: C11_17  and  O3_18 
REMARK    8  A    between atoms: C13_20  and  O4_21 
REMARK    9  A    between atoms: C15_23  and  C16_24 
REMARK   10  A    between atoms: C15_23  and  C22_33 
REMARK       I    between atoms: C16_24  and  N4_26 
REMARK   11  A    between atoms: N4_26  and  C17_28 
REMARK   12  A    between atoms: C24_36  and  N5_37 
REMARK       I    between atoms: N5_37  and  C25_39 
ROOT
HETATM    1  C5  UNL     1      -0.305   7.490  36.534  1.00  0.00     0.070 A 
HETATM    2  C6  UNL     1      -1.617   7.756  36.985  1.00  0.00     0.051 A 
HETATM    3  C7  UNL     1      -2.653   8.097  36.171  1.00  0.00     0.059 A 
HETATM    4  C9  UNL     1      -2.420   8.196  34.798  1.00  0.00     0.107 A 
HETATM    5  C10 UNL     1      -3.503   8.559  33.891  1.00  0.00     0.104 C 
HETATM    6  N3  UNL     1      -4.349   8.848  33.158  1.00  0.00    -0.191 NA
HETATM    7  C11 UNL     1      -1.163   7.947  34.324  1.00  0.00     0.125 A 
HETATM    8  C13 UNL     1      -0.105   7.596  35.174  1.00  0.00     0.118 A 
ENDROOT
BRANCH   3   9
HETATM    9  N2  UNL     1      -3.963   8.365  36.600  1.00  0.00    -0.333 N 
ATOM     10  H2  UNL     1      -4.613   7.580  36.633  1.00  0.00     0.168 HD
BRANCH   9  11
HETATM   11  C8  UNL     1      -4.453   9.618  36.986  1.00  0.00     0.353 C 
HETATM   12  O2  UNL     1      -5.149  10.388  36.320  1.00  0.00    -0.283 OA
ENDBRANCH   9  11
ENDBRANCH   3   9
BRANCH   7  13
HETATM   13  O3  UNL     1      -0.989   8.065  32.940  1.00  0.00    -0.352 OA
HETATM   14  C12 UNL     1      -0.549   9.304  32.429  1.00  0.00     0.210 C 
ENDBRANCH   7  13
BRANCH   8  15
HETATM   15  O4  UNL     1       1.095   7.385  34.569  1.00  0.00    -0.352 OA
HETATM   16  C14 UNL     1       2.214   8.183  34.738  1.00  0.00     0.210 C 
ENDBRANCH   8  15
BRANCH   1  17
HETATM   17  C4  UNL     1       0.716   7.103  37.472  1.00  0.00     0.258 C 
HETATM   18  N1  UNL     1       1.355   7.901  38.439  1.00  0.00    -0.326 N 
HETATM   19  O1  UNL     1       1.085   5.880  37.396  1.00  0.00    -0.267 OA
BRANCH  18  20
HETATM   20  C3  UNL     1       1.048   9.301  38.609  1.00  0.00     0.154 C 
BRANCH  20  21
HETATM   21  C2  UNL     1       1.655  10.255  37.696  1.00  0.00    -0.017 C 
HETATM   22  C1  UNL     1       0.946  10.807  36.701  1.00  0.00     0.008 C 
ENDBRANCH  20  21
ENDBRANCH  18  20
BRANCH  18  23
HETATM   23  C15 UNL     1       2.424   7.363  39.276  1.00  0.00     0.230 C 
BRANCH  23  24
HETATM   24  C16 UNL     1       2.054   7.494  40.721  1.00  0.00     0.247 C 
HETATM   25  O5  UNL     1       0.852   7.614  41.087  1.00  0.00    -0.271 OA
HETATM   26  N4  UNL     1       3.018   7.489  41.763  1.00  0.00    -0.354 N 
ATOM     27  H4  UNL     1       4.000   7.392  41.505  1.00  0.00     0.162 HD
BRANCH  26  28
HETATM   28  C17 UNL     1       2.701   7.608  43.151  1.00  0.00     0.084 C 
HETATM   29  C18 UNL     1       3.638   6.756  43.989  1.00  0.00     0.025 C 
HETATM   30  C19 UNL     1       4.374   7.699  44.904  1.00  0.00     0.002 C 
HETATM   31  C20 UNL     1       4.382   8.975  44.076  1.00  0.00     0.002 C 
HETATM   32  C21 UNL     1       2.958   9.033  43.594  1.00  0.00     0.025 C 
ENDBRANCH  26  28
ENDBRANCH  23  24
BRANCH  23  33
HETATM   33  C22 UNL     1       3.767   7.998  38.983  1.00  0.00     0.050 A 
HETATM   34  C23 UNL     1       4.353   7.781  37.761  1.00  0.00     0.081 A 
HETATM   35  S1  UNL     1       5.803   8.679  37.855  1.00  0.00    -0.064 SA
HETATM   36  C24 UNL     1       5.601   9.286  39.430  1.00  0.00     0.151 A 
HETATM   37  N6  UNL     1       4.434   8.777  39.819  1.00  0.00    -0.337 N 
ATOM     38  H6  UNL     1       4.061   8.985  40.745  1.00  0.00     0.168 HD
BRANCH  36  39
HETATM   39  N5  UNL     1       6.392  10.078  40.136  1.00  0.00    -0.307 N 
HETATM   40  C25 UNL     1       7.418   9.443  40.848  1.00  0.00     0.219 C 
HETATM   41  C26 UNL     1       7.240   8.845  42.199  1.00  0.00     0.117 C 
HETATM   42  O6  UNL     1       8.561   9.366  40.328  1.00  0.00    -0.274 OA
ATOM     43  H5  UNL     1       6.263  11.089  40.161  1.00  0.00     0.171 HD
ENDBRANCH  36  39
ENDBRANCH  23  33
ENDBRANCH  18  23
ENDBRANCH   1  17
TORSDOF 12
ENDMDL
