MODEL 1
REMARK VINA RESULT: -8.534768253      0.000      0.000
REMARK  16 active torsions:
REMARK  status: ('A' for Active; 'I' for Inactive)
REMARK    1  A    between atoms: O1_2  and  C2_3 
REMARK    2  A    between atoms: C6_7  and  N1_8 
REMARK    3  A    between atoms: N1_8  and  C7_10 
REMARK    4  A    between atoms: C8_13  and  N3_14 
REMARK    5  A    between atoms: N3_14  and  C9_16 
REMARK    6  A    between atoms: C9_16  and  C10_17 
REMARK    7  A    between atoms: C10_17  and  C11_18 
REMARK    8  A    between atoms: C11_18  and  C12_19 
REMARK    9  A    between atoms: C12_19  and  C13_20 
REMARK   10  A    between atoms: C15_25  and  N6_26 
REMARK   11  A    between atoms: N6_26  and  C16_28 
REMARK   12  A    between atoms: C16_28  and  C17_29 
REMARK   13  A    between atoms: C17_29  and  C18_30 
REMARK   14  A    between atoms: C18_30  and  N7_31 
REMARK       I    between atoms: N8_34  and  C21_35 
REMARK   15  A    between atoms: C21_35  and  O3_37 
REMARK   16  A    between atoms: O3_37  and  C22_38 
ROOT
HETATM    1  C13 UNL     1       0.470   9.488  39.150  1.00  0.00     0.124 C 
HETATM    2  C14 UNL     1       1.089  10.159  37.996  1.00  0.00     0.059 C 
HETATM    3  N4  UNL     1       1.563  10.686  37.080  1.00  0.00    -0.197 NA
ENDROOT
BRANCH   1   4
HETATM    4  C12 UNL     1      -1.008   9.377  38.881  1.00  0.00     0.014 C 
BRANCH   4   5
HETATM    5  C11 UNL     1      -1.598   8.205  39.607  1.00  0.00     0.002 C 
BRANCH   5   6
HETATM    6  C10 UNL     1      -2.444   7.338  38.702  1.00  0.00     0.020 C 
BRANCH   6   7
HETATM    7  C9  UNL     1      -1.840   7.394  37.310  1.00  0.00     0.138 C 
BRANCH   7   8
HETATM    8  N3  UNL     1      -0.812   6.390  37.141  1.00  0.00    -0.225 N 
ATOM      9  H3  UNL     1      -0.983   5.422  37.413  1.00  0.00     0.177 HD
BRANCH   8  10
HETATM   10  C8  UNL     1       0.320   6.741  36.642  1.00  0.00     0.707 A 
HETATM   11  N2  UNL     1       0.329   7.220  35.373  1.00  0.00    -0.021 N 
HETATM   12  C7  UNL     1       1.489   7.591  34.826  1.00  0.00     0.711 A 
ATOM     13  H2  UNL     1      -0.539   7.297  34.844  1.00  0.00     0.203 HD
HETATM   14  N9  UNL     1       2.654   7.507  35.483  1.00  0.00    -0.021 N 
HETATM   15  C15 UNL     1       2.635   7.033  36.733  1.00  0.00     0.707 A 
ATOM     16  H9  UNL     1       3.528   7.797  35.044  1.00  0.00     0.203 HD
HETATM   17  N5  UNL     1       1.477   6.652  37.312  1.00  0.00    -0.022 N 
ATOM     18  H5  UNL     1       1.483   6.294  38.267  1.00  0.00     0.203 HD
BRANCH  12  19
HETATM   19  N1  UNL     1       1.519   8.049  33.623  1.00  0.00    -0.191 N 
ATOM     20  H1  UNL     1       2.410   8.029  33.125  1.00  0.00     0.184 HD
BRANCH  19  21
HETATM   21  C6  UNL     1       0.392   8.579  32.948  1.00  0.00     0.051 A 
HETATM   22  C5  UNL     1      -0.092   9.811  33.365  1.00  0.00     0.030 A 
HETATM   23  C4  UNL     1      -1.198  10.387  32.743  1.00  0.00     0.005 A 
HETATM   24  C3  UNL     1      -1.797   9.708  31.707  1.00  0.00     0.037 A 
HETATM   25  C2  UNL     1      -1.343   8.481  31.264  1.00  0.00     0.070 A 
HETATM   26  C28 UNL     1      -0.235   7.943  31.916  1.00  0.00     0.066 A 
BRANCH  25  27
HETATM   27  O1  UNL     1      -1.982   7.839  30.217  1.00  0.00    -0.356 OA
HETATM   28  C1  UNL     1      -2.922   8.601  29.451  1.00  0.00     0.210 C 
ENDBRANCH  25  27
ENDBRANCH  19  21
ENDBRANCH  12  19
BRANCH  15  29
HETATM   29  N6  UNL     1       3.721   6.934  37.398  1.00  0.00    -0.225 N 
ATOM     30  H6  UNL     1       3.825   6.146  38.037  1.00  0.00     0.177 HD
BRANCH  29  31
HETATM   31  C16 UNL     1       4.807   7.875  37.296  1.00  0.00     0.140 C 
BRANCH  31  32
HETATM   32  C17 UNL     1       4.686   8.927  38.388  1.00  0.00     0.050 C 
BRANCH  32  33
HETATM   33  C18 UNL     1       6.073   9.416  38.694  1.00  0.00     0.274 C 
BRANCH  33  34
HETATM   34  N7  UNL     1       6.576   8.763  39.875  1.00  0.00     0.091 N 
HETATM   35  C19 UNL     1       5.546   8.001  40.491  1.00  0.00     0.292 C 
HETATM   36  C20 UNL     1       6.059   7.307  41.763  1.00  0.00     0.158 C 
HETATM   37  N8  UNL     1       6.570   8.348  42.620  1.00  0.00    -0.325 N 
HETATM   38  C21 UNL     1       6.082   8.433  43.947  1.00  0.00     0.363 C 
HETATM   39  C26 UNL     1       7.550   9.254  42.094  1.00  0.00     0.158 C 
HETATM   40  O2  UNL     1       6.522   9.340  44.698  1.00  0.00    -0.238 OA
HETATM   41  C27 UNL     1       7.198   9.757  40.719  1.00  0.00     0.292 C 
BRANCH  38  42
HETATM   42  O3  UNL     1       5.148   7.582  44.477  1.00  0.00    -0.294 OA
BRANCH  42  43
HETATM   43  C22 UNL     1       3.785   7.840  44.606  1.00  0.00     0.061 C 
HETATM   44  C23 UNL     1       3.019   6.692  43.982  1.00  0.00     0.046 C 
HETATM   45  C24 UNL     1       3.300   8.000  46.014  1.00  0.00     0.046 C 
HETATM   46  C25 UNL     1       3.461   9.120  43.863  1.00  0.00     0.046 C 
ENDBRANCH  42  43
ENDBRANCH  38  42
ENDBRANCH  33  34
ENDBRANCH  32  33
ENDBRANCH  31  32
ENDBRANCH  29  31
ENDBRANCH  15  29
ENDBRANCH   8  10
ENDBRANCH   7   8
ENDBRANCH   6   7
ENDBRANCH   5   6
ENDBRANCH   4   5
ENDBRANCH   1   4
TORSDOF 16
ENDMDL
MODEL 2
REMARK VINA RESULT: -8.417876296      1.996     10.536
REMARK  16 active torsions:
REMARK  status: ('A' for Active; 'I' for Inactive)
REMARK    1  A    between atoms: O1_2  and  C2_3 
REMARK    2  A    between atoms: C6_7  and  N1_8 
REMARK    3  A    between atoms: N1_8  and  C7_10 
REMARK    4  A    between atoms: C8_13  and  N3_14 
REMARK    5  A    between atoms: N3_14  and  C9_16 
REMARK    6  A    between atoms: C9_16  and  C10_17 
REMARK    7  A    between atoms: C10_17  and  C11_18 
REMARK    8  A    between atoms: C11_18  and  C12_19 
REMARK    9  A    between atoms: C12_19  and  C13_20 
REMARK   10  A    between atoms: C15_25  and  N6_26 
REMARK   11  A    between atoms: N6_26  and  C16_28 
REMARK   12  A    between atoms: C16_28  and  C17_29 
REMARK   13  A    between atoms: C17_29  and  C18_30 
REMARK   14  A    between atoms: C18_30  and  N7_31 
REMARK       I    between atoms: N8_34  and  C21_35 
REMARK   15  A    between atoms: C21_35  and  O3_37 
REMARK   16  A    between atoms: O3_37  and  C22_38 
ROOT
HETATM    1  C13 UNL     1       6.006  10.449  37.447  1.00  0.00     0.124 C 
HETATM    2  C14 UNL     1       5.913   9.827  38.777  1.00  0.00     0.059 C 
HETATM    3  N4  UNL     1       5.831   9.328  39.819  1.00  0.00    -0.197 NA
ENDROOT
BRANCH   1   4
HETATM    4  C12 UNL     1       5.491   9.455  36.437  1.00  0.00     0.014 C 
BRANCH   4   5
HETATM    5  C11 UNL     1       3.994   9.384  36.472  1.00  0.00     0.002 C 
BRANCH   5   6
HETATM    6  C10 UNL     1       3.478   8.013  36.095  1.00  0.00     0.020 C 
BRANCH   6   7
HETATM    7  C9  UNL     1       4.205   6.993  36.953  1.00  0.00     0.138 C 
BRANCH   7   8
HETATM    8  N3  UNL     1       3.284   6.270  37.803  1.00  0.00    -0.225 N 
ATOM      9  H3  UNL     1       3.226   5.252  37.758  1.00  0.00     0.177 HD
BRANCH   8  10
HETATM   10  C8  UNL     1       2.542   6.932  38.618  1.00  0.00     0.707 A 
HETATM   11  N2  UNL     1       3.156   7.648  39.592  1.00  0.00    -0.021 N 
HETATM   12  C7  UNL     1       2.414   8.345  40.455  1.00  0.00     0.711 A 
ATOM     13  H2  UNL     1       4.174   7.654  39.665  1.00  0.00     0.203 HD
HETATM   14  N9  UNL     1       1.075   8.367  40.398  1.00  0.00    -0.021 N 
HETATM   15  C15 UNL     1       0.478   7.658  39.435  1.00  0.00     0.707 A 
ATOM     16  H9  UNL     1       0.528   8.908  41.068  1.00  0.00     0.203 HD
HETATM   17  N5  UNL     1       1.204   6.945  38.549  1.00  0.00    -0.022 N 
ATOM     18  H5  UNL     1       0.730   6.411  37.820  1.00  0.00     0.203 HD
BRANCH  12  19
HETATM   19  N1  UNL     1       2.978   9.032  41.387  1.00  0.00    -0.191 N 
ATOM     20  H1  UNL     1       3.091  10.035  41.241  1.00  0.00     0.184 HD
BRANCH  19  21
HETATM   21  C6  UNL     1       3.450   8.480  42.603  1.00  0.00     0.051 A 
HETATM   22  C5  UNL     1       2.511   7.976  43.493  1.00  0.00     0.030 A 
HETATM   23  C4  UNL     1       2.910   7.420  44.707  1.00  0.00     0.005 A 
HETATM   24  C3  UNL     1       4.254   7.380  45.002  1.00  0.00     0.037 A 
HETATM   25  C2  UNL     1       5.216   7.871  44.141  1.00  0.00     0.070 A 
HETATM   26  C28 UNL     1       4.772   8.419  42.940  1.00  0.00     0.066 A 
BRANCH  25  27
HETATM   27  O1  UNL     1       6.556   7.807  44.485  1.00  0.00    -0.356 OA
HETATM   28  C1  UNL     1       7.298   9.032  44.477  1.00  0.00     0.210 C 
ENDBRANCH  25  27
ENDBRANCH  19  21
ENDBRANCH  12  19
BRANCH  15  29
HETATM   29  N6  UNL     1      -0.796   7.647  39.342  1.00  0.00    -0.225 N 
ATOM     30  H6  UNL     1      -1.227   6.969  38.714  1.00  0.00     0.177 HD
BRANCH  29  31
HETATM   31  C16 UNL     1      -1.657   8.540  40.075  1.00  0.00     0.140 C 
BRANCH  31  32
HETATM   32  C17 UNL     1      -2.561   9.294  39.111  1.00  0.00     0.050 C 
BRANCH  32  33
HETATM   33  C18 UNL     1      -1.793   9.484  37.834  1.00  0.00     0.274 C 
BRANCH  33  34
HETATM   34  N7  UNL     1      -2.283   8.580  36.825  1.00  0.00     0.091 N 
HETATM   35  C19 UNL     1      -1.290   8.372  35.828  1.00  0.00     0.292 C 
HETATM   36  C20 UNL     1      -1.799   7.421  34.733  1.00  0.00     0.158 C 
HETATM   37  N8  UNL     1      -3.003   8.012  34.205  1.00  0.00    -0.325 N 
HETATM   38  C21 UNL     1      -3.098   8.222  32.808  1.00  0.00     0.363 C 
HETATM   39  C26 UNL     1      -4.055   8.363  35.115  1.00  0.00     0.158 C 
HETATM   40  O2  UNL     1      -4.145   8.739  32.341  1.00  0.00    -0.238 OA
HETATM   41  C27 UNL     1      -3.550   9.077  36.340  1.00  0.00     0.292 C 
BRANCH  38  42
HETATM   42  O3  UNL     1      -2.111   7.896  31.914  1.00  0.00    -0.294 OA
BRANCH  42  43
HETATM   43  C22 UNL     1      -1.148   8.764  31.406  1.00  0.00     0.061 C 
HETATM   44  C23 UNL     1       0.221   8.208  31.737  1.00  0.00     0.046 C 
HETATM   45  C24 UNL     1      -1.206   8.980  29.925  1.00  0.00     0.046 C 
HETATM   46  C25 UNL     1      -1.313  10.115  32.070  1.00  0.00     0.046 C 
ENDBRANCH  42  43
ENDBRANCH  38  42
ENDBRANCH  33  34
ENDBRANCH  32  33
ENDBRANCH  31  32
ENDBRANCH  29  31
ENDBRANCH  15  29
ENDBRANCH   8  10
ENDBRANCH   7   8
ENDBRANCH   6   7
ENDBRANCH   5   6
ENDBRANCH   4   5
ENDBRANCH   1   4
TORSDOF 16
ENDMDL
MODEL 3
REMARK VINA RESULT: -8.369507436      2.052      3.557
REMARK  16 active torsions:
REMARK  status: ('A' for Active; 'I' for Inactive)
REMARK    1  A    between atoms: O1_2  and  C2_3 
REMARK    2  A    between atoms: C6_7  and  N1_8 
REMARK    3  A    between atoms: N1_8  and  C7_10 
REMARK    4  A    between atoms: C8_13  and  N3_14 
REMARK    5  A    between atoms: N3_14  and  C9_16 
REMARK    6  A    between atoms: C9_16  and  C10_17 
REMARK    7  A    between atoms: C10_17  and  C11_18 
REMARK    8  A    between atoms: C11_18  and  C12_19 
REMARK    9  A    between atoms: C12_19  and  C13_20 
REMARK   10  A    between atoms: C15_25  and  N6_26 
REMARK   11  A    between atoms: N6_26  and  C16_28 
REMARK   12  A    between atoms: C16_28  and  C17_29 
REMARK   13  A    between atoms: C17_29  and  C18_30 
REMARK   14  A    between atoms: C18_30  and  N7_31 
REMARK       I    between atoms: N8_34  and  C21_35 
REMARK   15  A    between atoms: C21_35  and  O3_37 
REMARK   16  A    between atoms: O3_37  and  C22_38 
ROOT
HETATM    1  C13 UNL     1       0.797   9.621  39.188  1.00  0.00     0.124 C 
HETATM    2  C14 UNL     1       1.421  10.128  37.956  1.00  0.00     0.059 C 
HETATM    3  N4  UNL     1       1.901  10.524  36.979  1.00  0.00    -0.197 NA
ENDROOT
BRANCH   1   4
HETATM    4  C12 UNL     1      -0.666   9.396  38.904  1.00  0.00     0.014 C 
BRANCH   4   5
HETATM    5  C11 UNL     1      -1.170   8.180  39.621  1.00  0.00     0.002 C 
BRANCH   5   6
HETATM    6  C10 UNL     1      -2.251   7.463  38.843  1.00  0.00     0.020 C 
BRANCH   6   7
HETATM    7  C9  UNL     1      -1.807   7.393  37.393  1.00  0.00     0.138 C 
BRANCH   7   8
HETATM    8  N3  UNL     1      -0.798   6.375  37.200  1.00  0.00    -0.225 N 
ATOM      9  H3  UNL     1      -0.983   5.405  37.454  1.00  0.00     0.177 HD
BRANCH   8  10
HETATM   10  C8  UNL     1       0.339   6.716  36.704  1.00  0.00     0.707 A 
HETATM   11  N2  UNL     1       0.359   7.175  35.428  1.00  0.00    -0.021 N 
HETATM   12  C7  UNL     1       1.523   7.535  34.883  1.00  0.00     0.711 A 
ATOM     13  H2  UNL     1      -0.506   7.244  34.891  1.00  0.00     0.203 HD
HETATM   14  N9  UNL     1       2.682   7.461  35.551  1.00  0.00    -0.021 N 
HETATM   15  C15 UNL     1       2.654   7.007  36.808  1.00  0.00     0.707 A 
ATOM     16  H9  UNL     1       3.560   7.742  35.113  1.00  0.00     0.203 HD
HETATM   17  N5  UNL     1       1.491   6.637  37.384  1.00  0.00    -0.022 N 
ATOM     18  H5  UNL     1       1.489   6.295  38.345  1.00  0.00     0.203 HD
BRANCH  12  19
HETATM   19  N1  UNL     1       1.563   7.973  33.673  1.00  0.00    -0.191 N 
ATOM     20  H1  UNL     1       2.445   7.896  33.165  1.00  0.00     0.184 HD
BRANCH  19  21
HETATM   21  C6  UNL     1       0.459   8.555  33.003  1.00  0.00     0.051 A 
HETATM   22  C5  UNL     1       0.044   9.815  33.413  1.00  0.00     0.030 A 
HETATM   23  C4  UNL     1      -1.036  10.442  32.796  1.00  0.00     0.005 A 
HETATM   24  C3  UNL     1      -1.681   9.786  31.772  1.00  0.00     0.037 A 
HETATM   25  C2  UNL     1      -1.297   8.532  31.339  1.00  0.00     0.070 A 
HETATM   26  C28 UNL     1      -0.213   7.943  31.984  1.00  0.00     0.066 A 
BRANCH  25  27
HETATM   27  O1  UNL     1      -1.980   7.914  30.304  1.00  0.00    -0.356 OA
HETATM   28  C1  UNL     1      -3.120   8.594  29.767  1.00  0.00     0.210 C 
ENDBRANCH  25  27
ENDBRANCH  19  21
ENDBRANCH  12  19
BRANCH  15  29
HETATM   29  N6  UNL     1       3.734   6.919  37.483  1.00  0.00    -0.225 N 
ATOM     30  H6  UNL     1       3.680   7.025  38.496  1.00  0.00     0.177 HD
BRANCH  29  31
HETATM   31  C16 UNL     1       5.026   6.676  36.892  1.00  0.00     0.140 C 
BRANCH  31  32
HETATM   32  C17 UNL     1       5.950   7.852  37.169  1.00  0.00     0.050 C 
BRANCH  32  33
HETATM   33  C18 UNL     1       6.693   7.548  38.439  1.00  0.00     0.274 C 
BRANCH  33  34
HETATM   34  N7  UNL     1       6.530   8.629  39.376  1.00  0.00     0.091 N 
HETATM   35  C19 UNL     1       7.213   9.787  38.913  1.00  0.00     0.292 C 
HETATM   36  C20 UNL     1       7.063  10.950  39.907  1.00  0.00     0.158 C 
HETATM   37  N8  UNL     1       7.567  10.474  41.172  1.00  0.00    -0.325 N 
HETATM   38  C21 UNL     1       8.570  11.229  41.828  1.00  0.00     0.363 C 
HETATM   39  C26 UNL     1       7.032   9.259  41.713  1.00  0.00     0.158 C 
HETATM   40  O2  UNL     1       9.016  10.818  42.930  1.00  0.00    -0.238 OA
HETATM   41  C27 UNL     1       6.922   8.164  40.687  1.00  0.00     0.292 C 
BRANCH  38  42
HETATM   42  O3  UNL     1       9.100  12.394  41.336  1.00  0.00    -0.294 OA
BRANCH  42  43
HETATM   43  C22 UNL     1      10.312  12.521  40.661  1.00  0.00     0.061 C 
HETATM   44  C23 UNL     1      10.090  13.383  39.436  1.00  0.00     0.046 C 
HETATM   45  C24 UNL     1      11.419  13.138  41.458  1.00  0.00     0.046 C 
HETATM   46  C25 UNL     1      10.773  11.145  40.228  1.00  0.00     0.046 C 
ENDBRANCH  42  43
ENDBRANCH  38  42
ENDBRANCH  33  34
ENDBRANCH  32  33
ENDBRANCH  31  32
ENDBRANCH  29  31
ENDBRANCH  15  29
ENDBRANCH   8  10
ENDBRANCH   7   8
ENDBRANCH   6   7
ENDBRANCH   5   6
ENDBRANCH   4   5
ENDBRANCH   1   4
TORSDOF 16
ENDMDL
MODEL 4
REMARK VINA RESULT: -8.346962592      2.020     10.893
REMARK  16 active torsions:
REMARK  status: ('A' for Active; 'I' for Inactive)
REMARK    1  A    between atoms: O1_2  and  C2_3 
REMARK    2  A    between atoms: C6_7  and  N1_8 
REMARK    3  A    between atoms: N1_8  and  C7_10 
REMARK    4  A    between atoms: C8_13  and  N3_14 
REMARK    5  A    between atoms: N3_14  and  C9_16 
REMARK    6  A    between atoms: C9_16  and  C10_17 
REMARK    7  A    between atoms: C10_17  and  C11_18 
REMARK    8  A    between atoms: C11_18  and  C12_19 
REMARK    9  A    between atoms: C12_19  and  C13_20 
REMARK   10  A    between atoms: C15_25  and  N6_26 
REMARK   11  A    between atoms: N6_26  and  C16_28 
REMARK   12  A    between atoms: C16_28  and  C17_29 
REMARK   13  A    between atoms: C17_29  and  C18_30 
REMARK   14  A    between atoms: C18_30  and  N7_31 
REMARK       I    between atoms: N8_34  and  C21_35 
REMARK   15  A    between atoms: C21_35  and  O3_37 
REMARK   16  A    between atoms: O3_37  and  C22_38 
ROOT
HETATM    1  C13 UNL     1       7.320   9.793  40.159  1.00  0.00     0.124 C 
HETATM    2  C14 UNL     1       7.182   8.347  39.929  1.00  0.00     0.059 C 
HETATM    3  N4  UNL     1       7.064   7.211  39.737  1.00  0.00    -0.197 NA
ENDROOT
BRANCH   1   4
HETATM    4  C12 UNL     1       6.720  10.508  38.976  1.00  0.00     0.014 C 
BRANCH   4   5
HETATM    5  C11 UNL     1       6.718   9.627  37.763  1.00  0.00     0.002 C 
BRANCH   5   6
HETATM    6  C10 UNL     1       5.724  10.090  36.721  1.00  0.00     0.020 C 
BRANCH   6   7
HETATM    7  C9  UNL     1       4.530   9.154  36.772  1.00  0.00     0.138 C 
BRANCH   7   8
HETATM    8  N3  UNL     1       3.491   9.673  37.634  1.00  0.00    -0.225 N 
ATOM      9  H3  UNL     1       3.159  10.632  37.527  1.00  0.00     0.177 HD
BRANCH   8  10
HETATM   10  C8  UNL     1       2.992   8.905  38.536  1.00  0.00     0.707 A 
HETATM   11  N2  UNL     1       3.842   8.359  39.442  1.00  0.00    -0.021 N 
HETATM   12  C7  UNL     1       3.355   7.556  40.390  1.00  0.00     0.711 A 
ATOM     13  H2  UNL     1       4.841   8.561  39.398  1.00  0.00     0.203 HD
HETATM   14  N9  UNL     1       2.051   7.264  40.485  1.00  0.00    -0.021 N 
HETATM   15  C15 UNL     1       1.221   7.805  39.589  1.00  0.00     0.707 A 
ATOM     16  H9  UNL     1       1.702   6.647  41.219  1.00  0.00     0.203 HD
HETATM   17  N5  UNL     1       1.685   8.622  38.619  1.00  0.00    -0.022 N 
ATOM     18  H5  UNL     1       1.036   9.027  37.945  1.00  0.00     0.203 HD
BRANCH  12  19
HETATM   19  N1  UNL     1       4.145   7.028  41.259  1.00  0.00    -0.191 N 
ATOM     20  H1  UNL     1       4.729   6.246  40.963  1.00  0.00     0.184 HD
BRANCH  19  21
HETATM   21  C6  UNL     1       4.254   7.468  42.602  1.00  0.00     0.051 A 
HETATM   22  C5  UNL     1       3.240   7.115  43.482  1.00  0.00     0.030 A 
HETATM   23  C4  UNL     1       3.286   7.516  44.816  1.00  0.00     0.005 A 
HETATM   24  C3  UNL     1       4.358   8.268  45.240  1.00  0.00     0.037 A 
HETATM   25  C2  UNL     1       5.384   8.637  44.393  1.00  0.00     0.070 A 
HETATM   26  C28 UNL     1       5.296   8.215  43.068  1.00  0.00     0.066 A 
BRANCH  25  27
HETATM   27  O1  UNL     1       6.442   9.395  44.869  1.00  0.00    -0.356 OA
HETATM   28  C1  UNL     1       7.474   9.743  43.940  1.00  0.00     0.210 C 
ENDBRANCH  25  27
ENDBRANCH  19  21
ENDBRANCH  12  19
BRANCH  15  29
HETATM   29  N6  UNL     1      -0.030   7.554  39.639  1.00  0.00    -0.225 N 
ATOM     30  H6  UNL     1      -0.325   6.579  39.682  1.00  0.00     0.177 HD
BRANCH  29  31
HETATM   31  C16 UNL     1      -1.049   8.573  39.638  1.00  0.00     0.140 C 
BRANCH  31  32
HETATM   32  C17 UNL     1      -2.392   7.962  39.270  1.00  0.00     0.050 C 
BRANCH  32  33
HETATM   33  C18 UNL     1      -2.191   7.169  38.008  1.00  0.00     0.274 C 
BRANCH  33  34
HETATM   34  N7  UNL     1      -2.168   8.052  36.871  1.00  0.00     0.091 N 
HETATM   35  C19 UNL     1      -3.412   7.998  36.183  1.00  0.00     0.292 C 
HETATM   36  C20 UNL     1      -3.403   8.923  34.955  1.00  0.00     0.158 C 
HETATM   37  N8  UNL     1      -2.295   8.503  34.135  1.00  0.00    -0.325 N 
HETATM   38  C21 UNL     1      -2.539   8.191  32.775  1.00  0.00     0.363 C 
HETATM   39  C26 UNL     1      -0.991   8.418  34.728  1.00  0.00     0.158 C 
HETATM   40  O2  UNL     1      -1.577   7.822  32.054  1.00  0.00    -0.238 OA
HETATM   41  C27 UNL     1      -1.007   7.738  36.070  1.00  0.00     0.292 C 
BRANCH  38  42
HETATM   42  O3  UNL     1      -3.773   8.264  32.180  1.00  0.00    -0.294 OA
BRANCH  42  43
HETATM   43  C22 UNL     1      -4.268   9.345  31.454  1.00  0.00     0.061 C 
HETATM   44  C23 UNL     1      -5.642   9.691  31.988  1.00  0.00     0.046 C 
HETATM   45  C24 UNL     1      -3.430  10.585  31.513  1.00  0.00     0.046 C 
HETATM   46  C25 UNL     1      -4.383   8.940  29.999  1.00  0.00     0.046 C 
ENDBRANCH  42  43
ENDBRANCH  38  42
ENDBRANCH  33  34
ENDBRANCH  32  33
ENDBRANCH  31  32
ENDBRANCH  29  31
ENDBRANCH  15  29
ENDBRANCH   8  10
ENDBRANCH   7   8
ENDBRANCH   6   7
ENDBRANCH   5   6
ENDBRANCH   4   5
ENDBRANCH   1   4
TORSDOF 16
ENDMDL
MODEL 5
REMARK VINA RESULT: -8.305462148      3.526      6.662
REMARK  16 active torsions:
REMARK  status: ('A' for Active; 'I' for Inactive)
REMARK    1  A    between atoms: O1_2  and  C2_3 
REMARK    2  A    between atoms: C6_7  and  N1_8 
REMARK    3  A    between atoms: N1_8  and  C7_10 
REMARK    4  A    between atoms: C8_13  and  N3_14 
REMARK    5  A    between atoms: N3_14  and  C9_16 
REMARK    6  A    between atoms: C9_16  and  C10_17 
REMARK    7  A    between atoms: C10_17  and  C11_18 
REMARK    8  A    between atoms: C11_18  and  C12_19 
REMARK    9  A    between atoms: C12_19  and  C13_20 
REMARK   10  A    between atoms: C15_25  and  N6_26 
REMARK   11  A    between atoms: N6_26  and  C16_28 
REMARK   12  A    between atoms: C16_28  and  C17_29 
REMARK   13  A    between atoms: C17_29  and  C18_30 
REMARK   14  A    between atoms: C18_30  and  N7_31 
REMARK       I    between atoms: N8_34  and  C21_35 
REMARK   15  A    between atoms: C21_35  and  O3_37 
REMARK   16  A    between atoms: O3_37  and  C22_38 
ROOT
HETATM    1  C13 UNL     1       0.835   9.735  35.729  1.00  0.00     0.124 C 
HETATM    2  C14 UNL     1       1.117  10.448  36.985  1.00  0.00     0.059 C 
HETATM    3  N4  UNL     1       1.325  11.010  37.976  1.00  0.00    -0.197 NA
ENDROOT
BRANCH   1   4
HETATM    4  C12 UNL     1      -0.630   9.381  35.719  1.00  0.00     0.014 C 
BRANCH   4   5
HETATM    5  C11 UNL     1      -0.821   7.894  35.737  1.00  0.00     0.002 C 
BRANCH   5   6
HETATM    6  C10 UNL     1       0.491   7.149  35.834  1.00  0.00     0.020 C 
BRANCH   6   7
HETATM    7  C9  UNL     1       0.390   6.183  37.001  1.00  0.00     0.138 C 
BRANCH   7   8
HETATM    8  N3  UNL     1       1.697   5.859  37.531  1.00  0.00    -0.225 N 
ATOM      9  H3  UNL     1       2.169   4.998  37.257  1.00  0.00     0.177 HD
BRANCH   8  10
HETATM   10  C8  UNL     1       2.252   6.678  38.352  1.00  0.00     0.707 A 
HETATM   11  N2  UNL     1       3.131   7.580  37.848  1.00  0.00    -0.021 N 
HETATM   12  C7  UNL     1       3.726   8.442  38.676  1.00  0.00     0.711 A 
ATOM     13  H2  UNL     1       3.335   7.598  36.849  1.00  0.00     0.203 HD
HETATM   14  N9  UNL     1       3.488   8.454  39.994  1.00  0.00    -0.021 N 
HETATM   15  C15 UNL     1       2.621   7.562  40.483  1.00  0.00     0.707 A 
ATOM     16  H9  UNL     1       3.955   9.123  40.607  1.00  0.00     0.203 HD
HETATM   17  N5  UNL     1       2.004   6.679  39.669  1.00  0.00    -0.022 N 
ATOM     18  H5  UNL     1       1.344   6.006  40.060  1.00  0.00     0.203 HD
BRANCH  12  19
HETATM   19  N1  UNL     1       4.563   9.306  38.217  1.00  0.00    -0.191 N 
ATOM     20  H1  UNL     1       4.202  10.057  37.629  1.00  0.00     0.184 HD
BRANCH  19  21
HETATM   21  C6  UNL     1       5.955   9.278  38.479  1.00  0.00     0.051 A 
HETATM   22  C5  UNL     1       6.616   8.065  38.336  1.00  0.00     0.030 A 
HETATM   23  C4  UNL     1       7.984   7.969  38.579  1.00  0.00     0.005 A 
HETATM   24  C3  UNL     1       8.665   9.102  38.963  1.00  0.00     0.037 A 
HETATM   25  C2  UNL     1       8.041  10.325  39.116  1.00  0.00     0.070 A 
HETATM   26  C28 UNL     1       6.672  10.374  38.862  1.00  0.00     0.066 A 
BRANCH  25  27
HETATM   27  O1  UNL     1       8.772  11.436  39.504  1.00  0.00    -0.356 OA
HETATM   28  C1  UNL     1       8.040  12.593  39.921  1.00  0.00     0.210 C 
ENDBRANCH  25  27
ENDBRANCH  19  21
ENDBRANCH  12  19
BRANCH  15  29
HETATM   29  N6  UNL     1       2.364   7.534  41.733  1.00  0.00    -0.225 N 
ATOM     30  H6  UNL     1       1.933   6.694  42.118  1.00  0.00     0.177 HD
BRANCH  29  31
HETATM   31  C16 UNL     1       2.648   8.626  42.630  1.00  0.00     0.140 C 
BRANCH  31  32
HETATM   32  C17 UNL     1       2.874   8.093  44.037  1.00  0.00     0.050 C 
BRANCH  32  33
HETATM   33  C18 UNL     1       3.733   6.866  43.918  1.00  0.00     0.274 C 
BRANCH  33  34
HETATM   34  N7  UNL     1       5.115   7.210  44.123  1.00  0.00     0.091 N 
HETATM   35  C19 UNL     1       5.234   8.151  45.183  1.00  0.00     0.292 C 
HETATM   36  C20 UNL     1       6.703   8.543  45.410  1.00  0.00     0.158 C 
HETATM   37  N8  UNL     1       7.188   9.056  44.153  1.00  0.00    -0.325 N 
HETATM   38  C21 UNL     1       7.788  10.339  44.131  1.00  0.00     0.363 C 
HETATM   39  C26 UNL     1       7.044   8.247  42.977  1.00  0.00     0.158 C 
HETATM   40  O2  UNL     1       8.211  10.793  43.037  1.00  0.00    -0.238 OA
HETATM   41  C27 UNL     1       5.677   7.629  42.860  1.00  0.00     0.292 C 
BRANCH  38  42
HETATM   42  O3  UNL     1       7.940  11.134  45.238  1.00  0.00    -0.294 OA
BRANCH  42  43
HETATM   43  C22 UNL     1       9.050  11.160  46.079  1.00  0.00     0.061 C 
HETATM   44  C23 UNL     1       9.356  12.603  46.423  1.00  0.00     0.046 C 
HETATM   45  C24 UNL     1       8.887  10.410  47.365  1.00  0.00     0.046 C 
HETATM   46  C25 UNL     1      10.230  10.558  45.346  1.00  0.00     0.046 C 
ENDBRANCH  42  43
ENDBRANCH  38  42
ENDBRANCH  33  34
ENDBRANCH  32  33
ENDBRANCH  31  32
ENDBRANCH  29  31
ENDBRANCH  15  29
ENDBRANCH   8  10
ENDBRANCH   7   8
ENDBRANCH   6   7
ENDBRANCH   5   6
ENDBRANCH   4   5
ENDBRANCH   1   4
TORSDOF 16
ENDMDL
