MODEL 1
REMARK VINA RESULT: -8.229763853      0.000      0.000
REMARK  13 active torsions:
REMARK  status: ('A' for Active; 'I' for Inactive)
REMARK    1  A    between atoms: O1_2  and  C2_3 
REMARK    2  A    between atoms: C4_5  and  N1_6 
REMARK    3  A    between atoms: C8_10  and  O2_11 
REMARK    4  A    between atoms: C12_15  and  O3_16 
REMARK    5  A    between atoms: C15_19  and  N2_20 
REMARK    6  A    between atoms: N2_20  and  C16_21 
REMARK    7  A    between atoms: C20_27  and  N4_28 
REMARK    8  A    between atoms: N4_28  and  C21_30 
REMARK    9  A    between atoms: C21_30  and  C22_31 
REMARK       I    between atoms: C22_31  and  N5_33 
REMARK   10  A    between atoms: N5_33  and  C23_35 
REMARK   11  A    between atoms: C23_35  and  C24_36 
REMARK   12  A    between atoms: C24_36  and  C25_37 
REMARK   13  A    between atoms: C25_37  and  N6_38 
ROOT
HETATM    1  C16 UNL     1       3.106   8.372  41.181  1.00  0.00     0.261 A 
HETATM    2  N3  UNL     1       2.315   7.795  42.151  1.00  0.00    -0.326 N 
ATOM      3  H3  UNL     1       1.389   7.459  41.886  1.00  0.00     0.169 HD
HETATM    4  C17 UNL     1       2.700   7.654  43.414  1.00  0.00     0.102 A 
HETATM    5  C18 UNL     1       3.936   8.093  43.815  1.00  0.00    -0.003 A 
HETATM    6  C19 UNL     1       4.408   7.957  45.207  1.00  0.00     0.054 C 
HETATM    7  C20 UNL     1       4.753   8.682  42.848  1.00  0.00     0.112 A 
HETATM    8  N7  UNL     1       4.334   8.804  41.598  1.00  0.00    -0.302 N 
ATOM      9  H7  UNL     1       4.954   9.239  40.916  1.00  0.00     0.171 HD
ENDROOT
BRANCH   1  10
HETATM   10  N2  UNL     1       2.706   8.469  40.068  1.00  0.00    -0.368 NA
BRANCH  10  11
HETATM   11  C15 UNL     1       2.251   8.565  38.839  1.00  0.00     0.147 A 
HETATM   12  C2  UNL     1       2.970   9.243  37.836  1.00  0.00     0.111 A 
HETATM   13  C3  UNL     1       2.442   9.315  36.582  1.00  0.00     0.072 A 
HETATM   14  C4  UNL     1       1.224   8.747  36.255  1.00  0.00     0.067 A 
HETATM   15  C12 UNL     1       0.495   8.075  37.212  1.00  0.00     0.098 A 
HETATM   16  C14 UNL     1       1.019   8.001  38.463  1.00  0.00     0.086 A 
BRANCH  12  17
HETATM   17  O1  UNL     1       4.207   9.824  38.152  1.00  0.00    -0.352 OA
HETATM   18  C1  UNL     1       5.148   9.981  37.108  1.00  0.00     0.210 C 
ENDBRANCH  12  17
BRANCH  14  19
HETATM   19  N1  UNL     1       0.723   8.859  34.935  1.00  0.00    -0.378 N 
HETATM   20  C5  UNL     1       0.987   7.796  34.022  1.00  0.00     0.123 C 
HETATM   21  C6  UNL     1       1.022   8.240  32.586  1.00  0.00     0.022 C 
HETATM   22  C7  UNL     1      -0.082   9.081  32.115  1.00  0.00     0.033 C 
HETATM   23  C8  UNL     1      -1.385   9.007  32.855  1.00  0.00     0.122 C 
HETATM   24  C10 UNL     1      -1.381   9.646  34.206  1.00  0.00     0.051 C 
HETATM   25  C11 UNL     1      -0.017  10.079  34.685  1.00  0.00     0.125 C 
BRANCH  23  26
HETATM   26  O2  UNL     1      -1.893   7.712  32.870  1.00  0.00    -0.391 OA
HETATM   27  C9  UNL     1      -3.022   7.604  33.638  1.00  0.00     0.202 C 
ENDBRANCH  23  26
ENDBRANCH  14  19
BRANCH  15  28
HETATM   28  O3  UNL     1      -0.745   7.496  36.881  1.00  0.00    -0.354 OA
HETATM   29  C13 UNL     1      -1.892   7.995  37.571  1.00  0.00     0.210 C 
ENDBRANCH  15  28
ENDBRANCH  10  11
ENDBRANCH   1  10
BRANCH   7  30
HETATM   30  N4  UNL     1       5.904   9.084  43.255  1.00  0.00    -0.367 N 
ATOM     31  H4  UNL     1       5.966   9.978  43.744  1.00  0.00     0.161 HD
BRANCH  30  32
HETATM   32  C21 UNL     1       7.095   8.331  43.048  1.00  0.00     0.224 C 
BRANCH  32  33
HETATM   33  C22 UNL     1       8.258   9.217  43.292  1.00  0.00     0.235 C 
HETATM   34  O4  UNL     1       9.366   8.720  43.591  1.00  0.00    -0.272 OA
HETATM   35  N5  UNL     1       8.121  10.611  43.186  1.00  0.00    -0.360 N 
ATOM     36  H5  UNL     1       7.212  11.006  42.943  1.00  0.00     0.162 HD
BRANCH  35  37
HETATM   37  C23 UNL     1       9.236  11.498  43.415  1.00  0.00     0.124 C 
BRANCH  37  38
HETATM   38  C24 UNL     1       9.947  11.830  42.112  1.00  0.00     0.050 C 
BRANCH  38  39
HETATM   39  C25 UNL     1       9.060  12.517  41.130  1.00  0.00     0.274 C 
BRANCH  39  40
HETATM   40  N6  UNL     1       9.009  11.846  39.856  1.00  0.00     0.088 N 
HETATM   41  C26 UNL     1       7.633  11.750  39.407  1.00  0.00     0.272 C 
HETATM   42  C27 UNL     1       7.197  10.379  39.942  1.00  0.00     0.032 C 
HETATM   43  C28 UNL     1       8.426   9.559  39.527  1.00  0.00     0.032 C 
HETATM   44  C29 UNL     1       9.546  10.523  39.857  1.00  0.00     0.272 C 
ENDBRANCH  39  40
ENDBRANCH  38  39
ENDBRANCH  37  38
ENDBRANCH  35  37
ENDBRANCH  32  33
ENDBRANCH  30  32
ENDBRANCH   7  30
TORSDOF 13
ENDMDL
MODEL 2
REMARK VINA RESULT: -8.031549969      3.913     11.125
REMARK  13 active torsions:
REMARK  status: ('A' for Active; 'I' for Inactive)
REMARK    1  A    between atoms: O1_2  and  C2_3 
REMARK    2  A    between atoms: C4_5  and  N1_6 
REMARK    3  A    between atoms: C8_10  and  O2_11 
REMARK    4  A    between atoms: C12_15  and  O3_16 
REMARK    5  A    between atoms: C15_19  and  N2_20 
REMARK    6  A    between atoms: N2_20  and  C16_21 
REMARK    7  A    between atoms: C20_27  and  N4_28 
REMARK    8  A    between atoms: N4_28  and  C21_30 
REMARK    9  A    between atoms: C21_30  and  C22_31 
REMARK       I    between atoms: C22_31  and  N5_33 
REMARK   10  A    between atoms: N5_33  and  C23_35 
REMARK   11  A    between atoms: C23_35  and  C24_36 
REMARK   12  A    between atoms: C24_36  and  C25_37 
REMARK   13  A    between atoms: C25_37  and  N6_38 
ROOT
HETATM    1  C16 UNL     1      -1.464   9.231  32.498  1.00  0.00     0.261 A 
HETATM    2  N3  UNL     1      -1.406   8.419  31.386  1.00  0.00    -0.326 N 
ATOM      3  H3  UNL     1      -0.622   7.771  31.297  1.00  0.00     0.169 HD
HETATM    4  C17 UNL     1      -2.320   8.438  30.424  1.00  0.00     0.102 A 
HETATM    5  C18 UNL     1      -3.389   9.294  30.500  1.00  0.00    -0.003 A 
HETATM    6  C19 UNL     1      -4.431   9.351  29.455  1.00  0.00     0.054 C 
HETATM    7  C20 UNL     1      -3.466  10.126  31.618  1.00  0.00     0.112 A 
HETATM    8  N7  UNL     1      -2.535  10.077  32.558  1.00  0.00    -0.302 N 
ATOM      9  H7  UNL     1      -2.620  10.698  33.362  1.00  0.00     0.171 HD
ENDROOT
BRANCH   1  10
HETATM   10  N2  UNL     1      -0.615   9.166  33.325  1.00  0.00    -0.368 NA
BRANCH  10  11
HETATM   11  C15 UNL     1       0.335   9.091  34.230  1.00  0.00     0.147 A 
HETATM   12  C2  UNL     1       1.408   8.190  34.102  1.00  0.00     0.111 A 
HETATM   13  C3  UNL     1       2.358   8.154  35.080  1.00  0.00     0.072 A 
HETATM   14  C4  UNL     1       2.307   8.971  36.194  1.00  0.00     0.067 A 
HETATM   15  C12 UNL     1       1.271   9.865  36.350  1.00  0.00     0.098 A 
HETATM   16  C14 UNL     1       0.323   9.904  35.379  1.00  0.00     0.086 A 
BRANCH  12  17
HETATM   17  O1  UNL     1       1.473   7.356  32.977  1.00  0.00    -0.352 OA
HETATM   18  C1  UNL     1       2.112   7.858  31.820  1.00  0.00     0.210 C 
ENDBRANCH  12  17
BRANCH  14  19
HETATM   19  N1  UNL     1       3.322   8.885  37.180  1.00  0.00    -0.378 N 
HETATM   20  C5  UNL     1       3.281   7.793  38.095  1.00  0.00     0.123 C 
HETATM   21  C6  UNL     1       3.922   8.102  39.420  1.00  0.00     0.022 C 
HETATM   22  C7  UNL     1       5.247   8.726  39.398  1.00  0.00     0.033 C 
HETATM   23  C8  UNL     1       6.092   8.531  38.173  1.00  0.00     0.122 C 
HETATM   24  C10 UNL     1       5.639   9.286  36.965  1.00  0.00     0.051 C 
HETATM   25  C11 UNL     1       4.296   9.956  37.119  1.00  0.00     0.125 C 
BRANCH  23  26
HETATM   26  O2  UNL     1       6.319   7.183  37.916  1.00  0.00    -0.391 OA
HETATM   27  C9  UNL     1       7.465   6.724  38.510  1.00  0.00     0.202 C 
ENDBRANCH  23  26
ENDBRANCH  14  19
BRANCH  15  28
HETATM   28  O3  UNL     1       1.219  10.697  37.485  1.00  0.00    -0.354 OA
HETATM   29  C13 UNL     1       0.649  10.135  38.668  1.00  0.00     0.210 C 
ENDBRANCH  15  28
ENDBRANCH  10  11
ENDBRANCH   1  10
BRANCH   7  30
HETATM   30  N4  UNL     1      -4.478  10.918  31.661  1.00  0.00    -0.367 N 
ATOM     31  H4  UNL     1      -4.356  11.885  31.360  1.00  0.00     0.161 HD
BRANCH  30  32
HETATM   32  C21 UNL     1      -5.762  10.497  32.111  1.00  0.00     0.224 C 
BRANCH  32  33
HETATM   33  C22 UNL     1      -5.941  10.951  33.510  1.00  0.00     0.235 C 
HETATM   34  O4  UNL     1      -6.483  12.053  33.741  1.00  0.00    -0.272 OA
HETATM   35  N5  UNL     1      -5.506  10.147  34.577  1.00  0.00    -0.360 N 
ATOM     36  H5  UNL     1      -5.064   9.250  34.377  1.00  0.00     0.162 HD
BRANCH  35  37
HETATM   37  C23 UNL     1      -5.670  10.561  35.950  1.00  0.00     0.124 C 
BRANCH  37  38
HETATM   38  C24 UNL     1      -5.045   9.556  36.904  1.00  0.00     0.050 C 
BRANCH  38  39
HETATM   39  C25 UNL     1      -3.813   8.926  36.350  1.00  0.00     0.274 C 
BRANCH  39  40
HETATM   40  N6  UNL     1      -2.674   9.059  37.223  1.00  0.00     0.088 N 
HETATM   41  C26 UNL     1      -1.957   7.799  37.292  1.00  0.00     0.272 C 
HETATM   42  C27 UNL     1      -2.587   7.118  38.514  1.00  0.00     0.032 C 
HETATM   43  C28 UNL     1      -2.577   8.308  39.483  1.00  0.00     0.032 C 
HETATM   44  C29 UNL     1      -2.992   9.437  38.563  1.00  0.00     0.272 C 
ENDBRANCH  39  40
ENDBRANCH  38  39
ENDBRANCH  37  38
ENDBRANCH  35  37
ENDBRANCH  32  33
ENDBRANCH  30  32
ENDBRANCH   7  30
TORSDOF 13
ENDMDL
MODEL 3
REMARK VINA RESULT: -8.021921980      1.249      2.451
REMARK  13 active torsions:
REMARK  status: ('A' for Active; 'I' for Inactive)
REMARK    1  A    between atoms: O1_2  and  C2_3 
REMARK    2  A    between atoms: C4_5  and  N1_6 
REMARK    3  A    between atoms: C8_10  and  O2_11 
REMARK    4  A    between atoms: C12_15  and  O3_16 
REMARK    5  A    between atoms: C15_19  and  N2_20 
REMARK    6  A    between atoms: N2_20  and  C16_21 
REMARK    7  A    between atoms: C20_27  and  N4_28 
REMARK    8  A    between atoms: N4_28  and  C21_30 
REMARK    9  A    between atoms: C21_30  and  C22_31 
REMARK       I    between atoms: C22_31  and  N5_33 
REMARK   10  A    between atoms: N5_33  and  C23_35 
REMARK   11  A    between atoms: C23_35  and  C24_36 
REMARK   12  A    between atoms: C24_36  and  C25_37 
REMARK   13  A    between atoms: C25_37  and  N6_38 
ROOT
HETATM    1  C16 UNL     1       2.938   8.284  41.721  1.00  0.00     0.261 A 
HETATM    2  N3  UNL     1       2.142   7.654  42.654  1.00  0.00    -0.326 N 
ATOM      3  H3  UNL     1       1.246   7.273  42.349  1.00  0.00     0.169 HD
HETATM    4  C17 UNL     1       2.484   7.520  43.929  1.00  0.00     0.102 A 
HETATM    5  C18 UNL     1       3.678   8.019  44.383  1.00  0.00    -0.003 A 
HETATM    6  C19 UNL     1       4.102   7.894  45.792  1.00  0.00     0.054 C 
HETATM    7  C20 UNL     1       4.499   8.662  43.455  1.00  0.00     0.112 A 
HETATM    8  N7  UNL     1       4.124   8.775  42.190  1.00  0.00    -0.302 N 
ATOM      9  H7  UNL     1       4.746   9.250  41.537  1.00  0.00     0.171 HD
ENDROOT
BRANCH   1  10
HETATM   10  N2  UNL     1       2.577   8.371  40.594  1.00  0.00    -0.368 NA
BRANCH  10  11
HETATM   11  C15 UNL     1       2.187   8.480  39.344  1.00  0.00     0.147 A 
HETATM   12  C2  UNL     1       0.842   8.292  38.970  1.00  0.00     0.111 A 
HETATM   13  C3  UNL     1       0.502   8.410  37.655  1.00  0.00     0.072 A 
HETATM   14  C4  UNL     1       1.428   8.708  36.673  1.00  0.00     0.067 A 
HETATM   15  C12 UNL     1       2.752   8.900  37.004  1.00  0.00     0.098 A 
HETATM   16  C14 UNL     1       3.094   8.783  38.313  1.00  0.00     0.086 A 
BRANCH  12  17
HETATM   17  O1  UNL     1      -0.108   7.990  39.956  1.00  0.00    -0.352 OA
HETATM   18  C1  UNL     1      -1.465   8.268  39.671  1.00  0.00     0.210 C 
ENDBRANCH  12  17
BRANCH  14  19
HETATM   19  N1  UNL     1       1.015   8.814  35.321  1.00  0.00    -0.378 N 
HETATM   20  C5  UNL     1       1.248   7.704  34.458  1.00  0.00     0.123 C 
HETATM   21  C6  UNL     1       1.402   8.096  33.014  1.00  0.00     0.022 C 
HETATM   22  C7  UNL     1       0.398   9.003  32.452  1.00  0.00     0.033 C 
HETATM   23  C8  UNL     1      -0.948   9.054  33.113  1.00  0.00     0.122 C 
HETATM   24  C10 UNL     1      -0.974   9.736  34.443  1.00  0.00     0.051 C 
HETATM   25  C11 UNL     1       0.390  10.079  34.992  1.00  0.00     0.125 C 
BRANCH  23  26
HETATM   26  O2  UNL     1      -1.557   7.803  33.134  1.00  0.00    -0.391 OA
HETATM   27  C9  UNL     1      -2.808   7.842  33.691  1.00  0.00     0.202 C 
ENDBRANCH  23  26
ENDBRANCH  14  19
BRANCH  15  28
HETATM   28  O3  UNL     1       3.695   9.204  36.004  1.00  0.00    -0.354 OA
HETATM   29  C13 UNL     1       5.040   9.418  36.434  1.00  0.00     0.210 C 
ENDBRANCH  15  28
ENDBRANCH  10  11
ENDBRANCH   1  10
BRANCH   7  30
HETATM   30  N4  UNL     1       5.610   9.121  43.910  1.00  0.00    -0.367 N 
ATOM     31  H4  UNL     1       5.628  10.062  44.303  1.00  0.00     0.161 HD
BRANCH  30  32
HETATM   32  C21 UNL     1       6.818   8.364  43.888  1.00  0.00     0.224 C 
BRANCH  32  33
HETATM   33  C22 UNL     1       7.888   9.207  43.305  1.00  0.00     0.235 C 
HETATM   34  O4  UNL     1       9.086   8.884  43.458  1.00  0.00    -0.272 OA
HETATM   35  N5  UNL     1       7.562  10.365  42.580  1.00  0.00    -0.360 N 
ATOM     36  H5  UNL     1       6.581  10.620  42.462  1.00  0.00     0.162 HD
BRANCH  35  37
HETATM   37  C23 UNL     1       8.583  11.203  41.997  1.00  0.00     0.124 C 
BRANCH  37  38
HETATM   38  C24 UNL     1       8.473  11.226  40.481  1.00  0.00     0.050 C 
BRANCH  38  39
HETATM   39  C25 UNL     1       8.895   9.942  39.853  1.00  0.00     0.274 C 
BRANCH  39  40
HETATM   40  N6  UNL     1       7.922   9.425  38.925  1.00  0.00     0.088 N 
HETATM   41  C26 UNL     1       6.664   9.192  39.610  1.00  0.00     0.272 C 
HETATM   42  C27 UNL     1       6.777   7.721  40.031  1.00  0.00     0.032 C 
HETATM   43  C28 UNL     1       7.302   7.134  38.714  1.00  0.00     0.032 C 
HETATM   44  C29 UNL     1       8.293   8.198  38.295  1.00  0.00     0.272 C 
ENDBRANCH  39  40
ENDBRANCH  38  39
ENDBRANCH  37  38
ENDBRANCH  35  37
ENDBRANCH  32  33
ENDBRANCH  30  32
ENDBRANCH   7  30
TORSDOF 13
ENDMDL
MODEL 4
REMARK VINA RESULT: -7.993946431      0.812      1.208
REMARK  13 active torsions:
REMARK  status: ('A' for Active; 'I' for Inactive)
REMARK    1  A    between atoms: O1_2  and  C2_3 
REMARK    2  A    between atoms: C4_5  and  N1_6 
REMARK    3  A    between atoms: C8_10  and  O2_11 
REMARK    4  A    between atoms: C12_15  and  O3_16 
REMARK    5  A    between atoms: C15_19  and  N2_20 
REMARK    6  A    between atoms: N2_20  and  C16_21 
REMARK    7  A    between atoms: C20_27  and  N4_28 
REMARK    8  A    between atoms: N4_28  and  C21_30 
REMARK    9  A    between atoms: C21_30  and  C22_31 
REMARK       I    between atoms: C22_31  and  N5_33 
REMARK   10  A    between atoms: N5_33  and  C23_35 
REMARK   11  A    between atoms: C23_35  and  C24_36 
REMARK   12  A    between atoms: C24_36  and  C25_37 
REMARK   13  A    between atoms: C25_37  and  N6_38 
ROOT
HETATM    1  C16 UNL     1       3.106   8.329  41.193  1.00  0.00     0.261 A 
HETATM    2  N3  UNL     1       2.299   7.769  42.161  1.00  0.00    -0.326 N 
ATOM      3  H3  UNL     1       1.370   7.446  41.890  1.00  0.00     0.169 HD
HETATM    4  C17 UNL     1       2.672   7.629  43.426  1.00  0.00     0.102 A 
HETATM    5  C18 UNL     1       3.912   8.051  43.835  1.00  0.00    -0.003 A 
HETATM    6  C19 UNL     1       4.370   7.916  45.232  1.00  0.00     0.054 C 
HETATM    7  C20 UNL     1       4.745   8.623  42.871  1.00  0.00     0.112 A 
HETATM    8  N7  UNL     1       4.337   8.744  41.618  1.00  0.00    -0.302 N 
ATOM      9  H7  UNL     1       4.969   9.166  40.938  1.00  0.00     0.171 HD
ENDROOT
BRANCH   1  10
HETATM   10  N2  UNL     1       2.716   8.426  40.077  1.00  0.00    -0.368 NA
BRANCH  10  11
HETATM   11  C15 UNL     1       2.269   8.537  38.846  1.00  0.00     0.147 A 
HETATM   12  C2  UNL     1       2.976   9.260  37.866  1.00  0.00     0.111 A 
HETATM   13  C3  UNL     1       2.456   9.346  36.609  1.00  0.00     0.072 A 
HETATM   14  C4  UNL     1       1.259   8.749  36.258  1.00  0.00     0.067 A 
HETATM   15  C12 UNL     1       0.543   8.032  37.192  1.00  0.00     0.098 A 
HETATM   16  C14 UNL     1       1.058   7.945  38.445  1.00  0.00     0.086 A 
BRANCH  12  17
HETATM   17  O1  UNL     1       4.191   9.871  38.207  1.00  0.00    -0.352 OA
HETATM   18  C1  UNL     1       5.198   9.934  37.217  1.00  0.00     0.210 C 
ENDBRANCH  12  17
BRANCH  14  19
HETATM   19  N1  UNL     1       0.766   8.877  34.936  1.00  0.00    -0.378 N 
HETATM   20  C5  UNL     1       1.031   7.822  34.014  1.00  0.00     0.123 C 
HETATM   21  C6  UNL     1       1.076   8.280  32.582  1.00  0.00     0.022 C 
HETATM   22  C7  UNL     1      -0.021   9.131  32.113  1.00  0.00     0.033 C 
HETATM   23  C8  UNL     1      -1.328   9.056  32.845  1.00  0.00     0.122 C 
HETATM   24  C10 UNL     1      -1.330   9.681  34.203  1.00  0.00     0.051 C 
HETATM   25  C11 UNL     1       0.033  10.103  34.694  1.00  0.00     0.125 C 
BRANCH  23  26
HETATM   26  O2  UNL     1      -1.843   7.763  32.844  1.00  0.00    -0.391 OA
HETATM   27  C9  UNL     1      -2.951   7.643  33.642  1.00  0.00     0.202 C 
ENDBRANCH  23  26
ENDBRANCH  14  19
BRANCH  15  28
HETATM   28  O3  UNL     1      -0.675   7.424  36.835  1.00  0.00    -0.354 OA
HETATM   29  C13 UNL     1      -1.725   7.473  37.803  1.00  0.00     0.210 C 
ENDBRANCH  15  28
ENDBRANCH  10  11
ENDBRANCH   1  10
BRANCH   7  30
HETATM   30  N4  UNL     1       5.898   9.010  43.285  1.00  0.00    -0.367 N 
ATOM     31  H4  UNL     1       5.949   9.800  43.928  1.00  0.00     0.161 HD
BRANCH  30  32
HETATM   32  C21 UNL     1       7.109   8.378  42.879  1.00  0.00     0.224 C 
BRANCH  32  33
HETATM   33  C22 UNL     1       8.249   9.180  43.381  1.00  0.00     0.235 C 
HETATM   34  O4  UNL     1       9.350   8.630  43.595  1.00  0.00    -0.272 OA
HETATM   35  N5  UNL     1       8.096  10.557  43.616  1.00  0.00    -0.360 N 
ATOM     36  H5  UNL     1       7.193  10.996  43.439  1.00  0.00     0.162 HD
BRANCH  35  37
HETATM   37  C23 UNL     1       9.189  11.365  44.102  1.00  0.00     0.124 C 
BRANCH  37  38
HETATM   38  C24 UNL     1       9.650  12.356  43.044  1.00  0.00     0.050 C 
BRANCH  38  39
HETATM   39  C25 UNL     1      10.522  11.730  42.010  1.00  0.00     0.274 C 
BRANCH  39  40
HETATM   40  N6  UNL     1       9.876  11.617  40.727  1.00  0.00     0.088 N 
HETATM   41  C26 UNL     1      10.793  12.023  39.678  1.00  0.00     0.272 C 
HETATM   42  C27 UNL     1      10.470  13.514  39.506  1.00  0.00     0.032 C 
HETATM   43  C28 UNL     1       8.938  13.427  39.493  1.00  0.00     0.032 C 
HETATM   44  C29 UNL     1       8.694  12.404  40.582  1.00  0.00     0.272 C 
ENDBRANCH  39  40
ENDBRANCH  38  39
ENDBRANCH  37  38
ENDBRANCH  35  37
ENDBRANCH  32  33
ENDBRANCH  30  32
ENDBRANCH   7  30
TORSDOF 13
ENDMDL
MODEL 5
REMARK VINA RESULT: -7.980223770      0.876      1.289
REMARK  13 active torsions:
REMARK  status: ('A' for Active; 'I' for Inactive)
REMARK    1  A    between atoms: O1_2  and  C2_3 
REMARK    2  A    between atoms: C4_5  and  N1_6 
REMARK    3  A    between atoms: C8_10  and  O2_11 
REMARK    4  A    between atoms: C12_15  and  O3_16 
REMARK    5  A    between atoms: C15_19  and  N2_20 
REMARK    6  A    between atoms: N2_20  and  C16_21 
REMARK    7  A    between atoms: C20_27  and  N4_28 
REMARK    8  A    between atoms: N4_28  and  C21_30 
REMARK    9  A    between atoms: C21_30  and  C22_31 
REMARK       I    between atoms: C22_31  and  N5_33 
REMARK   10  A    between atoms: N5_33  and  C23_35 
REMARK   11  A    between atoms: C23_35  and  C24_36 
REMARK   12  A    between atoms: C24_36  and  C25_37 
REMARK   13  A    between atoms: C25_37  and  N6_38 
ROOT
HETATM    1  C16 UNL     1       3.065   8.318  41.239  1.00  0.00     0.261 A 
HETATM    2  N3  UNL     1       2.250   7.792  42.219  1.00  0.00    -0.326 N 
ATOM      3  H3  UNL     1       1.312   7.488  41.958  1.00  0.00     0.169 HD
HETATM    4  C17 UNL     1       2.626   7.662  43.485  1.00  0.00     0.102 A 
HETATM    5  C18 UNL     1       3.878   8.059  43.881  1.00  0.00    -0.003 A 
HETATM    6  C19 UNL     1       4.341   7.934  45.277  1.00  0.00     0.054 C 
HETATM    7  C20 UNL     1       4.720   8.596  42.905  1.00  0.00     0.112 A 
HETATM    8  N7  UNL     1       4.308   8.708  41.651  1.00  0.00    -0.302 N 
ATOM      9  H7  UNL     1       4.947   9.104  40.962  1.00  0.00     0.171 HD
ENDROOT
BRANCH   1  10
HETATM   10  N2  UNL     1       2.671   8.407  40.124  1.00  0.00    -0.368 NA
BRANCH  10  11
HETATM   11  C15 UNL     1       2.246   8.517  38.885  1.00  0.00     0.147 A 
HETATM   12  C2  UNL     1       3.012   9.160  37.895  1.00  0.00     0.111 A 
HETATM   13  C3  UNL     1       2.512   9.249  36.630  1.00  0.00     0.072 A 
HETATM   14  C4  UNL     1       1.278   8.731  36.281  1.00  0.00     0.067 A 
HETATM   15  C12 UNL     1       0.503   8.094  37.226  1.00  0.00     0.098 A 
HETATM   16  C14 UNL     1       0.998   8.004  38.487  1.00  0.00     0.086 A 
BRANCH  12  17
HETATM   17  O1  UNL     1       4.265   9.690  38.233  1.00  0.00    -0.352 OA
HETATM   18  C1  UNL     1       5.204   9.880  37.193  1.00  0.00     0.210 C 
ENDBRANCH  12  17
BRANCH  14  19
HETATM   19  N1  UNL     1       0.808   8.858  34.951  1.00  0.00    -0.378 N 
HETATM   20  C5  UNL     1       1.065   7.791  34.041  1.00  0.00     0.123 C 
HETATM   21  C6  UNL     1       1.141   8.237  32.607  1.00  0.00     0.022 C 
HETATM   22  C7  UNL     1       0.070   9.106  32.115  1.00  0.00     0.033 C 
HETATM   23  C8  UNL     1      -1.250   9.064  32.827  1.00  0.00     0.122 C 
HETATM   24  C10 UNL     1      -1.259   9.700  34.179  1.00  0.00     0.051 C 
HETATM   25  C11 UNL     1       0.104  10.098  34.688  1.00  0.00     0.125 C 
BRANCH  23  26
HETATM   26  O2  UNL     1      -1.791   7.782  32.828  1.00  0.00    -0.391 OA
HETATM   27  C9  UNL     1      -2.833   7.657  33.709  1.00  0.00     0.202 C 
ENDBRANCH  23  26
ENDBRANCH  14  19
BRANCH  15  28
HETATM   28  O3  UNL     1      -0.753   7.567  36.872  1.00  0.00    -0.354 OA
HETATM   29  C13 UNL     1      -1.872   7.994  37.651  1.00  0.00     0.210 C 
ENDBRANCH  15  28
ENDBRANCH  10  11
ENDBRANCH   1  10
BRANCH   7  30
HETATM   30  N4  UNL     1       5.885   8.960  43.306  1.00  0.00    -0.367 N 
ATOM     31  H4  UNL     1       5.958   9.753  43.944  1.00  0.00     0.161 HD
BRANCH  30  32
HETATM   32  C21 UNL     1       7.078   8.299  42.895  1.00  0.00     0.224 C 
BRANCH  32  33
HETATM   33  C22 UNL     1       8.194   9.274  42.939  1.00  0.00     0.235 C 
HETATM   34  O4  UNL     1       9.330   8.902  43.304  1.00  0.00    -0.272 OA
HETATM   35  N5  UNL     1       7.979  10.613  42.571  1.00  0.00    -0.360 N 
ATOM     36  H5  UNL     1       7.047  10.906  42.276  1.00  0.00     0.162 HD
BRANCH  35  37
HETATM   37  C23 UNL     1       9.046  11.583  42.600  1.00  0.00     0.124 C 
BRANCH  37  38
HETATM   38  C24 UNL     1       9.396  12.055  41.198  1.00  0.00     0.050 C 
BRANCH  38  39
HETATM   39  C25 UNL     1      10.702  11.518  40.719  1.00  0.00     0.274 C 
BRANCH  39  40
HETATM   40  N6  UNL     1      10.630  10.132  40.332  1.00  0.00     0.088 N 
HETATM   41  C26 UNL     1      11.924   9.690  39.846  1.00  0.00     0.272 C 
HETATM   42  C27 UNL     1      11.817   9.930  38.334  1.00  0.00     0.032 C 
HETATM   43  C28 UNL     1      10.422   9.336  38.095  1.00  0.00     0.032 C 
HETATM   44  C29 UNL     1       9.676   9.848  39.308  1.00  0.00     0.272 C 
ENDBRANCH  39  40
ENDBRANCH  38  39
ENDBRANCH  37  38
ENDBRANCH  35  37
ENDBRANCH  32  33
ENDBRANCH  30  32
ENDBRANCH   7  30
TORSDOF 13
ENDMDL
