MODEL 1
REMARK VINA RESULT: -8.090563187      0.000      0.000
REMARK  12 active torsions:
REMARK  status: ('A' for Active; 'I' for Inactive)
REMARK    1  A    between atoms: C2_2  and  C3_3 
REMARK    2  A    between atoms: C3_3  and  C4_4 
REMARK    3  A    between atoms: C4_4  and  C5_5 
REMARK    4  A    between atoms: C5_5  and  S1_6 
REMARK    5  A    between atoms: S1_6  and  C6_7 
REMARK    6  A    between atoms: C8_12  and  C9_13 
REMARK    7  A    between atoms: C9_13  and  C10_14 
REMARK    8  A    between atoms: C10_14  and  C11_15 
REMARK    9  A    between atoms: C11_15  and  N2_16 
REMARK   10  A    between atoms: C13_18  and  O2_19 
REMARK   11  A    between atoms: C16_26  and  N4_27 
REMARK   12  A    between atoms: C19_30  and  N5_31 
ROOT
HETATM    1  C6  UNL     1       1.505   7.820  34.636  1.00  0.00     0.148 A 
HETATM    2  N1  UNL     1       0.612   7.107  35.345  1.00  0.00    -0.303 N 
ATOM      3  H1  UNL     1      -0.306   6.927  34.939  1.00  0.00     0.171 HD
HETATM    4  C7  UNL     1       0.885   6.625  36.562  1.00  0.00     0.257 A 
HETATM    5  O1  UNL     1       0.041   5.958  37.215  1.00  0.00    -0.267 OA
HETATM    6  C8  UNL     1       2.160   6.894  37.083  1.00  0.00     0.054 A 
HETATM    7  C16 UNL     1       3.085   7.613  36.385  1.00  0.00     0.123 A 
HETATM    8  N6  UNL     1       2.742   8.071  35.162  1.00  0.00    -0.322 N 
ATOM      9  H6  UNL     1       3.417   8.613  34.621  1.00  0.00     0.169 HD
ENDROOT
BRANCH   7  10
HETATM   10  N4  UNL     1       4.397   7.892  36.817  1.00  0.00    -0.301 N 
HETATM   11  C17 UNL     1       5.437   6.884  37.005  1.00  0.00     0.136 C 
HETATM   12  C18 UNL     1       6.164   7.438  38.191  1.00  0.00     0.066 C 
HETATM   13  C19 UNL     1       6.111   8.932  37.975  1.00  0.00     0.316 C 
HETATM   14  C27 UNL     1       4.938   9.163  37.165  1.00  0.00     0.259 C 
HETATM   15  O4  UNL     1       4.434  10.237  36.801  1.00  0.00    -0.271 OA
BRANCH  13  16
HETATM   16  N5  UNL     1       6.087   9.508  39.291  1.00  0.00     0.102 N 
HETATM   17  C20 UNL     1       6.502   8.483  40.223  1.00  0.00     0.273 C 
HETATM   18  C21 UNL     1       6.574   8.897  41.639  1.00  0.00     0.030 C 
HETATM   19  C22 UNL     1       7.842   9.431  42.151  1.00  0.00     0.002 C 
HETATM   20  C23 UNL     1       8.959   9.646  41.205  1.00  0.00     0.000 C 
HETATM   21  C24 UNL     1       8.875  11.007  40.527  1.00  0.00     0.002 C 
HETATM   22  C25 UNL     1       8.112  10.929  39.224  1.00  0.00     0.030 C 
HETATM   23  C26 UNL     1       6.644  10.784  39.464  1.00  0.00     0.273 C 
ENDBRANCH  13  16
ENDBRANCH   7  10
BRANCH   6  24
HETATM   24  C9  UNL     1       2.444   6.340  38.406  1.00  0.00     0.050 C 
BRANCH  24  25
HETATM   25  C10 UNL     1       2.463   7.299  39.538  1.00  0.00     0.025 C 
BRANCH  25  26
HETATM   26  C11 UNL     1       1.167   7.646  40.162  1.00  0.00     0.128 C 
BRANCH  26  27
HETATM   27  N2  UNL     1       0.493   8.744  39.532  1.00  0.00    -0.332 N 
HETATM   28  C12 UNL     1       1.170   9.932  39.092  1.00  0.00     0.161 C 
HETATM   29  C13 UNL     1       0.711  10.465  37.776  1.00  0.00     0.154 C 
HETATM   30  C14 UNL     1      -0.438   9.709  37.157  1.00  0.00     0.157 C 
HETATM   31  N3  UNL     1      -1.411   9.437  38.191  1.00  0.00    -0.340 N 
HETATM   32  C15 UNL     1      -0.920   8.683  39.316  1.00  0.00     0.318 C 
ATOM     33  H3  UNL     1      -2.378   9.756  38.129  1.00  0.00     0.164 HD
HETATM   34  O3  UNL     1      -1.676   8.013  40.062  1.00  0.00    -0.247 OA
BRANCH  29  35
HETATM   35  O2  UNL     1       1.746  10.458  36.836  1.00  0.00    -0.392 OA
ATOM     36  H2  UNL     1       1.710  11.226  36.278  1.00  0.00     0.210 HD
ENDBRANCH  29  35
ENDBRANCH  26  27
ENDBRANCH  25  26
ENDBRANCH  24  25
ENDBRANCH   6  24
BRANCH   1  37
HETATM   37  S1  UNL     1       1.055   8.425  33.019  1.00  0.00    -0.094 SA
BRANCH  37  38
HETATM   38  C5  UNL     1      -0.103   9.798  33.141  1.00  0.00     0.082 C 
BRANCH  38  39
HETATM   39  C4  UNL     1      -1.045   9.704  31.956  1.00  0.00     0.010 C 
BRANCH  39  40
HETATM   40  C3  UNL     1      -0.786   8.451  31.147  1.00  0.00     0.000 C 
BRANCH  40  41
HETATM   41  C2  UNL     1      -1.255   8.713  29.734  1.00  0.00    -0.005 C 
HETATM   42  C1  UNL     1      -2.767   8.643  29.735  1.00  0.00     0.005 C 
ENDBRANCH  40  41
ENDBRANCH  39  40
ENDBRANCH  38  39
ENDBRANCH  37  38
ENDBRANCH   1  37
TORSDOF 12
ENDMDL
MODEL 2
REMARK VINA RESULT: -7.892721436      3.440      9.446
REMARK  12 active torsions:
REMARK  status: ('A' for Active; 'I' for Inactive)
REMARK    1  A    between atoms: C2_2  and  C3_3 
REMARK    2  A    between atoms: C3_3  and  C4_4 
REMARK    3  A    between atoms: C4_4  and  C5_5 
REMARK    4  A    between atoms: C5_5  and  S1_6 
REMARK    5  A    between atoms: S1_6  and  C6_7 
REMARK    6  A    between atoms: C8_12  and  C9_13 
REMARK    7  A    between atoms: C9_13  and  C10_14 
REMARK    8  A    between atoms: C10_14  and  C11_15 
REMARK    9  A    between atoms: C11_15  and  N2_16 
REMARK   10  A    between atoms: C13_18  and  O2_19 
REMARK   11  A    between atoms: C16_26  and  N4_27 
REMARK   12  A    between atoms: C19_30  and  N5_31 
ROOT
HETATM    1  C6  UNL     1       3.876   7.866  41.527  1.00  0.00     0.148 A 
HETATM    2  N1  UNL     1       5.130   7.496  41.841  1.00  0.00    -0.303 N 
ATOM      3  H1  UNL     1       5.338   7.234  42.805  1.00  0.00     0.171 HD
HETATM    4  C7  UNL     1       6.113   7.458  40.936  1.00  0.00     0.257 A 
HETATM    5  O1  UNL     1       7.283   7.110  41.242  1.00  0.00    -0.267 OA
HETATM    6  C8  UNL     1       5.784   7.825  39.622  1.00  0.00     0.054 A 
HETATM    7  C16 UNL     1       4.520   8.203  39.276  1.00  0.00     0.123 A 
HETATM    8  N6  UNL     1       3.576   8.220  40.241  1.00  0.00    -0.322 N 
ATOM      9  H6  UNL     1       2.623   8.500  40.006  1.00  0.00     0.169 HD
ENDROOT
BRANCH   7  10
HETATM   10  N4  UNL     1       4.098   8.545  37.976  1.00  0.00    -0.301 N 
HETATM   11  C17 UNL     1       3.969   9.913  37.481  1.00  0.00     0.136 C 
HETATM   12  C18 UNL     1       2.773   9.787  36.589  1.00  0.00     0.066 C 
HETATM   13  C19 UNL     1       2.924   8.411  35.985  1.00  0.00     0.316 C 
HETATM   14  C27 UNL     1       3.704   7.655  36.935  1.00  0.00     0.259 C 
HETATM   15  O4  UNL     1       4.014   6.452  36.918  1.00  0.00    -0.271 OA
BRANCH  13  16
HETATM   16  N5  UNL     1       1.584   7.942  35.760  1.00  0.00     0.102 N 
HETATM   17  C20 UNL     1       0.681   8.996  36.166  1.00  0.00     0.273 C 
HETATM   18  C21 UNL     1      -0.757   8.714  35.978  1.00  0.00     0.030 C 
HETATM   19  C22 UNL     1      -1.387   9.096  34.708  1.00  0.00     0.002 C 
HETATM   20  C23 UNL     1      -0.538   9.636  33.625  1.00  0.00     0.000 C 
HETATM   21  C24 UNL     1       0.071   8.529  32.774  1.00  0.00     0.002 C 
HETATM   22  C25 UNL     1       1.428   8.114  33.296  1.00  0.00     0.030 C 
HETATM   23  C26 UNL     1       1.304   7.301  34.544  1.00  0.00     0.273 C 
ENDBRANCH  13  16
ENDBRANCH   7  10
BRANCH   6  24
HETATM   24  C9  UNL     1       6.869   7.757  38.644  1.00  0.00     0.050 C 
BRANCH  24  25
HETATM   25  C10 UNL     1       7.565   9.031  38.334  1.00  0.00     0.025 C 
BRANCH  25  26
HETATM   26  C11 UNL     1       8.975   9.163  38.762  1.00  0.00     0.128 C 
BRANCH  26  27
HETATM   27  N2  UNL     1       9.152   9.957  39.943  1.00  0.00    -0.332 N 
HETATM   28  C12 UNL     1       8.078  10.663  40.583  1.00  0.00     0.161 C 
HETATM   29  C13 UNL     1       8.094  10.613  42.074  1.00  0.00     0.154 C 
HETATM   30  C14 UNL     1       9.277   9.889  42.667  1.00  0.00     0.157 C 
HETATM   31  N3  UNL     1      10.466  10.307  41.957  1.00  0.00    -0.340 N 
HETATM   32  C15 UNL     1      10.450  10.071  40.536  1.00  0.00     0.318 C 
ATOM     33  H3  UNL     1      11.261  10.738  42.430  1.00  0.00     0.164 HD
HETATM   34  O3  UNL     1      11.500   9.971  39.856  1.00  0.00    -0.247 OA
BRANCH  29  35
HETATM   35  O2  UNL     1       6.950   9.984  42.574  1.00  0.00    -0.392 OA
ATOM     36  H2  UNL     1       6.921  10.023  43.523  1.00  0.00     0.210 HD
ENDBRANCH  29  35
ENDBRANCH  26  27
ENDBRANCH  25  26
ENDBRANCH  24  25
ENDBRANCH   6  24
BRANCH   1  37
HETATM   37  S1  UNL     1       2.626   7.886  42.800  1.00  0.00    -0.094 SA
BRANCH  37  38
HETATM   38  C5  UNL     1       3.133   6.903  44.220  1.00  0.00     0.082 C 
BRANCH  38  39
HETATM   39  C4  UNL     1       3.486   7.866  45.337  1.00  0.00     0.010 C 
BRANCH  39  40
HETATM   40  C3  UNL     1       4.807   8.555  45.070  1.00  0.00     0.000 C 
BRANCH  40  41
HETATM   41  C2  UNL     1       5.897   7.512  45.174  1.00  0.00    -0.005 C 
HETATM   42  C1  UNL     1       7.172   8.222  45.575  1.00  0.00     0.005 C 
ENDBRANCH  40  41
ENDBRANCH  39  40
ENDBRANCH  38  39
ENDBRANCH  37  38
ENDBRANCH   1  37
TORSDOF 12
ENDMDL
MODEL 3
REMARK VINA RESULT: -7.884643439      2.896      9.184
REMARK  12 active torsions:
REMARK  status: ('A' for Active; 'I' for Inactive)
REMARK    1  A    between atoms: C2_2  and  C3_3 
REMARK    2  A    between atoms: C3_3  and  C4_4 
REMARK    3  A    between atoms: C4_4  and  C5_5 
REMARK    4  A    between atoms: C5_5  and  S1_6 
REMARK    5  A    between atoms: S1_6  and  C6_7 
REMARK    6  A    between atoms: C8_12  and  C9_13 
REMARK    7  A    between atoms: C9_13  and  C10_14 
REMARK    8  A    between atoms: C10_14  and  C11_15 
REMARK    9  A    between atoms: C11_15  and  N2_16 
REMARK   10  A    between atoms: C13_18  and  O2_19 
REMARK   11  A    between atoms: C16_26  and  N4_27 
REMARK   12  A    between atoms: C19_30  and  N5_31 
ROOT
HETATM    1  C6  UNL     1       2.455   8.090  41.497  1.00  0.00     0.148 A 
HETATM    2  N1  UNL     1       3.486   8.908  41.218  1.00  0.00    -0.303 N 
ATOM      3  H1  UNL     1       4.137   9.152  41.964  1.00  0.00     0.171 HD
HETATM    4  C7  UNL     1       3.689   9.411  39.995  1.00  0.00     0.257 A 
HETATM    5  O1  UNL     1       4.658  10.175  39.746  1.00  0.00    -0.267 OA
HETATM    6  C8  UNL     1       2.772   9.049  38.997  1.00  0.00     0.054 A 
HETATM    7  C16 UNL     1       1.719   8.221  39.253  1.00  0.00     0.123 A 
HETATM    8  N6  UNL     1       1.573   7.750  40.510  1.00  0.00    -0.322 N 
ATOM      9  H6  UNL     1       0.792   7.129  40.726  1.00  0.00     0.169 HD
ENDROOT
BRANCH   7  10
HETATM   10  N4  UNL     1       0.780   7.777  38.301  1.00  0.00    -0.301 N 
HETATM   11  C17 UNL     1       1.001   6.669  37.376  1.00  0.00     0.136 C 
HETATM   12  C18 UNL     1       0.275   7.158  36.161  1.00  0.00     0.066 C 
HETATM   13  C19 UNL     1      -0.917   7.892  36.729  1.00  0.00     0.316 C 
HETATM   14  C27 UNL     1      -0.513   8.319  38.048  1.00  0.00     0.259 C 
HETATM   15  O4  UNL     1      -1.123   9.028  38.866  1.00  0.00    -0.271 OA
BRANCH  13  16
HETATM   16  N5  UNL     1      -1.204   8.941  35.791  1.00  0.00     0.102 N 
HETATM   17  C20 UNL     1      -0.021   9.137  34.982  1.00  0.00     0.273 C 
HETATM   18  C21 UNL     1      -0.132  10.165  33.926  1.00  0.00     0.030 C 
HETATM   19  C22 UNL     1      -0.590   9.753  32.593  1.00  0.00     0.002 C 
HETATM   20  C23 UNL     1      -1.035   8.357  32.391  1.00  0.00     0.000 C 
HETATM   21  C24 UNL     1      -2.504   8.172  32.746  1.00  0.00     0.002 C 
HETATM   22  C25 UNL     1      -2.675   7.758  34.191  1.00  0.00     0.030 C 
HETATM   23  C26 UNL     1      -2.434   8.906  35.116  1.00  0.00     0.273 C 
ENDBRANCH  13  16
ENDBRANCH   7  10
BRANCH   6  24
HETATM   24  C9  UNL     1       3.024   9.594  37.664  1.00  0.00     0.050 C 
BRANCH  24  25
HETATM   25  C10 UNL     1       3.941   8.819  36.791  1.00  0.00     0.025 C 
BRANCH  25  26
HETATM   26  C11 UNL     1       5.327   9.317  36.641  1.00  0.00     0.128 C 
BRANCH  26  27
HETATM   27  N2  UNL     1       6.294   8.586  37.406  1.00  0.00    -0.332 N 
HETATM   28  C12 UNL     1       7.405   9.210  38.070  1.00  0.00     0.161 C 
HETATM   29  C13 UNL     1       7.706   8.672  39.428  1.00  0.00     0.154 C 
HETATM   30  C14 UNL     1       6.840   7.513  39.853  1.00  0.00     0.157 C 
HETATM   31  N3  UNL     1       6.726   6.600  38.737  1.00  0.00    -0.340 N 
HETATM   32  C15 UNL     1       6.176   7.165  37.532  1.00  0.00     0.318 C 
ATOM     33  H3  UNL     1       7.016   5.623  38.799  1.00  0.00     0.164 HD
HETATM   34  O3  UNL     1       5.626   6.465  36.648  1.00  0.00    -0.247 OA
BRANCH  29  35
HETATM   35  O2  UNL     1       7.561   9.659  40.409  1.00  0.00    -0.392 OA
ATOM     36  H2  UNL     1       8.290   9.650  41.018  1.00  0.00     0.210 HD
ENDBRANCH  29  35
ENDBRANCH  26  27
ENDBRANCH  25  26
ENDBRANCH  24  25
ENDBRANCH   6  24
BRANCH   1  37
HETATM   37  S1  UNL     1       2.262   7.465  43.157  1.00  0.00    -0.094 SA
BRANCH  37  38
HETATM   38  C5  UNL     1       3.854   7.022  43.871  1.00  0.00     0.082 C 
BRANCH  38  39
HETATM   39  C4  UNL     1       4.050   7.873  45.111  1.00  0.00     0.010 C 
BRANCH  39  40
HETATM   40  C3  UNL     1       5.501   8.266  45.283  1.00  0.00     0.000 C 
BRANCH  40  41
HETATM   41  C2  UNL     1       5.918   9.028  44.045  1.00  0.00    -0.005 C 
HETATM   42  C1  UNL     1       7.182   9.790  44.382  1.00  0.00     0.005 C 
ENDBRANCH  40  41
ENDBRANCH  39  40
ENDBRANCH  38  39
ENDBRANCH  37  38
ENDBRANCH   1  37
TORSDOF 12
ENDMDL
MODEL 4
REMARK VINA RESULT: -7.798064701      2.860      8.432
REMARK  12 active torsions:
REMARK  status: ('A' for Active; 'I' for Inactive)
REMARK    1  A    between atoms: C2_2  and  C3_3 
REMARK    2  A    between atoms: C3_3  and  C4_4 
REMARK    3  A    between atoms: C4_4  and  C5_5 
REMARK    4  A    between atoms: C5_5  and  S1_6 
REMARK    5  A    between atoms: S1_6  and  C6_7 
REMARK    6  A    between atoms: C8_12  and  C9_13 
REMARK    7  A    between atoms: C9_13  and  C10_14 
REMARK    8  A    between atoms: C10_14  and  C11_15 
REMARK    9  A    between atoms: C11_15  and  N2_16 
REMARK   10  A    between atoms: C13_18  and  O2_19 
REMARK   11  A    between atoms: C16_26  and  N4_27 
REMARK   12  A    between atoms: C19_30  and  N5_31 
ROOT
HETATM    1  C6  UNL     1       5.875   8.051  38.884  1.00  0.00     0.148 A 
HETATM    2  N1  UNL     1       6.246   8.678  37.754  1.00  0.00    -0.303 N 
ATOM      3  H1  UNL     1       7.237   8.857  37.594  1.00  0.00     0.171 HD
HETATM    4  C7  UNL     1       5.362   9.073  36.831  1.00  0.00     0.257 A 
HETATM    5  O1  UNL     1       5.723   9.658  35.776  1.00  0.00    -0.267 OA
HETATM    6  C8  UNL     1       4.009   8.806  37.088  1.00  0.00     0.054 A 
HETATM    7  C16 UNL     1       3.606   8.171  38.226  1.00  0.00     0.123 A 
HETATM    8  N6  UNL     1       4.551   7.800  39.116  1.00  0.00    -0.322 N 
ATOM      9  H6  UNL     1       4.273   7.325  39.975  1.00  0.00     0.169 HD
ENDROOT
BRANCH   7  10
HETATM   10  N4  UNL     1       2.275   7.828  38.541  1.00  0.00    -0.301 N 
HETATM   11  C17 UNL     1       1.667   6.531  38.261  1.00  0.00     0.136 C 
HETATM   12  C18 UNL     1       0.265   6.936  37.925  1.00  0.00     0.066 C 
HETATM   13  C19 UNL     1      -0.003   8.095  38.855  1.00  0.00     0.316 C 
HETATM   14  C27 UNL     1       1.292   8.661  39.149  1.00  0.00     0.259 C 
HETATM   15  O4  UNL     1       1.575   9.679  39.802  1.00  0.00    -0.271 OA
BRANCH  13  16
HETATM   16  N5  UNL     1      -0.915   8.951  38.148  1.00  0.00     0.102 N 
HETATM   17  C20 UNL     1      -1.403   8.215  37.003  1.00  0.00     0.273 C 
HETATM   18  C21 UNL     1      -2.388   8.923  36.159  1.00  0.00     0.030 C 
HETATM   19  C22 UNL     1      -3.815   8.769  36.469  1.00  0.00     0.002 C 
HETATM   20  C23 UNL     1      -4.205   8.012  37.677  1.00  0.00     0.000 C 
HETATM   21  C24 UNL     1      -4.225   8.894  38.919  1.00  0.00     0.002 C 
HETATM   22  C25 UNL     1      -2.892   8.870  39.634  1.00  0.00     0.030 C 
HETATM   23  C26 UNL     1      -1.865   9.664  38.894  1.00  0.00     0.273 C 
ENDBRANCH  13  16
ENDBRANCH   7  10
BRANCH   6  24
HETATM   24  C9  UNL     1       3.063   9.228  36.057  1.00  0.00     0.050 C 
BRANCH  24  25
HETATM   25  C10 UNL     1       2.624   8.189  35.093  1.00  0.00     0.025 C 
BRANCH  25  26
HETATM   26  C11 UNL     1       1.169   8.038  34.864  1.00  0.00     0.128 C 
BRANCH  26  27
HETATM   27  N2  UNL     1       0.673   8.797  33.754  1.00  0.00    -0.332 N 
HETATM   28  C12 UNL     1       0.821   8.379  32.388  1.00  0.00     0.161 C 
HETATM   29  C13 UNL     1      -0.376   8.609  31.528  1.00  0.00     0.154 C 
HETATM   30  C14 UNL     1      -1.521   9.309  32.217  1.00  0.00     0.157 C 
HETATM   31  N3  UNL     1      -0.982  10.405  32.991  1.00  0.00    -0.340 N 
HETATM   32  C15 UNL     1      -0.007  10.035  33.985  1.00  0.00     0.318 C 
ATOM     33  H3  UNL     1      -1.273  11.371  32.844  1.00  0.00     0.164 HD
HETATM   34  O3  UNL     1       0.236  10.748  34.990  1.00  0.00    -0.247 OA
BRANCH  29  35
HETATM   35  O2  UNL     1      -0.885   7.404  31.033  1.00  0.00    -0.392 OA
ATOM     36  H2  UNL     1      -0.887   6.729  31.700  1.00  0.00     0.210 HD
ENDBRANCH  29  35
ENDBRANCH  26  27
ENDBRANCH  25  26
ENDBRANCH  24  25
ENDBRANCH   6  24
BRANCH   1  37
HETATM   37  S1  UNL     1       7.123   7.559  40.061  1.00  0.00    -0.094 SA
BRANCH  37  38
HETATM   38  C5  UNL     1       6.385   6.724  41.474  1.00  0.00     0.082 C 
BRANCH  38  39
HETATM   39  C4  UNL     1       6.027   7.787  42.495  1.00  0.00     0.010 C 
BRANCH  39  40
HETATM   40  C3  UNL     1       4.587   7.657  42.941  1.00  0.00     0.000 C 
BRANCH  40  41
HETATM   41  C2  UNL     1       4.584   7.521  44.447  1.00  0.00    -0.005 C 
HETATM   42  C1  UNL     1       3.144   7.569  44.908  1.00  0.00     0.005 C 
ENDBRANCH  40  41
ENDBRANCH  39  40
ENDBRANCH  38  39
ENDBRANCH  37  38
ENDBRANCH   1  37
TORSDOF 12
ENDMDL
MODEL 5
REMARK VINA RESULT: -7.783576712      3.533      9.921
REMARK  12 active torsions:
REMARK  status: ('A' for Active; 'I' for Inactive)
REMARK    1  A    between atoms: C2_2  and  C3_3 
REMARK    2  A    between atoms: C3_3  and  C4_4 
REMARK    3  A    between atoms: C4_4  and  C5_5 
REMARK    4  A    between atoms: C5_5  and  S1_6 
REMARK    5  A    between atoms: S1_6  and  C6_7 
REMARK    6  A    between atoms: C8_12  and  C9_13 
REMARK    7  A    between atoms: C9_13  and  C10_14 
REMARK    8  A    between atoms: C10_14  and  C11_15 
REMARK    9  A    between atoms: C11_15  and  N2_16 
REMARK   10  A    between atoms: C13_18  and  O2_19 
REMARK   11  A    between atoms: C16_26  and  N4_27 
REMARK   12  A    between atoms: C19_30  and  N5_31 
ROOT
HETATM    1  C6  UNL     1       4.307   7.405  42.440  1.00  0.00     0.148 A 
HETATM    2  N1  UNL     1       5.603   7.194  42.151  1.00  0.00    -0.303 N 
ATOM      3  H1  UNL     1       6.235   6.917  42.902  1.00  0.00     0.171 HD
HETATM    4  C7  UNL     1       6.093   7.333  40.914  1.00  0.00     0.257 A 
HETATM    5  O1  UNL     1       7.308   7.132  40.657  1.00  0.00    -0.267 OA
HETATM    6  C8  UNL     1       5.190   7.713  39.910  1.00  0.00     0.054 A 
HETATM    7  C16 UNL     1       3.869   7.932  40.176  1.00  0.00     0.123 A 
HETATM    8  N6  UNL     1       3.442   7.774  41.446  1.00  0.00    -0.322 N 
ATOM      9  H6  UNL     1       2.459   7.934  41.670  1.00  0.00     0.169 HD
ENDROOT
BRANCH   7  10
HETATM   10  N4  UNL     1       2.891   8.274  39.220  1.00  0.00    -0.301 N 
HETATM   11  C17 UNL     1       2.569   9.641  38.821  1.00  0.00     0.136 C 
HETATM   12  C18 UNL     1       1.092   9.536  38.598  1.00  0.00     0.066 C 
HETATM   13  C19 UNL     1       0.916   8.153  38.018  1.00  0.00     0.316 C 
HETATM   14  C27 UNL     1       2.039   7.386  38.503  1.00  0.00     0.259 C 
HETATM   15  O4  UNL     1       2.284   6.176  38.363  1.00  0.00    -0.271 OA
BRANCH  13  16
HETATM   16  N5  UNL     1      -0.379   7.714  38.457  1.00  0.00     0.102 N 
HETATM   17  C20 UNL     1      -0.886   8.707  39.378  1.00  0.00     0.273 C 
HETATM   18  C21 UNL     1      -2.236   8.448  39.920  1.00  0.00     0.030 C 
HETATM   19  C22 UNL     1      -3.396   8.985  39.197  1.00  0.00     0.002 C 
HETATM   20  C23 UNL     1      -3.179   9.658  37.899  1.00  0.00     0.000 C 
HETATM   21  C24 UNL     1      -3.154   8.667  36.742  1.00  0.00     0.002 C 
HETATM   22  C25 UNL     1      -1.748   8.192  36.452  1.00  0.00     0.030 C 
HETATM   23  C26 UNL     1      -1.275   7.230  37.492  1.00  0.00     0.273 C 
ENDBRANCH  13  16
ENDBRANCH   7  10
BRANCH   6  24
HETATM   24  C9  UNL     1       5.742   7.840  38.562  1.00  0.00     0.050 C 
BRANCH  24  25
HETATM   25  C10 UNL     1       6.293   9.167  38.191  1.00  0.00     0.025 C 
BRANCH  25  26
HETATM   26  C11 UNL     1       7.765   9.303  38.129  1.00  0.00     0.128 C 
BRANCH  26  27
HETATM   27  N2  UNL     1       8.329  10.038  39.223  1.00  0.00    -0.332 N 
HETATM   28  C12 UNL     1       7.535  10.785  40.159  1.00  0.00     0.161 C 
HETATM   29  C13 UNL     1       7.973  10.677  41.581  1.00  0.00     0.154 C 
HETATM   30  C14 UNL     1       9.222   9.858  41.794  1.00  0.00     0.157 C 
HETATM   31  N3  UNL     1      10.185  10.228  40.780  1.00  0.00    -0.340 N 
HETATM   32  C15 UNL     1       9.746  10.048  39.420  1.00  0.00     0.318 C 
ATOM     33  H3  UNL     1      11.110  10.590  41.012  1.00  0.00     0.164 HD
HETATM   34  O3  UNL     1      10.549   9.909  38.465  1.00  0.00    -0.247 OA
BRANCH  29  35
HETATM   35  O2  UNL     1       6.978  10.102  42.377  1.00  0.00    -0.392 OA
ATOM     36  H2  UNL     1       6.954   9.158  42.272  1.00  0.00     0.210 HD
ENDBRANCH  29  35
ENDBRANCH  26  27
ENDBRANCH  25  26
ENDBRANCH  24  25
ENDBRANCH   6  24
BRANCH   1  37
HETATM   37  S1  UNL     1       3.740   7.195  44.119  1.00  0.00    -0.094 SA
BRANCH  37  38
HETATM   38  C5  UNL     1       4.637   8.277  45.244  1.00  0.00     0.082 C 
BRANCH  38  39
HETATM   39  C4  UNL     1       6.072   7.788  45.298  1.00  0.00     0.010 C 
BRANCH  39  40
HETATM   40  C3  UNL     1       7.026   8.923  45.604  1.00  0.00     0.000 C 
BRANCH  40  41
HETATM   41  C2  UNL     1       8.111   8.378  46.504  1.00  0.00    -0.005 C 
HETATM   42  C1  UNL     1       8.178   9.265  47.729  1.00  0.00     0.005 C 
ENDBRANCH  40  41
ENDBRANCH  39  40
ENDBRANCH  38  39
ENDBRANCH  37  38
ENDBRANCH   1  37
TORSDOF 12
ENDMDL
