MODEL 1
REMARK VINA RESULT: -8.195414567      0.000      0.000
REMARK  6 active torsions:
REMARK  status: ('A' for Active; 'I' for Inactive)
REMARK    1  A    between atoms: C2_2  and  S1_3 
REMARK    2  A    between atoms: S1_3  and  C3_4 
REMARK    3  A    between atoms: C3_4  and  C4_5 
REMARK       I    between atoms: C4_5  and  N1_7 
REMARK    4  A    between atoms: N1_7  and  C5_9 
REMARK    5  A    between atoms: N4_15  and  C7_17 
REMARK    6  A    between atoms: C15_25  and  O2_26 
ROOT
HETATM    1  C5  UNL     1       4.994  -6.850   8.594  1.00  0.00     0.169 A 
HETATM    2  N2  UNL     1       5.399  -6.350   7.429  1.00  0.00    -0.277 N 
ATOM      3  H2  UNL     1       6.390  -6.332   7.188  1.00  0.00     0.189 HD
HETATM    4  N3  UNL     1       4.515  -5.888   6.612  1.00  0.00    -0.278 N 
ATOM      5  H3  UNL     1       4.802  -5.499   5.714  1.00  0.00     0.189 HD
HETATM    6  C6  UNL     1       3.236  -5.921   6.943  1.00  0.00     0.163 A 
HETATM    7  N4  UNL     1       2.147  -5.555   6.374  1.00  0.00    -0.360 N 
ATOM      8  H4  UNL     1       1.314  -5.737   6.933  1.00  0.00     0.162 HD
HETATM    9  S2  UNL     1       3.305  -6.651   8.505  1.00  0.00    -0.015 SA
ENDROOT
BRANCH   7  10
HETATM   10  C7  UNL     1       1.873  -4.959   5.143  1.00  0.00     0.039 C 
HETATM   11  C8  UNL     1       0.425  -5.201   4.736  1.00  0.00     0.036 C 
HETATM   12  C9  UNL     1      -0.004  -4.449   3.536  1.00  0.00    -0.009 C 
HETATM   13  C10 UNL     1      -0.036  -5.442   2.364  1.00  0.00     0.005 C 
HETATM   14  C16 UNL     1       0.771  -3.264   3.145  1.00  0.00     0.042 C 
HETATM   15  C11 UNL     1       1.368  -5.784   1.940  1.00  0.00     0.001 C 
HETATM   16  C12 UNL     1       2.213  -6.318   3.037  1.00  0.00     0.007 C 
HETATM   17  C13 UNL     1       2.773  -5.309   3.991  1.00  0.00     0.016 C 
HETATM   18  C14 UNL     1       3.165  -4.013   3.376  1.00  0.00     0.045 C 
HETATM   19  C15 UNL     1       2.092  -3.076   3.802  1.00  0.00     0.061 C 
HETATM   20  C17 UNL     1       1.948  -3.445   5.287  1.00  0.00     0.069 C 
BRANCH  19  21
HETATM   21  O2  UNL     1       2.439  -1.740   3.737  1.00  0.00    -0.390 OA
ATOM     22  H2  UNL     1       2.571  -1.410   2.855  1.00  0.00     0.210 HD
ENDBRANCH  19  21
ENDBRANCH   7  10
BRANCH   1  23
HETATM   23  N1  UNL     1       5.732  -7.365   9.553  1.00  0.00    -0.305 N 
HETATM   24  C4  UNL     1       7.130  -7.409   9.406  1.00  0.00     0.232 C 
HETATM   25  O1  UNL     1       7.838  -6.373   9.250  1.00  0.00    -0.272 OA
ATOM     26  H1  UNL     1       5.293  -7.730  10.399  1.00  0.00     0.171 HD
BRANCH  24  27
HETATM   27  C3  UNL     1       7.786  -8.742   9.437  1.00  0.00     0.177 C 
BRANCH  27  28
HETATM   28  S1  UNL     1       9.452  -8.625   8.743  1.00  0.00    -0.160 SA
BRANCH  28  29
HETATM   29  C2  UNL     1      10.689  -8.338  10.008  1.00  0.00     0.070 C 
HETATM   30  C1  UNL     1      10.196  -8.613  11.405  1.00  0.00     0.016 C 
ENDBRANCH  28  29
ENDBRANCH  27  28
ENDBRANCH  24  27
ENDBRANCH   1  23
TORSDOF 6
ENDMDL
MODEL 2
REMARK VINA RESULT: -8.176716087      1.079      1.184
REMARK  6 active torsions:
REMARK  status: ('A' for Active; 'I' for Inactive)
REMARK    1  A    between atoms: C2_2  and  S1_3 
REMARK    2  A    between atoms: S1_3  and  C3_4 
REMARK    3  A    between atoms: C3_4  and  C4_5 
REMARK       I    between atoms: C4_5  and  N1_7 
REMARK    4  A    between atoms: N1_7  and  C5_9 
REMARK    5  A    between atoms: N4_15  and  C7_17 
REMARK    6  A    between atoms: C15_25  and  O2_26 
ROOT
HETATM    1  C5  UNL     1       4.875  -6.627   8.828  1.00  0.00     0.169 A 
HETATM    2  N2  UNL     1       3.614  -6.204   8.770  1.00  0.00    -0.277 N 
ATOM      3  H2  UNL     1       3.020  -6.226   9.599  1.00  0.00     0.189 HD
HETATM    4  N3  UNL     1       3.158  -5.766   7.646  1.00  0.00    -0.278 N 
ATOM      5  H3  UNL     1       2.195  -5.438   7.578  1.00  0.00     0.189 HD
HETATM    6  C6  UNL     1       3.945  -5.745   6.584  1.00  0.00     0.163 A 
HETATM    7  N4  UNL     1       3.802  -5.382   5.363  1.00  0.00    -0.360 N 
ATOM      8  H4  UNL     1       4.642  -5.506   4.800  1.00  0.00     0.162 HD
HETATM    9  S2  UNL     1       5.411  -6.385   7.231  1.00  0.00    -0.015 SA
ENDROOT
BRANCH   7  10
HETATM   10  C7  UNL     1       2.727  -4.851   4.650  1.00  0.00     0.039 C 
HETATM   11  C8  UNL     1       1.565  -5.836   4.611  1.00  0.00     0.036 C 
HETATM   12  C9  UNL     1       0.317  -5.285   4.037  1.00  0.00    -0.009 C 
HETATM   13  C10 UNL     1       0.186  -5.847   2.613  1.00  0.00     0.005 C 
HETATM   14  C16 UNL     1       0.157  -3.825   3.996  1.00  0.00     0.042 C 
HETATM   15  C11 UNL     1       1.182  -5.181   1.700  1.00  0.00     0.001 C 
HETATM   16  C12 UNL     1       2.587  -5.293   2.164  1.00  0.00     0.007 C 
HETATM   17  C13 UNL     1       3.000  -4.357   3.257  1.00  0.00     0.016 C 
HETATM   18  C14 UNL     1       2.395  -3.001   3.184  1.00  0.00     0.045 C 
HETATM   19  C15 UNL     1       1.371  -3.006   4.262  1.00  0.00     0.061 C 
HETATM   20  C17 UNL     1       2.153  -3.663   5.410  1.00  0.00     0.069 C 
BRANCH  19  21
HETATM   21  O2  UNL     1       0.980  -1.752   4.688  1.00  0.00    -0.390 OA
ATOM     22  H2  UNL     1       1.567  -1.348   5.317  1.00  0.00     0.210 HD
ENDBRANCH  19  21
ENDBRANCH   7  10
BRANCH   1  23
HETATM   23  N1  UNL     1       5.520  -7.104   9.870  1.00  0.00    -0.305 N 
HETATM   24  C4  UNL     1       6.917  -7.252   9.815  1.00  0.00     0.232 C 
HETATM   25  O1  UNL     1       7.705  -6.282   9.619  1.00  0.00    -0.272 OA
ATOM     26  H1  UNL     1       5.009  -7.365  10.714  1.00  0.00     0.171 HD
BRANCH  24  27
HETATM   27  C3  UNL     1       7.474  -8.618   9.996  1.00  0.00     0.177 C 
BRANCH  27  28
HETATM   28  S1  UNL     1       8.948  -8.823   8.969  1.00  0.00    -0.160 SA
BRANCH  28  29
HETATM   29  C2  UNL     1      10.457  -8.549   9.894  1.00  0.00     0.070 C 
HETATM   30  C1  UNL     1      10.244  -8.471  11.384  1.00  0.00     0.016 C 
ENDBRANCH  28  29
ENDBRANCH  27  28
ENDBRANCH  24  27
ENDBRANCH   1  23
TORSDOF 6
ENDMDL
MODEL 3
REMARK VINA RESULT: -7.925139145      0.958      1.487
REMARK  6 active torsions:
REMARK  status: ('A' for Active; 'I' for Inactive)
REMARK    1  A    between atoms: C2_2  and  S1_3 
REMARK    2  A    between atoms: S1_3  and  C3_4 
REMARK    3  A    between atoms: C3_4  and  C4_5 
REMARK       I    between atoms: C4_5  and  N1_7 
REMARK    4  A    between atoms: N1_7  and  C5_9 
REMARK    5  A    between atoms: N4_15  and  C7_17 
REMARK    6  A    between atoms: C15_25  and  O2_26 
ROOT
HETATM    1  C5  UNL     1       4.926  -6.619   8.302  1.00  0.00     0.169 A 
HETATM    2  N2  UNL     1       5.267  -6.358   7.042  1.00  0.00    -0.277 N 
ATOM      3  H2  UNL     1       6.229  -6.479   6.727  1.00  0.00     0.189 HD
HETATM    4  N3  UNL     1       4.356  -5.948   6.226  1.00  0.00    -0.278 N 
ATOM      5  H3  UNL     1       4.593  -5.741   5.256  1.00  0.00     0.189 HD
HETATM    6  C6  UNL     1       3.113  -5.798   6.653  1.00  0.00     0.163 A 
HETATM    7  N4  UNL     1       2.014  -5.423   6.112  1.00  0.00    -0.360 N 
ATOM      8  H4  UNL     1       1.222  -5.426   6.755  1.00  0.00     0.162 HD
HETATM    9  S2  UNL     1       3.261  -6.267   8.307  1.00  0.00    -0.015 SA
ENDROOT
BRANCH   7  10
HETATM   10  C7  UNL     1       1.682  -5.010   4.822  1.00  0.00     0.039 C 
HETATM   11  C8  UNL     1       1.646  -6.197   3.867  1.00  0.00     0.036 C 
HETATM   12  C9  UNL     1       1.122  -5.880   2.520  1.00  0.00    -0.009 C 
HETATM   13  C10 UNL     1       2.328  -5.796   1.572  1.00  0.00     0.005 C 
HETATM   14  C16 UNL     1       0.298  -4.675   2.362  1.00  0.00     0.042 C 
HETATM   15  C11 UNL     1       3.101  -4.529   1.830  1.00  0.00     0.001 C 
HETATM   16  C12 UNL     1       3.547  -4.376   3.236  1.00  0.00     0.007 C 
HETATM   17  C13 UNL     1       2.512  -3.914   4.213  1.00  0.00     0.016 C 
HETATM   18  C14 UNL     1       1.541  -2.923   3.678  1.00  0.00     0.045 C 
HETATM   19  C15 UNL     1       0.292  -3.708   3.493  1.00  0.00     0.061 C 
HETATM   20  C17 UNL     1       0.246  -4.505   4.806  1.00  0.00     0.069 C 
BRANCH  19  21
HETATM   21  O2  UNL     1      -0.859  -2.947   3.426  1.00  0.00    -0.390 OA
ATOM     22  H2  UNL     1      -1.566  -3.252   3.984  1.00  0.00     0.210 HD
ENDBRANCH  19  21
ENDBRANCH   7  10
BRANCH   1  23
HETATM   23  N1  UNL     1       5.701  -7.042   9.276  1.00  0.00    -0.305 N 
HETATM   24  C4  UNL     1       7.079  -7.207   9.047  1.00  0.00     0.232 C 
HETATM   25  O1  UNL     1       7.836  -6.258   8.693  1.00  0.00    -0.272 OA
ATOM     26  H1  UNL     1       5.305  -7.249  10.194  1.00  0.00     0.171 HD
BRANCH  24  27
HETATM   27  C3  UNL     1       7.651  -8.566   9.233  1.00  0.00     0.177 C 
BRANCH  27  28
HETATM   28  S1  UNL     1       9.358  -8.601   8.635  1.00  0.00    -0.160 SA
BRANCH  28  29
HETATM   29  C2  UNL     1      10.535  -8.252   9.940  1.00  0.00     0.070 C 
HETATM   30  C1  UNL     1      10.012  -8.556  11.320  1.00  0.00     0.016 C 
ENDBRANCH  28  29
ENDBRANCH  27  28
ENDBRANCH  24  27
ENDBRANCH   1  23
TORSDOF 6
ENDMDL
MODEL 4
REMARK VINA RESULT: -7.910205154      1.557      2.436
REMARK  6 active torsions:
REMARK  status: ('A' for Active; 'I' for Inactive)
REMARK    1  A    between atoms: C2_2  and  S1_3 
REMARK    2  A    between atoms: S1_3  and  C3_4 
REMARK    3  A    between atoms: C3_4  and  C4_5 
REMARK       I    between atoms: C4_5  and  N1_7 
REMARK    4  A    between atoms: N1_7  and  C5_9 
REMARK    5  A    between atoms: N4_15  and  C7_17 
REMARK    6  A    between atoms: C15_25  and  O2_26 
ROOT
HETATM    1  C5  UNL     1       4.838  -6.443   8.459  1.00  0.00     0.169 A 
HETATM    2  N2  UNL     1       5.127  -6.744   7.195  1.00  0.00    -0.277 N 
ATOM      3  H2  UNL     1       6.001  -7.212   6.958  1.00  0.00     0.189 HD
HETATM    4  N3  UNL     1       4.279  -6.431   6.275  1.00  0.00    -0.278 N 
ATOM      5  H3  UNL     1       4.479  -6.651   5.299  1.00  0.00     0.189 HD
HETATM    6  C6  UNL     1       3.150  -5.825   6.602  1.00  0.00     0.163 A 
HETATM    7  N4  UNL     1       2.135  -5.397   5.948  1.00  0.00    -0.360 N 
ATOM      8  H4  UNL     1       1.422  -4.969   6.538  1.00  0.00     0.162 HD
HETATM    9  S2  UNL     1       3.315  -5.698   8.315  1.00  0.00    -0.015 SA
ENDROOT
BRANCH   7  10
HETATM   10  C7  UNL     1       1.809  -5.399   4.592  1.00  0.00     0.039 C 
HETATM   11  C8  UNL     1       2.859  -4.647   3.782  1.00  0.00     0.036 C 
HETATM   12  C9  UNL     1       2.691  -4.759   2.316  1.00  0.00    -0.009 C 
HETATM   13  C10 UNL     1       2.091  -3.432   1.826  1.00  0.00     0.005 C 
HETATM   14  C16 UNL     1       1.894  -5.875   1.790  1.00  0.00     0.042 C 
HETATM   15  C11 UNL     1       0.640  -3.344   2.223  1.00  0.00     0.001 C 
HETATM   16  C12 UNL     1       0.408  -3.501   3.681  1.00  0.00     0.007 C 
HETATM   17  C13 UNL     1       0.443  -4.900   4.210  1.00  0.00     0.016 C 
HETATM   18  C14 UNL     1      -0.122  -5.930   3.299  1.00  0.00     0.045 C 
HETATM   19  C15 UNL     1       1.073  -6.637   2.770  1.00  0.00     0.061 C 
HETATM   20  C17 UNL     1       1.901  -6.820   4.052  1.00  0.00     0.069 C 
BRANCH  19  21
HETATM   21  O2  UNL     1       0.817  -7.894   2.257  1.00  0.00    -0.390 OA
ATOM     22  H2  UNL     1       0.845  -8.595   2.898  1.00  0.00     0.210 HD
ENDBRANCH  19  21
ENDBRANCH   7  10
BRANCH   1  23
HETATM   23  N1  UNL     1       5.564  -6.677   9.531  1.00  0.00    -0.305 N 
HETATM   24  C4  UNL     1       6.921  -7.020   9.390  1.00  0.00     0.232 C 
HETATM   25  O1  UNL     1       7.767  -6.263   8.832  1.00  0.00    -0.272 OA
ATOM     26  H1  UNL     1       5.146  -6.609  10.459  1.00  0.00     0.171 HD
BRANCH  24  27
HETATM   27  C3  UNL     1       7.360  -8.334   9.926  1.00  0.00     0.177 C 
BRANCH  27  28
HETATM   28  S1  UNL     1       8.848  -8.886   9.059  1.00  0.00    -0.160 SA
BRANCH  28  29
HETATM   29  C2  UNL     1      10.344  -8.436   9.936  1.00  0.00     0.070 C 
HETATM   30  C1  UNL     1      10.201  -8.487  11.435  1.00  0.00     0.016 C 
ENDBRANCH  28  29
ENDBRANCH  27  28
ENDBRANCH  24  27
ENDBRANCH   1  23
TORSDOF 6
ENDMDL
MODEL 5
REMARK VINA RESULT: -7.885456298      1.954      2.830
REMARK  6 active torsions:
REMARK  status: ('A' for Active; 'I' for Inactive)
REMARK    1  A    between atoms: C2_2  and  S1_3 
REMARK    2  A    between atoms: S1_3  and  C3_4 
REMARK    3  A    between atoms: C3_4  and  C4_5 
REMARK       I    between atoms: C4_5  and  N1_7 
REMARK    4  A    between atoms: N1_7  and  C5_9 
REMARK    5  A    between atoms: N4_15  and  C7_17 
REMARK    6  A    between atoms: C15_25  and  O2_26 
ROOT
HETATM    1  C5  UNL     1       6.926  -6.788   8.289  1.00  0.00     0.169 A 
HETATM    2  N2  UNL     1       6.863  -6.691   6.963  1.00  0.00    -0.277 N 
ATOM      3  H2  UNL     1       7.691  -6.855   6.390  1.00  0.00     0.189 HD
HETATM    4  N3  UNL     1       5.736  -6.386   6.416  1.00  0.00    -0.278 N 
ATOM      5  H3  UNL     1       5.664  -6.306   5.402  1.00  0.00     0.189 HD
HETATM    6  C6  UNL     1       4.674  -6.179   7.176  1.00  0.00     0.163 A 
HETATM    7  N4  UNL     1       3.450  -5.872   6.951  1.00  0.00    -0.360 N 
ATOM      8  H4  UNL     1       2.888  -5.790   7.798  1.00  0.00     0.162 HD
HETATM    9  S2  UNL     1       5.327  -6.433   8.753  1.00  0.00    -0.015 SA
ENDROOT
BRANCH   7  10
HETATM   10  C7  UNL     1       2.733  -5.627   5.781  1.00  0.00     0.039 C 
HETATM   11  C8  UNL     1       3.595  -4.890   4.762  1.00  0.00     0.036 C 
HETATM   12  C9  UNL     1       2.975  -4.754   3.425  1.00  0.00    -0.009 C 
HETATM   13  C10 UNL     1       2.477  -3.306   3.301  1.00  0.00     0.005 C 
HETATM   14  C16 UNL     1       1.886  -5.673   3.067  1.00  0.00     0.042 C 
HETATM   15  C11 UNL     1       1.249  -3.107   4.152  1.00  0.00     0.001 C 
HETATM   16  C12 UNL     1       1.448  -3.457   5.580  1.00  0.00     0.007 C 
HETATM   17  C13 UNL     1       1.415  -4.915   5.916  1.00  0.00     0.016 C 
HETATM   18  C14 UNL     1       0.441  -5.718   5.130  1.00  0.00     0.045 C 
HETATM   19  C15 UNL     1       1.289  -6.473   4.171  1.00  0.00     0.061 C 
HETATM   20  C17 UNL     1       2.426  -6.948   5.090  1.00  0.00     0.069 C 
BRANCH  19  21
HETATM   21  O2  UNL     1       0.689  -7.596   3.635  1.00  0.00    -0.390 OA
ATOM     22  H2  UNL     1       1.021  -7.852   2.782  1.00  0.00     0.210 HD
ENDBRANCH  19  21
ENDBRANCH   7  10
BRANCH   1  23
HETATM   23  N1  UNL     1       7.972  -7.085   9.028  1.00  0.00    -0.305 N 
HETATM   24  C4  UNL     1       9.019  -7.845   8.477  1.00  0.00     0.232 C 
HETATM   25  O1  UNL     1       9.686  -7.470   7.470  1.00  0.00    -0.272 OA
ATOM     26  H1  UNL     1       8.024  -6.766   9.996  1.00  0.00     0.171 HD
BRANCH  24  27
HETATM   27  C3  UNL     1       9.342  -9.145   9.121  1.00  0.00     0.177 C 
BRANCH  27  28
HETATM   28  S1  UNL     1      10.364  -8.868  10.587  1.00  0.00    -0.160 SA
BRANCH  28  29
HETATM   29  C2  UNL     1      11.973  -8.200  10.169  1.00  0.00     0.070 C 
HETATM   30  C1  UNL     1      13.120  -8.966  10.779  1.00  0.00     0.016 C 
ENDBRANCH  28  29
ENDBRANCH  27  28
ENDBRANCH  24  27
ENDBRANCH   1  23
TORSDOF 6
ENDMDL
