MODEL 1
REMARK VINA RESULT: -7.407246888      0.000      0.000
REMARK  7 active torsions:
REMARK  status: ('A' for Active; 'I' for Inactive)
REMARK    1  A    between atoms: C4_4  and  N1_5 
REMARK    2  A    between atoms: N1_5  and  C5_7 
REMARK    3  A    between atoms: N3_16  and  O1_17 
REMARK    4  A    between atoms: C12_20  and  N4_21 
REMARK    5  A    between atoms: N4_21  and  C14_23 
REMARK    6  A    between atoms: C14_23  and  C15_24 
REMARK    7  A    between atoms: C15_24  and  O2_25 
ROOT
HETATM    1  C5  UNL     1       1.427  -3.039   4.550  1.00  0.00     0.144 A 
HETATM    2  C6  UNL     1       0.834  -3.564   3.353  1.00  0.00     0.051 A 
HETATM    3  C7  UNL     1       0.568  -4.867   3.048  1.00  0.00    -0.028 A 
HETATM    4  C8  UNL     1      -0.017  -5.100   1.817  1.00  0.00    -0.006 A 
HETATM    5  S1  UNL     1      -0.172  -3.557   1.146  1.00  0.00    -0.075 SA
HETATM    6  C9  UNL     1       0.498  -2.633   2.418  1.00  0.00     0.090 A 
HETATM    7  N2  UNL     1       0.712  -1.296   2.607  1.00  0.00    -0.344 N 
ATOM      8  H2  UNL     1       0.443  -0.637   1.876  1.00  0.00     0.167 HD
HETATM    9  C10 UNL     1       1.266  -0.837   3.730  1.00  0.00     0.216 A 
HETATM   10  N3  UNL     1       1.612  -1.716   4.679  1.00  0.00    -0.203 N 
HETATM   11  C11 UNL     1      -0.347  -6.519   1.414  1.00  0.00     0.082 C 
HETATM   12  C12 UNL     1       0.878  -7.406   1.594  1.00  0.00     0.227 C 
HETATM   13  C16 UNL     1       1.673  -6.988   2.801  1.00  0.00     0.041 C 
HETATM   14  C17 UNL     1       0.775  -6.198   3.765  1.00  0.00     0.043 C 
ENDROOT
BRANCH   1  15
HETATM   15  N1  UNL     1       1.756  -3.793   5.444  1.00  0.00    -0.367 N 
ATOM     16  H1  UNL     1       0.875  -3.911   5.946  1.00  0.00     0.161 HD
BRANCH  15  17
HETATM   17  C4  UNL     1       2.592  -4.572   6.175  1.00  0.00     0.111 C 
HETATM   18  C3  UNL     1       2.065  -5.671   7.046  1.00  0.00     0.059 C 
HETATM   19  C2  UNL     1       3.288  -6.550   7.252  1.00  0.00     0.184 C 
HETATM   20  C1  UNL     1       3.593  -6.794   8.711  1.00  0.00     0.040 C 
HETATM   21  N5  UNL     1       4.422  -5.816   6.683  1.00  0.00    -0.069 N 
HETATM   22  C18 UNL     1       3.761  -5.261   5.470  1.00  0.00     0.257 C 
ATOM     23  H52 UNL     1       4.875  -5.139   7.298  1.00  0.00     0.277 HD
ATOM     24  H51 UNL     1       5.274  -6.354   6.525  1.00  0.00     0.277 HD
ENDBRANCH  15  17
ENDBRANCH   1  15
BRANCH  10  25
HETATM   25  O1  UNL     1       2.186  -1.170   5.833  1.00  0.00    -0.280 OA
ATOM     26  H1  UNL     1       2.445  -0.257   5.872  1.00  0.00     0.245 HD
ENDBRANCH  10  25
BRANCH  12  27
HETATM   27  N4  UNL     1       1.597  -7.383   0.358  1.00  0.00     0.091 N 
HETATM   28  C13 UNL     1       1.400  -8.657  -0.286  1.00  0.00     0.310 C 
BRANCH  27  29
HETATM   29  C14 UNL     1       2.975  -7.008   0.489  1.00  0.00     0.298 C 
BRANCH  29  30
HETATM   30  C15 UNL     1       3.935  -8.003  -0.061  1.00  0.00     0.194 C 
BRANCH  30  31
HETATM   31  O2  UNL     1       4.690  -8.534   0.992  1.00  0.00    -0.399 OA
ATOM     32  H2  UNL     1       5.610  -8.507   0.755  1.00  0.00     0.209 HD
ENDBRANCH  30  31
ENDBRANCH  29  30
ENDBRANCH  27  29
ENDBRANCH  12  27
TORSDOF 7
ENDMDL
MODEL 2
REMARK VINA RESULT: -7.264031465      0.913      1.000
REMARK  7 active torsions:
REMARK  status: ('A' for Active; 'I' for Inactive)
REMARK    1  A    between atoms: C4_4  and  N1_5 
REMARK    2  A    between atoms: N1_5  and  C5_7 
REMARK    3  A    between atoms: N3_16  and  O1_17 
REMARK    4  A    between atoms: C12_20  and  N4_21 
REMARK    5  A    between atoms: N4_21  and  C14_23 
REMARK    6  A    between atoms: C14_23  and  C15_24 
REMARK    7  A    between atoms: C15_24  and  O2_25 
ROOT
HETATM    1  C5  UNL     1       1.415  -3.032   4.549  1.00  0.00     0.144 A 
HETATM    2  C6  UNL     1       0.818  -3.556   3.353  1.00  0.00     0.051 A 
HETATM    3  C7  UNL     1       0.555  -4.859   3.046  1.00  0.00    -0.028 A 
HETATM    4  C8  UNL     1      -0.035  -5.091   1.818  1.00  0.00    -0.006 A 
HETATM    5  S1  UNL     1      -0.198  -3.547   1.151  1.00  0.00    -0.075 SA
HETATM    6  C9  UNL     1       0.475  -2.624   2.422  1.00  0.00     0.090 A 
HETATM    7  N2  UNL     1       0.686  -1.287   2.614  1.00  0.00    -0.344 N 
ATOM      8  H2  UNL     1       0.411  -0.627   1.886  1.00  0.00     0.167 HD
HETATM    9  C10 UNL     1       1.243  -0.829   3.736  1.00  0.00     0.216 A 
HETATM   10  N3  UNL     1       1.596  -1.708   4.681  1.00  0.00    -0.203 N 
HETATM   11  C11 UNL     1      -0.362  -6.510   1.412  1.00  0.00     0.082 C 
HETATM   12  C12 UNL     1       0.867  -7.394   1.584  1.00  0.00     0.227 C 
HETATM   13  C16 UNL     1       1.666  -6.976   2.789  1.00  0.00     0.041 C 
HETATM   14  C17 UNL     1       0.769  -6.191   3.759  1.00  0.00     0.043 C 
ENDROOT
BRANCH   1  15
HETATM   15  N1  UNL     1       1.749  -3.787   5.440  1.00  0.00    -0.367 N 
ATOM     16  H1  UNL     1       0.869  -3.916   5.940  1.00  0.00     0.161 HD
BRANCH  15  17
HETATM   17  C4  UNL     1       2.592  -4.562   6.168  1.00  0.00     0.111 C 
HETATM   18  C3  UNL     1       2.073  -5.646   7.062  1.00  0.00     0.059 C 
HETATM   19  C2  UNL     1       3.293  -6.530   7.260  1.00  0.00     0.184 C 
HETATM   20  C1  UNL     1       3.620  -6.756   8.717  1.00  0.00     0.040 C 
HETATM   21  N5  UNL     1       4.423  -5.810   6.664  1.00  0.00    -0.069 N 
HETATM   22  C18 UNL     1       3.746  -5.268   5.454  1.00  0.00     0.257 C 
ATOM     23  H52 UNL     1       4.889  -5.128   7.263  1.00  0.00     0.277 HD
ATOM     24  H51 UNL     1       5.268  -6.356   6.500  1.00  0.00     0.277 HD
ENDBRANCH  15  17
ENDBRANCH   1  15
BRANCH  10  25
HETATM   25  O1  UNL     1       2.173  -1.164   5.833  1.00  0.00    -0.280 OA
ATOM     26  H1  UNL     1       2.013  -0.263   6.088  1.00  0.00     0.245 HD
ENDBRANCH  10  25
BRANCH  12  27
HETATM   27  N4  UNL     1       1.580  -7.365   0.346  1.00  0.00     0.091 N 
HETATM   28  C13 UNL     1       1.576  -8.702  -0.192  1.00  0.00     0.310 C 
BRANCH  27  29
HETATM   29  C14 UNL     1       2.887  -6.782   0.435  1.00  0.00     0.298 C 
BRANCH  29  30
HETATM   30  C15 UNL     1       3.024  -5.477  -0.266  1.00  0.00     0.194 C 
BRANCH  30  31
HETATM   31  O2  UNL     1       3.253  -4.473   0.683  1.00  0.00    -0.399 OA
ATOM     32  H2  UNL     1       2.424  -4.230   1.080  1.00  0.00     0.209 HD
ENDBRANCH  30  31
ENDBRANCH  29  30
ENDBRANCH  27  29
ENDBRANCH  12  27
TORSDOF 7
ENDMDL
MODEL 3
REMARK VINA RESULT: -7.224476521     10.498     14.091
REMARK  7 active torsions:
REMARK  status: ('A' for Active; 'I' for Inactive)
REMARK    1  A    between atoms: C4_4  and  N1_5 
REMARK    2  A    between atoms: N1_5  and  C5_7 
REMARK    3  A    between atoms: N3_16  and  O1_17 
REMARK    4  A    between atoms: C12_20  and  N4_21 
REMARK    5  A    between atoms: N4_21  and  C14_23 
REMARK    6  A    between atoms: C14_23  and  C15_24 
REMARK    7  A    between atoms: C15_24  and  O2_25 
ROOT
HETATM    1  C5  UNL     1      13.909 -11.390   8.892  1.00  0.00     0.144 A 
HETATM    2  C6  UNL     1      12.744 -10.795   8.302  1.00  0.00     0.051 A 
HETATM    3  C7  UNL     1      12.201  -9.570   8.564  1.00  0.00    -0.028 A 
HETATM    4  C8  UNL     1      11.068  -9.237   7.845  1.00  0.00    -0.006 A 
HETATM    5  S1  UNL     1      10.801 -10.588   6.865  1.00  0.00    -0.075 SA
HETATM    6  C9  UNL     1      12.116 -11.558   7.366  1.00  0.00     0.090 A 
HETATM    7  N2  UNL     1      12.564 -12.801   7.015  1.00  0.00    -0.344 N 
ATOM      8  H2  UNL     1      12.059 -13.334   6.308  1.00  0.00     0.167 HD
HETATM    9  C10 UNL     1      13.650 -13.329   7.581  1.00  0.00     0.216 A 
HETATM   10  N3  UNL     1      14.302 -12.614   8.507  1.00  0.00    -0.203 N 
HETATM   11  C11 UNL     1      10.416  -7.893   8.076  1.00  0.00     0.082 C 
HETATM   12  C12 UNL     1      10.178  -7.684   9.567  1.00  0.00     0.227 C 
HETATM   13  C16 UNL     1      11.294  -8.281  10.379  1.00  0.00     0.041 C 
HETATM   14  C17 UNL     1      12.552  -8.423   9.508  1.00  0.00     0.043 C 
ENDROOT
BRANCH   1  15
HETATM   15  N1  UNL     1      14.540 -10.782   9.734  1.00  0.00    -0.367 N 
ATOM     16  H1  UNL     1      15.179 -10.235   9.156  1.00  0.00     0.161 HD
BRANCH  15  17
HETATM   17  C4  UNL     1      14.902 -10.394  10.982  1.00  0.00     0.111 C 
HETATM   18  C3  UNL     1      15.578 -11.343  11.924  1.00  0.00     0.059 C 
HETATM   19  C2  UNL     1      16.224 -10.409  12.934  1.00  0.00     0.184 C 
HETATM   20  C1  UNL     1      15.833 -10.728  14.358  1.00  0.00     0.040 C 
HETATM   21  N5  UNL     1      15.721  -9.065  12.632  1.00  0.00    -0.069 N 
HETATM   22  C18 UNL     1      15.750  -9.131  11.144  1.00  0.00     0.257 C 
ATOM     23  H52 UNL     1      14.827  -8.813  13.054  1.00  0.00     0.277 HD
ATOM     24  H51 UNL     1      16.226  -8.289  13.057  1.00  0.00     0.277 HD
ENDBRANCH  15  17
ENDBRANCH   1  15
BRANCH  10  25
HETATM   25  O1  UNL     1      15.433 -13.223   9.059  1.00  0.00    -0.280 OA
ATOM     26  H1  UNL     1      15.458 -14.157   9.231  1.00  0.00     0.245 HD
ENDBRANCH  10  25
BRANCH  12  27
HETATM   27  N4  UNL     1       8.875  -8.196   9.859  1.00  0.00     0.091 N 
HETATM   28  C13 UNL     1       9.044  -9.425  10.592  1.00  0.00     0.310 C 
BRANCH  27  29
HETATM   29  C14 UNL     1       8.023  -8.319   8.712  1.00  0.00     0.298 C 
BRANCH  29  30
HETATM   30  C15 UNL     1       6.992  -7.252   8.598  1.00  0.00     0.194 C 
BRANCH  30  31
HETATM   31  O2  UNL     1       7.389  -6.341   7.612  1.00  0.00    -0.399 OA
ATOM     32  H2  UNL     1       6.989  -6.587   6.786  1.00  0.00     0.209 HD
ENDBRANCH  30  31
ENDBRANCH  29  30
ENDBRANCH  27  29
ENDBRANCH  12  27
TORSDOF 7
ENDMDL
MODEL 4
REMARK VINA RESULT: -6.985479536      1.971      2.548
REMARK  7 active torsions:
REMARK  status: ('A' for Active; 'I' for Inactive)
REMARK    1  A    between atoms: C4_4  and  N1_5 
REMARK    2  A    between atoms: N1_5  and  C5_7 
REMARK    3  A    between atoms: N3_16  and  O1_17 
REMARK    4  A    between atoms: C12_20  and  N4_21 
REMARK    5  A    between atoms: N4_21  and  C14_23 
REMARK    6  A    between atoms: C14_23  and  C15_24 
REMARK    7  A    between atoms: C15_24  and  O2_25 
ROOT
HETATM    1  C5  UNL     1       2.135  -5.317   4.686  1.00  0.00     0.144 A 
HETATM    2  C6  UNL     1       1.693  -5.979   3.491  1.00  0.00     0.051 A 
HETATM    3  C7  UNL     1       1.534  -7.319   3.282  1.00  0.00    -0.028 A 
HETATM    4  C8  UNL     1       1.087  -7.692   2.028  1.00  0.00    -0.006 A 
HETATM    5  S1  UNL     1       0.911  -6.225   1.209  1.00  0.00    -0.075 SA
HETATM    6  C9  UNL     1       1.398  -5.155   2.449  1.00  0.00     0.090 A 
HETATM    7  N2  UNL     1       1.515  -3.796   2.536  1.00  0.00    -0.344 N 
ATOM      8  H2  UNL     1       1.282  -3.220   1.727  1.00  0.00     0.167 HD
HETATM    9  C10 UNL     1       1.928  -3.208   3.659  1.00  0.00     0.216 A 
HETATM   10  N3  UNL     1       2.230  -3.979   4.712  1.00  0.00    -0.203 N 
HETATM   11  C11 UNL     1       0.881  -9.159   1.726  1.00  0.00     0.082 C 
HETATM   12  C12 UNL     1       2.131  -9.945   2.098  1.00  0.00     0.227 C 
HETATM   13  C16 UNL     1       2.779  -9.375   3.331  1.00  0.00     0.041 C 
HETATM   14  C17 UNL     1       1.746  -8.568   4.133  1.00  0.00     0.043 C 
ENDROOT
BRANCH   1  15
HETATM   15  N1  UNL     1       2.417  -5.970   5.671  1.00  0.00    -0.367 N 
ATOM     16  H1  UNL     1       1.583  -6.549   5.779  1.00  0.00     0.161 HD
BRANCH  15  17
HETATM   17  C4  UNL     1       3.175  -6.391   6.714  1.00  0.00     0.111 C 
HETATM   18  C3  UNL     1       4.637  -6.072   6.788  1.00  0.00     0.059 C 
HETATM   19  C2  UNL     1       4.949  -6.271   8.262  1.00  0.00     0.184 C 
HETATM   20  C1  UNL     1       6.090  -7.233   8.493  1.00  0.00     0.040 C 
HETATM   21  N5  UNL     1       3.748  -6.863   8.860  1.00  0.00    -0.069 N 
HETATM   22  C18 UNL     1       2.711  -6.075   8.137  1.00  0.00     0.257 C 
ATOM     23  H52 UNL     1       3.667  -7.877   8.798  1.00  0.00     0.277 HD
ATOM     24  H51 UNL     1       3.697  -6.846   9.878  1.00  0.00     0.277 HD
ENDBRANCH  15  17
ENDBRANCH   1  15
BRANCH  10  25
HETATM   25  O1  UNL     1       2.655  -3.301   5.860  1.00  0.00    -0.280 OA
ATOM     26  H1  UNL     1       2.998  -2.417   5.813  1.00  0.00     0.245 HD
ENDBRANCH  10  25
BRANCH  12  27
HETATM   27  N4  UNL     1       2.966  -9.979   0.938  1.00  0.00     0.091 N 
HETATM   28  C13 UNL     1       3.293 -11.358   0.674  1.00  0.00     0.310 C 
BRANCH  27  29
HETATM   29  C14 UNL     1       4.110  -9.118   1.013  1.00  0.00     0.298 C 
BRANCH  29  30
HETATM   30  C15 UNL     1       4.375  -8.342  -0.229  1.00  0.00     0.194 C 
BRANCH  30  31
HETATM   31  O2  UNL     1       5.739  -8.424  -0.534  1.00  0.00    -0.399 OA
ATOM     32  H2  UNL     1       5.927  -7.843  -1.262  1.00  0.00     0.209 HD
ENDBRANCH  30  31
ENDBRANCH  29  30
ENDBRANCH  27  29
ENDBRANCH  12  27
TORSDOF 7
ENDMDL
MODEL 5
REMARK VINA RESULT: -6.816824192      1.321      1.502
REMARK  7 active torsions:
REMARK  status: ('A' for Active; 'I' for Inactive)
REMARK    1  A    between atoms: C4_4  and  N1_5 
REMARK    2  A    between atoms: N1_5  and  C5_7 
REMARK    3  A    between atoms: N3_16  and  O1_17 
REMARK    4  A    between atoms: C12_20  and  N4_21 
REMARK    5  A    between atoms: N4_21  and  C14_23 
REMARK    6  A    between atoms: C14_23  and  C15_24 
REMARK    7  A    between atoms: C15_24  and  O2_25 
ROOT
HETATM    1  C5  UNL     1       1.441  -3.109   4.557  1.00  0.00     0.144 A 
HETATM    2  C6  UNL     1       0.855  -3.660   3.368  1.00  0.00     0.051 A 
HETATM    3  C7  UNL     1       0.598  -4.970   3.088  1.00  0.00    -0.028 A 
HETATM    4  C8  UNL     1       0.019  -5.230   1.860  1.00  0.00    -0.006 A 
HETATM    5  S1  UNL     1      -0.143  -3.701   1.159  1.00  0.00    -0.075 SA
HETATM    6  C9  UNL     1       0.518  -2.750   2.415  1.00  0.00     0.090 A 
HETATM    7  N2  UNL     1       0.722  -1.408   2.579  1.00  0.00    -0.344 N 
ATOM      8  H2  UNL     1       0.452  -0.764   1.835  1.00  0.00     0.167 HD
HETATM    9  C10 UNL     1       1.270  -0.924   3.695  1.00  0.00     0.216 A 
HETATM   10  N3  UNL     1       1.618  -1.782   4.662  1.00  0.00    -0.203 N 
HETATM   11  C11 UNL     1      -0.301  -6.658   1.482  1.00  0.00     0.082 C 
HETATM   12  C12 UNL     1       0.929  -7.535   1.683  1.00  0.00     0.227 C 
HETATM   13  C16 UNL     1       1.717  -7.089   2.885  1.00  0.00     0.041 C 
HETATM   14  C17 UNL     1       0.810  -6.286   3.831  1.00  0.00     0.043 C 
ENDROOT
BRANCH   1  15
HETATM   15  N1  UNL     1       1.771  -3.844   5.467  1.00  0.00    -0.367 N 
ATOM     16  H1  UNL     1       0.893  -3.942   5.979  1.00  0.00     0.161 HD
BRANCH  15  17
HETATM   17  C4  UNL     1       2.606  -4.612   6.209  1.00  0.00     0.111 C 
HETATM   18  C3  UNL     1       2.080  -5.709   7.084  1.00  0.00     0.059 C 
HETATM   19  C2  UNL     1       3.307  -6.578   7.306  1.00  0.00     0.184 C 
HETATM   20  C1  UNL     1       3.603  -6.810   8.768  1.00  0.00     0.040 C 
HETATM   21  N5  UNL     1       4.441  -5.841   6.740  1.00  0.00    -0.069 N 
HETATM   22  C18 UNL     1       3.785  -5.299   5.517  1.00  0.00     0.257 C 
ATOM     23  H52 UNL     1       4.885  -5.157   7.353  1.00  0.00     0.277 HD
ATOM     24  H51 UNL     1       5.297  -6.375   6.592  1.00  0.00     0.277 HD
ENDBRANCH  15  17
ENDBRANCH   1  15
BRANCH  10  25
HETATM   25  O1  UNL     1       2.184  -1.212   5.807  1.00  0.00    -0.280 OA
ATOM     26  H1  UNL     1       1.645  -0.923   6.534  1.00  0.00     0.245 HD
ENDBRANCH  10  25
BRANCH  12  27
HETATM   27  N4  UNL     1       1.652  -7.531   0.450  1.00  0.00     0.091 N 
HETATM   28  C13 UNL     1       2.859  -6.770   0.653  1.00  0.00     0.310 C 
BRANCH  27  29
HETATM   29  C14 UNL     1       0.881  -7.102  -0.680  1.00  0.00     0.298 C 
BRANCH  29  30
HETATM   30  C15 UNL     1       1.635  -6.267  -1.655  1.00  0.00     0.194 C 
BRANCH  30  31
HETATM   31  O2  UNL     1       0.840  -5.177  -2.029  1.00  0.00    -0.399 OA
ATOM     32  H2  UNL     1       0.092  -5.496  -2.523  1.00  0.00     0.209 HD
ENDBRANCH  30  31
ENDBRANCH  29  30
ENDBRANCH  27  29
ENDBRANCH  12  27
TORSDOF 7
ENDMDL
