MODEL 1
REMARK VINA RESULT: -8.437465865      0.000      0.000
REMARK  5 active torsions:
REMARK  status: ('A' for Active; 'I' for Inactive)
REMARK    1  A    between atoms: C4_6  and  C5_7 
REMARK    2  A    between atoms: C7_9  and  O1_10 
REMARK    3  A    between atoms: C9_12  and  O2_13 
REMARK    4  A    between atoms: C10_15  and  O3_16 
REMARK    5  A    between atoms: C15_24  and  C16_25 
ROOT
HETATM    1  C1  UNL     1       9.276  -8.848  11.314  1.00  0.00     0.045 C 
HETATM    2  C2  UNL     1       9.616  -8.780  10.048  1.00  0.00     0.050 A 
HETATM    3  N1  UNL     1      10.916  -9.296   9.668  1.00  0.00    -0.351 N 
ATOM      4  H1  UNL     1      11.508  -9.696  10.396  1.00  0.00     0.166 HD
HETATM    5  C3  UNL     1      11.404  -9.275   8.355  1.00  0.00     0.102 A 
HETATM    6  C4  UNL     1      12.555  -9.754   8.012  1.00  0.00     0.046 C 
HETATM    7  C13 UNL     1      10.525  -8.691   7.342  1.00  0.00     0.272 A 
HETATM    8  O4  UNL     1      10.906  -8.640   6.137  1.00  0.00    -0.266 OA
HETATM    9  N2  UNL     1       9.236  -8.173   7.684  1.00  0.00    -0.320 N 
ATOM     10  H2  UNL     1       8.650  -7.773   6.951  1.00  0.00     0.169 HD
HETATM   11  C14 UNL     1       8.751  -8.202   9.024  1.00  0.00     0.062 A 
HETATM   12  C15 UNL     1       7.556  -7.764   9.357  1.00  0.00     0.045 C 
ENDROOT
BRANCH   6  13
HETATM   13  C5  UNL     1      13.561 -10.393   8.830  1.00  0.00    -0.028 A 
HETATM   14  C6  UNL     1      13.966 -11.707   8.553  1.00  0.00     0.051 A 
HETATM   15  C7  UNL     1      14.889 -12.384   9.296  1.00  0.00     0.104 A 
HETATM   16  C9  UNL     1      15.449 -11.725  10.380  1.00  0.00     0.133 A 
HETATM   17  C10 UNL     1      15.068 -10.418  10.683  1.00  0.00     0.104 A 
HETATM   18  C12 UNL     1      14.132  -9.764   9.910  1.00  0.00     0.051 A 
BRANCH  15  19
HETATM   19  O1  UNL     1      15.312 -13.673   9.054  1.00  0.00    -0.353 OA
HETATM   20  C8  UNL     1      14.504 -14.794   8.864  1.00  0.00     0.210 C 
ENDBRANCH  15  19
BRANCH  16  21
HETATM   21  O2  UNL     1      16.396 -12.340  11.189  1.00  0.00    -0.356 OA
ATOM     22  H2  UNL     1      16.177 -13.095  11.721  1.00  0.00     0.218 HD
ENDBRANCH  16  21
BRANCH  17  23
HETATM   23  O3  UNL     1      15.636  -9.772  11.769  1.00  0.00    -0.353 OA
HETATM   24  C11 UNL     1      15.199  -9.772  13.082  1.00  0.00     0.210 C 
ENDBRANCH  17  23
ENDBRANCH   6  13
BRANCH  12  25
HETATM   25  C16 UNL     1       6.594  -7.161   8.441  1.00  0.00    -0.010 A 
HETATM   26  C17 UNL     1       6.749  -6.765   7.131  1.00  0.00     0.030 A 
HETATM   27  C18 UNL     1       5.547  -6.264   6.675  1.00  0.00     0.091 A 
HETATM   28  N3  UNL     1       4.636  -6.340   7.686  1.00  0.00    -0.364 N 
HETATM   29  C19 UNL     1       3.241  -5.903   7.573  1.00  0.00     0.155 C 
HETATM   30  C20 UNL     1       5.252  -6.870   8.728  1.00  0.00     0.017 A 
HETATM   31  C21 UNL     1       4.626  -7.140  10.051  1.00  0.00     0.069 C 
ENDBRANCH  12  25
TORSDOF 5
ENDMDL
MODEL 2
REMARK VINA RESULT: -8.358496627      0.099      2.371
REMARK  5 active torsions:
REMARK  status: ('A' for Active; 'I' for Inactive)
REMARK    1  A    between atoms: C4_6  and  C5_7 
REMARK    2  A    between atoms: C7_9  and  O1_10 
REMARK    3  A    between atoms: C9_12  and  O2_13 
REMARK    4  A    between atoms: C10_15  and  O3_16 
REMARK    5  A    between atoms: C15_24  and  C16_25 
ROOT
HETATM    1  C1  UNL     1       9.191  -8.976  11.272  1.00  0.00     0.045 C 
HETATM    2  C2  UNL     1       9.554  -8.880  10.014  1.00  0.00     0.050 A 
HETATM    3  N1  UNL     1      10.852  -9.408   9.642  1.00  0.00    -0.351 N 
ATOM      4  H1  UNL     1      11.424  -9.837  10.368  1.00  0.00     0.166 HD
HETATM    5  C3  UNL     1      11.362  -9.361   8.339  1.00  0.00     0.102 A 
HETATM    6  C4  UNL     1      12.510  -9.851   8.001  1.00  0.00     0.046 C 
HETATM    7  C13 UNL     1      10.510  -8.735   7.327  1.00  0.00     0.272 A 
HETATM    8  O4  UNL     1      10.911  -8.659   6.131  1.00  0.00    -0.266 OA
HETATM    9  N2  UNL     1       9.224  -8.204   7.662  1.00  0.00    -0.320 N 
ATOM     10  H2  UNL     1       8.658  -7.775   6.930  1.00  0.00     0.169 HD
HETATM   11  C14 UNL     1       8.716  -8.260   8.993  1.00  0.00     0.062 A 
HETATM   12  C15 UNL     1       7.523  -7.812   9.317  1.00  0.00     0.045 C 
ENDROOT
BRANCH   6  13
HETATM   13  C5  UNL     1      13.492 -10.528   8.818  1.00  0.00    -0.028 A 
HETATM   14  C6  UNL     1      14.093  -9.861   9.896  1.00  0.00     0.051 A 
HETATM   15  C7  UNL     1      15.047 -10.424  10.694  1.00  0.00     0.104 A 
HETATM   16  C9  UNL     1      15.433 -11.726  10.412  1.00  0.00     0.133 A 
HETATM   17  C10 UNL     1      14.855 -12.416   9.346  1.00  0.00     0.104 A 
HETATM   18  C12 UNL     1      13.894 -11.816   8.561  1.00  0.00     0.051 A 
BRANCH  15  19
HETATM   19  O1  UNL     1      15.658  -9.802  11.761  1.00  0.00    -0.353 OA
HETATM   20  C8  UNL     1      15.207  -9.775  13.080  1.00  0.00     0.210 C 
ENDBRANCH  15  19
BRANCH  16  21
HETATM   21  O2  UNL     1      16.396 -12.375  11.173  1.00  0.00    -0.356 OA
ATOM     22  H2  UNL     1      16.160 -12.890  11.935  1.00  0.00     0.218 HD
ENDBRANCH  16  21
BRANCH  17  23
HETATM   23  O3  UNL     1      15.251 -13.716   9.076  1.00  0.00    -0.353 OA
HETATM   24  C11 UNL     1      14.475 -14.762   8.611  1.00  0.00     0.210 C 
ENDBRANCH  17  23
ENDBRANCH   6  13
BRANCH  12  25
HETATM   25  C16 UNL     1       6.587  -7.168   8.403  1.00  0.00    -0.010 A 
HETATM   26  C17 UNL     1       6.757  -6.778   7.092  1.00  0.00     0.030 A 
HETATM   27  C18 UNL     1       5.578  -6.227   6.638  1.00  0.00     0.091 A 
HETATM   28  N3  UNL     1       4.665  -6.265   7.649  1.00  0.00    -0.364 N 
HETATM   29  C19 UNL     1       3.290  -5.768   7.537  1.00  0.00     0.155 C 
HETATM   30  C20 UNL     1       5.258  -6.820   8.690  1.00  0.00     0.017 A 
HETATM   31  C21 UNL     1       4.622  -7.063  10.014  1.00  0.00     0.069 C 
ENDBRANCH  12  25
TORSDOF 5
ENDMDL
MODEL 3
REMARK VINA RESULT: -8.079801847      1.815      2.642
REMARK  5 active torsions:
REMARK  status: ('A' for Active; 'I' for Inactive)
REMARK    1  A    between atoms: C4_6  and  C5_7 
REMARK    2  A    between atoms: C7_9  and  O1_10 
REMARK    3  A    between atoms: C9_12  and  O2_13 
REMARK    4  A    between atoms: C10_15  and  O3_16 
REMARK    5  A    between atoms: C15_24  and  C16_25 
ROOT
HETATM    1  C1  UNL     1       9.599  -7.143   6.733  1.00  0.00     0.045 C 
HETATM    2  C2  UNL     1       9.258  -7.664   7.889  1.00  0.00     0.050 A 
HETATM    3  N1  UNL     1      10.283  -8.345   8.653  1.00  0.00    -0.351 N 
ATOM      4  H1  UNL     1      11.226  -8.386   8.267  1.00  0.00     0.166 HD
HETATM    5  C3  UNL     1      10.049  -8.950   9.895  1.00  0.00     0.102 A 
HETATM    6  C4  UNL     1      10.968  -9.539  10.588  1.00  0.00     0.046 C 
HETATM    7  C13 UNL     1       8.683  -8.871  10.413  1.00  0.00     0.272 A 
HETATM    8  O4  UNL     1       8.405  -9.398  11.527  1.00  0.00    -0.266 OA
HETATM    9  N2  UNL     1       7.648  -8.206   9.682  1.00  0.00    -0.320 N 
ATOM     10  H2  UNL     1       6.707  -8.170  10.075  1.00  0.00     0.169 HD
HETATM   11  C14 UNL     1       7.900  -7.592   8.420  1.00  0.00     0.062 A 
HETATM   12  C15 UNL     1       6.974  -6.945   7.748  1.00  0.00     0.045 C 
ENDROOT
BRANCH   6  13
HETATM   13  C5  UNL     1      12.372  -9.712  10.288  1.00  0.00    -0.028 A 
HETATM   14  C6  UNL     1      12.767 -10.342   9.098  1.00  0.00     0.051 A 
HETATM   15  C7  UNL     1      14.070 -10.565   8.760  1.00  0.00     0.104 A 
HETATM   16  C9  UNL     1      15.046 -10.141   9.649  1.00  0.00     0.133 A 
HETATM   17  C10 UNL     1      14.686  -9.513  10.841  1.00  0.00     0.104 A 
HETATM   18  C12 UNL     1      13.360  -9.303  11.151  1.00  0.00     0.051 A 
BRANCH  15  19
HETATM   19  O1  UNL     1      14.496 -11.178   7.602  1.00  0.00    -0.353 OA
HETATM   20  C8  UNL     1      14.078 -12.415   7.111  1.00  0.00     0.210 C 
ENDBRANCH  15  19
BRANCH  16  21
HETATM   21  O2  UNL     1      16.396 -10.328   9.383  1.00  0.00    -0.356 OA
ATOM     22  H2  UNL     1      17.057  -9.750   9.746  1.00  0.00     0.218 HD
ENDBRANCH  16  21
BRANCH  17  23
HETATM   23  O3  UNL     1      15.673  -9.095  11.721  1.00  0.00    -0.353 OA
HETATM   24  C11 UNL     1      16.169  -9.767  12.823  1.00  0.00     0.210 C 
ENDBRANCH  17  23
ENDBRANCH   6  13
BRANCH  12  25
HETATM   25  C16 UNL     1       5.581  -6.800   8.156  1.00  0.00    -0.010 A 
HETATM   26  C17 UNL     1       4.964  -7.158   9.335  1.00  0.00     0.030 A 
HETATM   27  C18 UNL     1       3.633  -6.803   9.262  1.00  0.00     0.091 A 
HETATM   28  N3  UNL     1       3.405  -6.223   8.050  1.00  0.00    -0.364 N 
HETATM   29  C19 UNL     1       2.102  -5.713   7.612  1.00  0.00     0.155 C 
HETATM   30  C20 UNL     1       4.553  -6.220   7.397  1.00  0.00     0.017 A 
HETATM   31  C21 UNL     1       4.763  -5.674   6.029  1.00  0.00     0.069 C 
ENDBRANCH  12  25
TORSDOF 5
ENDMDL
MODEL 4
REMARK VINA RESULT: -8.038423155      1.816      3.438
REMARK  5 active torsions:
REMARK  status: ('A' for Active; 'I' for Inactive)
REMARK    1  A    between atoms: C4_6  and  C5_7 
REMARK    2  A    between atoms: C7_9  and  O1_10 
REMARK    3  A    between atoms: C9_12  and  O2_13 
REMARK    4  A    between atoms: C10_15  and  O3_16 
REMARK    5  A    between atoms: C15_24  and  C16_25 
ROOT
HETATM    1  C1  UNL     1       9.592  -7.147   6.735  1.00  0.00     0.045 C 
HETATM    2  C2  UNL     1       9.242  -7.679   7.883  1.00  0.00     0.050 A 
HETATM    3  N1  UNL     1      10.258  -8.382   8.640  1.00  0.00    -0.351 N 
ATOM      4  H1  UNL     1      11.201  -8.429   8.256  1.00  0.00     0.166 HD
HETATM    5  C3  UNL     1      10.015  -9.002   9.873  1.00  0.00     0.102 A 
HETATM    6  C4  UNL     1      10.926  -9.610  10.560  1.00  0.00     0.046 C 
HETATM    7  C13 UNL     1       8.648  -8.914  10.389  1.00  0.00     0.272 A 
HETATM    8  O4  UNL     1       8.362  -9.453  11.496  1.00  0.00    -0.266 OA
HETATM    9  N2  UNL     1       7.623  -8.228   9.665  1.00  0.00    -0.320 N 
ATOM     10  H2  UNL     1       6.681  -8.187  10.056  1.00  0.00     0.169 HD
HETATM   11  C14 UNL     1       7.884  -7.600   8.412  1.00  0.00     0.062 A 
HETATM   12  C15 UNL     1       6.966  -6.933   7.747  1.00  0.00     0.045 C 
ENDROOT
BRANCH   6  13
HETATM   13  C5  UNL     1      12.328  -9.794  10.260  1.00  0.00    -0.028 A 
HETATM   14  C6  UNL     1      13.305  -9.369  11.172  1.00  0.00     0.051 A 
HETATM   15  C7  UNL     1      14.647  -9.484  10.948  1.00  0.00     0.104 A 
HETATM   16  C9  UNL     1      15.051 -10.053   9.749  1.00  0.00     0.133 A 
HETATM   17  C10 UNL     1      14.104 -10.485   8.821  1.00  0.00     0.104 A 
HETATM   18  C12 UNL     1      12.757 -10.354   9.080  1.00  0.00     0.051 A 
BRANCH  15  19
HETATM   19  O1  UNL     1      15.635  -9.079  11.819  1.00  0.00    -0.353 OA
HETATM   20  C8  UNL     1      16.140  -9.802  12.900  1.00  0.00     0.210 C 
ENDBRANCH  15  19
BRANCH  16  21
HETATM   21  O2  UNL     1      16.396 -10.208   9.440  1.00  0.00    -0.356 OA
ATOM     22  H2  UNL     1      16.681 -10.406   8.556  1.00  0.00     0.218 HD
ENDBRANCH  16  21
BRANCH  17  23
HETATM   23  O3  UNL     1      14.523 -11.051   7.627  1.00  0.00    -0.353 OA
HETATM   24  C11 UNL     1      14.415 -12.371   7.229  1.00  0.00     0.210 C 
ENDBRANCH  17  23
ENDBRANCH   6  13
BRANCH  12  25
HETATM   25  C16 UNL     1       5.574  -6.778   8.155  1.00  0.00    -0.010 A 
HETATM   26  C17 UNL     1       4.959  -7.111   9.341  1.00  0.00     0.030 A 
HETATM   27  C18 UNL     1       3.628  -6.756   9.264  1.00  0.00     0.091 A 
HETATM   28  N3  UNL     1       3.399  -6.202   8.039  1.00  0.00    -0.364 N 
HETATM   29  C19 UNL     1       2.096  -5.700   7.593  1.00  0.00     0.155 C 
HETATM   30  C20 UNL     1       4.546  -6.214   7.385  1.00  0.00     0.017 A 
HETATM   31  C21 UNL     1       4.754  -5.697   6.005  1.00  0.00     0.069 C 
ENDBRANCH  12  25
TORSDOF 5
ENDMDL
MODEL 5
REMARK VINA RESULT: -7.833530923      8.241     14.834
REMARK  5 active torsions:
REMARK  status: ('A' for Active; 'I' for Inactive)
REMARK    1  A    between atoms: C4_6  and  C5_7 
REMARK    2  A    between atoms: C7_9  and  O1_10 
REMARK    3  A    between atoms: C9_12  and  O2_13 
REMARK    4  A    between atoms: C10_15  and  O3_16 
REMARK    5  A    between atoms: C15_24  and  C16_25 
ROOT
HETATM    1  C1  UNL     1       1.277  -7.186   4.091  1.00  0.00     0.045 C 
HETATM    2  C2  UNL     1       1.592  -5.996   4.549  1.00  0.00     0.050 A 
HETATM    3  N1  UNL     1       1.086  -4.841   3.835  1.00  0.00    -0.351 N 
ATOM      4  H1  UNL     1       0.504  -4.998   3.013  1.00  0.00     0.166 HD
HETATM    5  C3  UNL     1       1.355  -3.519   4.212  1.00  0.00     0.102 A 
HETATM    6  C4  UNL     1       0.887  -2.488   3.589  1.00  0.00     0.046 C 
HETATM    7  C13 UNL     1       2.197  -3.337   5.395  1.00  0.00     0.272 A 
HETATM    8  O4  UNL     1       2.478  -2.169   5.789  1.00  0.00    -0.266 OA
HETATM    9  N2  UNL     1       2.711  -4.456   6.122  1.00  0.00    -0.320 N 
ATOM     10  H2  UNL     1       3.294  -4.291   6.943  1.00  0.00     0.169 HD
HETATM   11  C14 UNL     1       2.428  -5.797   5.728  1.00  0.00     0.062 A 
HETATM   12  C15 UNL     1       2.860  -6.841   6.401  1.00  0.00     0.045 C 
ENDROOT
BRANCH   6  13
HETATM   13  C5  UNL     1       0.027  -2.432   2.428  1.00  0.00    -0.028 A 
HETATM   14  C6  UNL     1      -1.121  -1.625   2.439  1.00  0.00     0.051 A 
HETATM   15  C7  UNL     1      -1.994  -1.542   1.394  1.00  0.00     0.104 A 
HETATM   16  C9  UNL     1      -1.721  -2.303   0.267  1.00  0.00     0.133 A 
HETATM   17  C10 UNL     1      -0.589  -3.117   0.225  1.00  0.00     0.104 A 
HETATM   18  C12 UNL     1       0.272  -3.176   1.299  1.00  0.00     0.051 A 
BRANCH  15  19
HETATM   19  O1  UNL     1      -3.129  -0.761   1.367  1.00  0.00    -0.353 OA
HETATM   20  C8  UNL     1      -3.243   0.559   1.804  1.00  0.00     0.210 C 
ENDBRANCH  15  19
BRANCH  16  21
HETATM   21  O2  UNL     1      -2.557  -2.278  -0.842  1.00  0.00    -0.356 OA
ATOM     22  H2  UNL     1      -3.500  -2.351  -0.752  1.00  0.00     0.218 HD
ENDBRANCH  16  21
BRANCH  17  23
HETATM   23  O3  UNL     1      -0.329  -3.872  -0.908  1.00  0.00    -0.353 OA
HETATM   24  C11 UNL     1      -0.092  -5.232  -0.987  1.00  0.00     0.210 C 
ENDBRANCH  17  23
ENDBRANCH   6  13
BRANCH  12  25
HETATM   25  C16 UNL     1       3.705  -6.789   7.589  1.00  0.00    -0.010 A 
HETATM   26  C17 UNL     1       3.366  -6.899   8.920  1.00  0.00     0.030 A 
HETATM   27  C18 UNL     1       4.515  -6.804   9.678  1.00  0.00     0.091 A 
HETATM   28  N3  UNL     1       5.575  -6.635   8.837  1.00  0.00    -0.364 N 
HETATM   29  C19 UNL     1       6.966  -6.499   9.281  1.00  0.00     0.155 C 
HETATM   30  C20 UNL     1       5.099  -6.627   7.605  1.00  0.00     0.017 A 
HETATM   31  C21 UNL     1       5.914  -6.472   6.369  1.00  0.00     0.069 C 
ENDBRANCH  12  25
TORSDOF 5
ENDMDL
