MODEL 1
REMARK VINA RESULT: -6.424463502      0.000      0.000
REMARK  6 active torsions:
REMARK  status: ('A' for Active; 'I' for Inactive)
REMARK    1  A    between atoms: C2_2  and  N1_3 
REMARK    2  A    between atoms: N1_3  and  C3_6 
REMARK    3  A    between atoms: C3_6  and  C4_7 
REMARK    4  A    between atoms: N2_9  and  C5_11 
REMARK    5  A    between atoms: C6_14  and  N4_15 
REMARK    6  A    between atoms: C11_24  and  N6_25 
ROOT
HETATM    1  C5  UNL     1       1.890  -8.254   4.169  1.00  0.00     0.137 A 
HETATM    2  N3  UNL     1       2.101  -9.459   4.719  1.00  0.00    -0.176 N 
ATOM      3  H3  UNL     1       2.208  -9.484   5.732  1.00  0.00     0.186 HD
HETATM    4  C6  UNL     1       2.187 -10.631   4.084  1.00  0.00     0.680 A 
HETATM    5  N5  UNL     1       2.047 -10.593   2.757  1.00  0.00    -0.184 N 
ATOM      6  H5  UNL     1       2.104 -11.456   2.217  1.00  0.00     0.185 HD
HETATM    7  C8  UNL     1       1.830  -9.409   2.119  1.00  0.00     0.107 A 
HETATM    8  S2  UNL     1       1.610  -9.026   0.468  1.00  0.00    -0.073 SA
HETATM    9  C9  UNL     1       1.405  -7.353   0.594  1.00  0.00     0.008 A 
HETATM   10  C10 UNL     1       1.156  -6.327  -0.488  1.00  0.00     0.059 C 
HETATM   11  C11 UNL     1       1.516  -7.116   1.959  1.00  0.00     0.060 A 
HETATM   12  C16 UNL     1       1.737  -8.195   2.739  1.00  0.00     0.070 A 
ENDROOT
BRANCH   1  13
HETATM   13  N2  UNL     1       1.824  -7.196   4.819  1.00  0.00    -0.334 N 
HETATM   14  C4  UNL     1       2.337  -6.563   5.896  1.00  0.00     0.104 C 
HETATM   15  S1  UNL     1       1.620  -5.162   6.504  1.00  0.00    -0.064 SA
ATOM     16  H2  UNL     1       1.133  -6.586   4.380  1.00  0.00     0.168 HD
BRANCH  14  17
HETATM   17  C3  UNL     1       3.507  -7.005   6.680  1.00  0.00     0.301 C 
BRANCH  17  18
HETATM   18  N1  UNL     1       4.692  -6.195   6.469  1.00  0.00    -0.070 N 
ATOM     19  H12 UNL     1       4.476  -5.204   6.577  1.00  0.00     0.277 HD
ATOM     20  H11 UNL     1       4.965  -6.203   5.486  1.00  0.00     0.277 HD
BRANCH  18  21
HETATM   21  C2  UNL     1       5.804  -6.573   7.315  1.00  0.00     0.228 C 
HETATM   22  C1  UNL     1       5.265  -6.827   8.744  1.00  0.00     0.034 C 
ENDBRANCH  18  21
ENDBRANCH  17  18
ENDBRANCH  14  17
ENDBRANCH   1  13
BRANCH   4  23
HETATM   23  N4  UNL     1       2.396 -11.729   4.730  1.00  0.00    -0.230 N 
HETATM   24  C7  UNL     1       1.362 -12.195   5.631  1.00  0.00     0.165 C 
ATOM     25  H4  UNL     1       3.263 -12.253   4.609  1.00  0.00     0.177 HD
ENDBRANCH   4  23
BRANCH  11  26
HETATM   26  N6  UNL     1       1.391  -5.724   2.432  1.00  0.00    -0.375 N 
HETATM   27  C12 UNL     1       2.539  -4.880   2.491  1.00  0.00     0.149 C 
HETATM   28  C13 UNL     1       2.079  -3.496   1.987  1.00  0.00     0.187 C 
HETATM   29  O1  UNL     1       1.189  -3.040   2.923  1.00  0.00    -0.388 OA
HETATM   30  C14 UNL     1       0.050  -3.776   3.053  1.00  0.00     0.187 C 
HETATM   31  C15 UNL     1       0.090  -5.221   2.770  1.00  0.00     0.149 C 
ENDBRANCH  11  26
TORSDOF 6
ENDMDL
MODEL 2
REMARK VINA RESULT: -6.402101629      9.190     12.987
REMARK  6 active torsions:
REMARK  status: ('A' for Active; 'I' for Inactive)
REMARK    1  A    between atoms: C2_2  and  N1_3 
REMARK    2  A    between atoms: N1_3  and  C3_6 
REMARK    3  A    between atoms: C3_6  and  C4_7 
REMARK    4  A    between atoms: N2_9  and  C5_11 
REMARK    5  A    between atoms: C6_14  and  N4_15 
REMARK    6  A    between atoms: C11_24  and  N6_25 
ROOT
HETATM    1  C5  UNL     1      11.477  -9.787   7.113  1.00  0.00     0.137 A 
HETATM    2  N3  UNL     1      10.453  -8.992   6.767  1.00  0.00    -0.176 N 
ATOM      3  H3  UNL     1      10.005  -9.193   5.873  1.00  0.00     0.186 HD
HETATM    4  C6  UNL     1       9.956  -7.967   7.464  1.00  0.00     0.680 A 
HETATM    5  N5  UNL     1      10.548  -7.709   8.632  1.00  0.00    -0.184 N 
ATOM      6  H5  UNL     1      10.213  -6.938   9.209  1.00  0.00     0.185 HD
HETATM    7  C8  UNL     1      11.596  -8.468   9.060  1.00  0.00     0.107 A 
HETATM    8  S2  UNL     1      12.549  -8.403  10.476  1.00  0.00    -0.073 SA
HETATM    9  C9  UNL     1      13.590  -9.699  10.172  1.00  0.00     0.008 A 
HETATM   10  C10 UNL     1      14.720 -10.247  11.013  1.00  0.00     0.059 C 
HETATM   11  C11 UNL     1      13.164 -10.173   8.937  1.00  0.00     0.060 A 
HETATM   12  C16 UNL     1      12.126  -9.522   8.371  1.00  0.00     0.070 A 
ENDROOT
BRANCH   1  13
HETATM   13  N2  UNL     1      11.895 -10.727   6.415  1.00  0.00    -0.334 N 
HETATM   14  C4  UNL     1      11.501 -11.651   5.513  1.00  0.00     0.104 C 
HETATM   15  S1  UNL     1      12.509 -12.936   5.087  1.00  0.00    -0.064 SA
ATOM     16  H2  UNL     1      12.895 -10.841   6.584  1.00  0.00     0.168 HD
BRANCH  14  17
HETATM   17  C3  UNL     1      10.188 -11.694   4.838  1.00  0.00     0.301 C 
BRANCH  17  18
HETATM   18  N1  UNL     1      10.188 -12.460   3.607  1.00  0.00    -0.070 N 
ATOM     19  H12 UNL     1      11.132 -12.762   3.369  1.00  0.00     0.277 HD
ATOM     20  H11 UNL     1       9.995 -11.858   2.806  1.00  0.00     0.277 HD
BRANCH  18  21
HETATM   21  C2  UNL     1       9.279 -13.587   3.631  1.00  0.00     0.228 C 
HETATM   22  C1  UNL     1       9.949 -14.768   2.885  1.00  0.00     0.034 C 
ENDBRANCH  18  21
ENDBRANCH  17  18
ENDBRANCH  14  17
ENDBRANCH   1  13
BRANCH   4  23
HETATM   23  N4  UNL     1       8.962  -7.274   7.019  1.00  0.00    -0.230 N 
HETATM   24  C7  UNL     1       7.797  -7.134   7.867  1.00  0.00     0.165 C 
ATOM     25  H4  UNL     1       8.997  -6.838   6.098  1.00  0.00     0.177 HD
ENDBRANCH   4  23
BRANCH  11  26
HETATM   26  N6  UNL     1      13.877 -11.326   8.354  1.00  0.00    -0.375 N 
HETATM   27  C12 UNL     1      15.041 -11.121   7.555  1.00  0.00     0.149 C 
HETATM   28  C13 UNL     1      16.040 -12.224   7.964  1.00  0.00     0.187 C 
HETATM   29  O1  UNL     1      15.471 -13.404   7.563  1.00  0.00    -0.388 OA
HETATM   30  C14 UNL     1      14.300 -13.728   8.179  1.00  0.00     0.187 C 
HETATM   31  C15 UNL     1      13.416 -12.650   8.657  1.00  0.00     0.149 C 
ENDBRANCH  11  26
TORSDOF 6
ENDMDL
MODEL 3
REMARK VINA RESULT: -6.291105207      3.035      5.494
REMARK  6 active torsions:
REMARK  status: ('A' for Active; 'I' for Inactive)
REMARK    1  A    between atoms: C2_2  and  N1_3 
REMARK    2  A    between atoms: N1_3  and  C3_6 
REMARK    3  A    between atoms: C3_6  and  C4_7 
REMARK    4  A    between atoms: N2_9  and  C5_11 
REMARK    5  A    between atoms: C6_14  and  N4_15 
REMARK    6  A    between atoms: C11_24  and  N6_25 
ROOT
HETATM    1  C5  UNL     1       1.491  -4.233   3.798  1.00  0.00     0.137 A 
HETATM    2  N3  UNL     1       1.527  -3.173   4.619  1.00  0.00    -0.176 N 
ATOM      3  H3  UNL     1       1.628  -3.374   5.614  1.00  0.00     0.186 HD
HETATM    4  C6  UNL     1       1.446  -1.885   4.278  1.00  0.00     0.680 A 
HETATM    5  N5  UNL     1       1.313  -1.629   2.975  1.00  0.00    -0.184 N 
ATOM      6  H5  UNL     1       1.245  -0.664   2.653  1.00  0.00     0.185 HD
HETATM    7  C8  UNL     1       1.268  -2.648   2.072  1.00  0.00     0.107 A 
HETATM    8  S2  UNL     1       1.111  -2.658   0.370  1.00  0.00    -0.073 SA
HETATM    9  C9  UNL     1       1.151  -4.325   0.095  1.00  0.00     0.008 A 
HETATM   10  C10 UNL     1       1.066  -5.091  -1.204  1.00  0.00     0.059 C 
HETATM   11  C11 UNL     1       1.290  -4.859   1.371  1.00  0.00     0.060 A 
HETATM   12  C16 UNL     1       1.349  -3.974   2.389  1.00  0.00     0.070 A 
ENDROOT
BRANCH   1  13
HETATM   13  N2  UNL     1       1.569  -5.413   4.181  1.00  0.00    -0.334 N 
HETATM   14  C4  UNL     1       2.142  -6.203   5.114  1.00  0.00     0.104 C 
HETATM   15  S1  UNL     1       2.111  -7.884   4.969  1.00  0.00    -0.064 SA
ATOM     16  H2  UNL     1       0.993  -5.994   3.571  1.00  0.00     0.168 HD
BRANCH  14  17
HETATM   17  C3  UNL     1       2.874  -5.735   6.308  1.00  0.00     0.301 C 
BRANCH  17  18
HETATM   18  N1  UNL     1       4.312  -5.685   6.131  1.00  0.00    -0.070 N 
ATOM     19  H12 UNL     1       4.640  -4.719   6.107  1.00  0.00     0.277 HD
ATOM     20  H11 UNL     1       4.570  -5.975   5.187  1.00  0.00     0.277 HD
BRANCH  18  21
HETATM   21  C2  UNL     1       5.041  -6.450   7.120  1.00  0.00     0.228 C 
HETATM   22  C1  UNL     1       4.088  -6.752   8.302  1.00  0.00     0.034 C 
ENDBRANCH  18  21
ENDBRANCH  17  18
ENDBRANCH  14  17
ENDBRANCH   1  13
BRANCH   4  23
HETATM   23  N4  UNL     1       1.492  -0.952   5.169  1.00  0.00    -0.230 N 
HETATM   24  C7  UNL     1       1.483   0.423   4.715  1.00  0.00     0.165 C 
ATOM     25  H4  UNL     1       1.534  -1.177   6.163  1.00  0.00     0.177 HD
ENDBRANCH   4  23
BRANCH  11  26
HETATM   26  N6  UNL     1       1.353  -6.327   1.503  1.00  0.00    -0.375 N 
HETATM   27  C12 UNL     1       0.165  -7.077   1.751  1.00  0.00     0.149 C 
HETATM   28  C13 UNL     1       0.267  -8.341   0.872  1.00  0.00     0.187 C 
HETATM   29  O1  UNL     1       1.317  -9.060   1.379  1.00  0.00    -0.388 OA
HETATM   30  C14 UNL     1       2.535  -8.457   1.290  1.00  0.00     0.187 C 
HETATM   31  C15 UNL     1       2.614  -6.986   1.318  1.00  0.00     0.149 C 
ENDBRANCH  11  26
TORSDOF 6
ENDMDL
MODEL 4
REMARK VINA RESULT: -6.178437869      3.165      6.915
REMARK  6 active torsions:
REMARK  status: ('A' for Active; 'I' for Inactive)
REMARK    1  A    between atoms: C2_2  and  N1_3 
REMARK    2  A    between atoms: N1_3  and  C3_6 
REMARK    3  A    between atoms: C3_6  and  C4_7 
REMARK    4  A    between atoms: N2_9  and  C5_11 
REMARK    5  A    between atoms: C6_14  and  N4_15 
REMARK    6  A    between atoms: C11_24  and  N6_25 
ROOT
HETATM    1  C5  UNL     1       1.531  -3.793   3.144  1.00  0.00     0.137 A 
HETATM    2  N3  UNL     1       1.556  -2.603   3.762  1.00  0.00    -0.176 N 
ATOM      3  H3  UNL     1       1.446  -1.781   3.169  1.00  0.00     0.186 HD
HETATM    4  C6  UNL     1       1.708  -2.376   5.069  1.00  0.00     0.680 A 
HETATM    5  N5  UNL     1       1.851  -3.455   5.841  1.00  0.00    -0.184 N 
ATOM      6  H5  UNL     1       1.971  -3.346   6.847  1.00  0.00     0.185 HD
HETATM    7  C8  UNL     1       1.837  -4.703   5.293  1.00  0.00     0.107 A 
HETATM    8  S2  UNL     1       1.989  -6.256   5.989  1.00  0.00    -0.073 SA
HETATM    9  C9  UNL     1       1.855  -7.202   4.595  1.00  0.00     0.008 A 
HETATM   10  C10 UNL     1       1.894  -8.705   4.440  1.00  0.00     0.059 C 
HETATM   11  C11 UNL     1       1.690  -6.263   3.583  1.00  0.00     0.060 A 
HETATM   12  C16 UNL     1       1.683  -4.968   3.962  1.00  0.00     0.070 A 
ENDROOT
BRANCH   1  13
HETATM   13  N2  UNL     1       1.388  -3.937   1.917  1.00  0.00    -0.334 N 
HETATM   14  C4  UNL     1       0.735  -3.436   0.847  1.00  0.00     0.104 C 
HETATM   15  S1  UNL     1       0.713  -4.263  -0.624  1.00  0.00    -0.064 SA
ATOM     16  H2  UNL     1       1.976  -4.711   1.608  1.00  0.00     0.168 HD
BRANCH  14  17
HETATM   17  C3  UNL     1      -0.047  -2.183   0.821  1.00  0.00     0.301 C 
BRANCH  17  18
HETATM   18  N1  UNL     1      -1.354  -2.296   1.437  1.00  0.00    -0.070 N 
ATOM     19  H12 UNL     1      -1.519  -3.249   1.764  1.00  0.00     0.277 HD
ATOM     20  H11 UNL     1      -2.092  -2.228   0.736  1.00  0.00     0.277 HD
BRANCH  18  21
HETATM   21  C2  UNL     1      -1.571  -1.343   2.505  1.00  0.00     0.228 C 
HETATM   22  C1  UNL     1      -2.872  -0.559   2.201  1.00  0.00     0.034 C 
ENDBRANCH  18  21
ENDBRANCH  17  18
ENDBRANCH  14  17
ENDBRANCH   1  13
BRANCH   4  23
HETATM   23  N4  UNL     1       1.716  -1.175   5.544  1.00  0.00    -0.230 N 
HETATM   24  C7  UNL     1       1.493  -0.079   4.625  1.00  0.00     0.165 C 
ATOM     25  H4  UNL     1       1.875  -1.005   6.537  1.00  0.00     0.177 HD
ENDBRANCH   4  23
BRANCH  11  26
HETATM   26  N6  UNL     1       1.546  -6.756   2.199  1.00  0.00    -0.375 N 
HETATM   27  C12 UNL     1       2.692  -6.882   1.360  1.00  0.00     0.149 C 
HETATM   28  C13 UNL     1       2.512  -8.206   0.587  1.00  0.00     0.187 C 
HETATM   29  O1  UNL     1       1.427  -8.013  -0.227  1.00  0.00    -0.388 OA
HETATM   30  C14 UNL     1       0.244  -7.803   0.414  1.00  0.00     0.187 C 
HETATM   31  C15 UNL     1       0.248  -7.159   1.740  1.00  0.00     0.149 C 
ENDBRANCH  11  26
TORSDOF 6
ENDMDL
MODEL 5
REMARK VINA RESULT: -6.172433785      2.769      4.962
REMARK  6 active torsions:
REMARK  status: ('A' for Active; 'I' for Inactive)
REMARK    1  A    between atoms: C2_2  and  N1_3 
REMARK    2  A    between atoms: N1_3  and  C3_6 
REMARK    3  A    between atoms: C3_6  and  C4_7 
REMARK    4  A    between atoms: N2_9  and  C5_11 
REMARK    5  A    between atoms: C6_14  and  N4_15 
REMARK    6  A    between atoms: C11_24  and  N6_25 
ROOT
HETATM    1  C5  UNL     1       1.115  -5.206   4.420  1.00  0.00     0.137 A 
HETATM    2  N3  UNL     1       1.313  -4.867   5.703  1.00  0.00    -0.176 N 
ATOM      3  H3  UNL     1       1.034  -3.924   5.971  1.00  0.00     0.186 HD
HETATM    4  C6  UNL     1       1.835  -5.629   6.667  1.00  0.00     0.680 A 
HETATM    5  N5  UNL     1       2.199  -6.863   6.309  1.00  0.00    -0.184 N 
ATOM      6  H5  UNL     1       2.605  -7.491   7.002  1.00  0.00     0.185 HD
HETATM    7  C8  UNL     1       2.032  -7.288   5.025  1.00  0.00     0.107 A 
HETATM    8  S2  UNL     1       2.384  -8.775   4.261  1.00  0.00    -0.073 SA
HETATM    9  C9  UNL     1       1.856  -8.417   2.696  1.00  0.00     0.008 A 
HETATM   10  C10 UNL     1       1.854  -9.282   1.457  1.00  0.00     0.059 C 
HETATM   11  C11 UNL     1       1.402  -7.107   2.800  1.00  0.00     0.060 A 
HETATM   12  C16 UNL     1       1.501  -6.533   4.018  1.00  0.00     0.070 A 
ENDROOT
BRANCH   1  13
HETATM   13  N2  UNL     1       0.624  -4.445   3.567  1.00  0.00    -0.334 N 
HETATM   14  C4  UNL     1       0.669  -3.176   3.109  1.00  0.00     0.104 C 
HETATM   15  S1  UNL     1      -0.502  -2.596   2.042  1.00  0.00    -0.064 SA
ATOM     16  H2  UNL     1      -0.057  -4.968   3.016  1.00  0.00     0.168 HD
BRANCH  14  17
HETATM   17  C3  UNL     1       1.667  -2.157   3.487  1.00  0.00     0.301 C 
BRANCH  17  18
HETATM   18  N1  UNL     1       1.370  -1.480   4.735  1.00  0.00    -0.070 N 
ATOM     19  H12 UNL     1       1.992  -1.801   5.477  1.00  0.00     0.277 HD
ATOM     20  H11 UNL     1       0.477  -1.797   5.114  1.00  0.00     0.277 HD
BRANCH  18  21
HETATM   21  C2  UNL     1       1.400  -0.037   4.628  1.00  0.00     0.228 C 
HETATM   22  C1  UNL     1       2.035   0.338   3.266  1.00  0.00     0.034 C 
ENDBRANCH  18  21
ENDBRANCH  17  18
ENDBRANCH  14  17
ENDBRANCH   1  13
BRANCH   4  23
HETATM   23  N4  UNL     1       1.976  -5.184   7.870  1.00  0.00    -0.230 N 
HETATM   24  C7  UNL     1       3.252  -5.384   8.524  1.00  0.00     0.165 C 
ATOM     25  H4  UNL     1       1.211  -4.706   8.346  1.00  0.00     0.177 HD
ENDBRANCH   4  23
BRANCH  11  26
HETATM   26  N6  UNL     1       0.866  -6.462   1.586  1.00  0.00    -0.375 N 
HETATM   27  C12 UNL     1       1.733  -5.733   0.719  1.00  0.00     0.149 C 
HETATM   28  C13 UNL     1       1.298  -6.091  -0.718  1.00  0.00     0.187 C 
HETATM   29  O1  UNL     1       0.040  -5.570  -0.864  1.00  0.00    -0.388 OA
HETATM   30  C14 UNL     1      -0.913  -6.106  -0.053  1.00  0.00     0.187 C 
HETATM   31  C15 UNL     1      -0.522  -6.633   1.266  1.00  0.00     0.149 C 
ENDBRANCH  11  26
TORSDOF 6
ENDMDL
