MODEL 1
REMARK VINA RESULT: -6.740207455      0.000      0.000
REMARK  10 active torsions:
REMARK  status: ('A' for Active; 'I' for Inactive)
REMARK    1  A    between atoms: C3_3  and  O1_4 
REMARK    2  A    between atoms: O1_4  and  C4_5 
REMARK    3  A    between atoms: C5_6  and  O2_7 
REMARK    4  A    between atoms: C7_10  and  N1_11 
REMARK    5  A    between atoms: C9_13  and  C10_14 
REMARK    6  A    between atoms: C10_14  and  C11_15 
REMARK    7  A    between atoms: C11_15  and  C12_16 
REMARK    8  A    between atoms: C12_16  and  C13_17 
REMARK    9  A    between atoms: C13_17  and  C14_18 
REMARK   10  A    between atoms: C18_26  and  O3_27 
ROOT
HETATM    1  C1  UNL     1       6.678  -2.590   7.447  1.00  0.00     0.014 C 
HETATM    2  C2  UNL     1       6.317  -3.358   6.594  1.00  0.00    -0.091 C 
HETATM    3  C3  UNL     1       5.893  -4.305   5.576  1.00  0.00     0.261 C 
ENDROOT
BRANCH   3   4
HETATM    4  O1  UNL     1       5.540  -3.726   4.369  1.00  0.00    -0.369 OA
BRANCH   4   5
HETATM    5  C4  UNL     1       6.110  -4.359   3.262  1.00  0.00     0.185 C 
HETATM    6  C5  UNL     1       7.200  -3.691   2.658  1.00  0.00     0.152 C 
HETATM    7  C6  UNL     1       8.202  -3.130   1.854  1.00  0.00     0.065 C 
HETATM    8  C7  UNL     1       7.631  -2.952   0.418  1.00  0.00     0.132 C 
HETATM    9  C16 UNL     1       6.241  -3.329   0.190  1.00  0.00     0.025 C 
HETATM   10  C17 UNL     1       5.431  -4.366   0.773  1.00  0.00     0.053 C 
HETATM   11  N4  UNL     1       5.730  -5.716   0.228  1.00  0.00    -0.104 NA
HETATM   12  C18 UNL     1       4.972  -4.434   2.194  1.00  0.00     0.196 C 
BRANCH   6  13
HETATM   13  O2  UNL     1       6.372  -2.537   2.491  1.00  0.00    -0.393 OA
ATOM     14  H2  UNL     1       7.014  -2.025   2.968  1.00  0.00     0.210 HD
ENDBRANCH   6  13
BRANCH   8  15
HETATM   15  N1  UNL     1       7.851  -1.593  -0.038  1.00  0.00    -0.277 N 
HETATM   16  C8  UNL     1       7.982  -1.171  -1.298  1.00  0.00     0.134 A 
HETATM   17  C9  UNL     1       8.172   0.186  -1.223  1.00  0.00     0.040 A 
HETATM   18  N2  UNL     1       8.154   0.576   0.051  1.00  0.00    -0.287 N 
HETATM   19  N3  UNL     1       7.954  -0.537   0.773  1.00  0.00    -0.020 NA
ATOM     20  H2  UNL     1       8.269   1.526   0.404  1.00  0.00     0.184 HD
BRANCH  17  21
HETATM   21  C10 UNL     1       8.366   1.056  -2.457  1.00  0.00     0.059 C 
BRANCH  21  22
HETATM   22  C11 UNL     1       7.017   1.520  -2.892  1.00  0.00     0.006 C 
BRANCH  22  23
HETATM   23  C12 UNL     1       6.638   1.488  -4.300  1.00  0.00     0.000 C 
BRANCH  23  24
HETATM   24  C13 UNL     1       5.697   0.517  -4.863  1.00  0.00    -0.000 C 
BRANCH  24  25
HETATM   25  C14 UNL     1       5.535  -0.754  -4.129  1.00  0.00    -0.005 C 
HETATM   26  C15 UNL     1       5.914  -1.874  -5.163  1.00  0.00     0.005 C 
ENDBRANCH  24  25
ENDBRANCH  23  24
ENDBRANCH  22  23
ENDBRANCH  21  22
ENDBRANCH  17  21
ENDBRANCH   8  15
BRANCH  12  27
HETATM   27  O3  UNL     1       4.065  -3.394   2.457  1.00  0.00    -0.387 OA
ATOM     28  H3  UNL     1       3.300  -3.772   2.873  1.00  0.00     0.210 HD
ENDBRANCH  12  27
ENDBRANCH   4   5
ENDBRANCH   3   4
TORSDOF 10
ENDMDL
MODEL 2
REMARK VINA RESULT: -6.739626862      4.638      7.083
REMARK  10 active torsions:
REMARK  status: ('A' for Active; 'I' for Inactive)
REMARK    1  A    between atoms: C3_3  and  O1_4 
REMARK    2  A    between atoms: O1_4  and  C4_5 
REMARK    3  A    between atoms: C5_6  and  O2_7 
REMARK    4  A    between atoms: C7_10  and  N1_11 
REMARK    5  A    between atoms: C9_13  and  C10_14 
REMARK    6  A    between atoms: C10_14  and  C11_15 
REMARK    7  A    between atoms: C11_15  and  C12_16 
REMARK    8  A    between atoms: C12_16  and  C13_17 
REMARK    9  A    between atoms: C13_17  and  C14_18 
REMARK   10  A    between atoms: C18_26  and  O3_27 
ROOT
HETATM    1  C1  UNL     1       5.895  -1.792  -5.368  1.00  0.00     0.014 C 
HETATM    2  C2  UNL     1       5.892  -1.476  -4.206  1.00  0.00    -0.091 C 
HETATM    3  C3  UNL     1       5.865  -1.105  -2.801  1.00  0.00     0.261 C 
ENDROOT
BRANCH   3   4
HETATM    4  O1  UNL     1       6.776  -0.123  -2.452  1.00  0.00    -0.369 OA
BRANCH   4   5
HETATM    5  C4  UNL     1       7.757  -0.565  -1.562  1.00  0.00     0.185 C 
HETATM    6  C5  UNL     1       7.752   0.038  -0.283  1.00  0.00     0.152 C 
HETATM    7  C6  UNL     1       7.985   0.598   0.981  1.00  0.00     0.065 C 
HETATM    8  C7  UNL     1       9.421   1.197   0.989  1.00  0.00     0.132 C 
HETATM    9  C16 UNL     1      10.196   1.116  -0.244  1.00  0.00     0.025 C 
HETATM   10  C17 UNL     1      10.229   0.119  -1.281  1.00  0.00     0.053 C 
HETATM   11  N4  UNL     1      10.992  -1.096  -0.899  1.00  0.00    -0.104 NA
HETATM   12  C18 UNL     1       9.120  -0.201  -2.232  1.00  0.00     0.196 C 
BRANCH   6  13
HETATM   13  O2  UNL     1       7.861   1.318  -0.909  1.00  0.00    -0.393 OA
ATOM     14  H2  UNL     1       7.998   1.709  -0.054  1.00  0.00     0.210 HD
ENDBRANCH   6  13
BRANCH   8  15
HETATM   15  N1  UNL     1       9.383   2.569   1.455  1.00  0.00    -0.277 N 
HETATM   16  C8  UNL     1       9.896   3.646   0.854  1.00  0.00     0.134 A 
HETATM   17  C9  UNL     1       9.609   4.708   1.674  1.00  0.00     0.040 A 
HETATM   18  N2  UNL     1       8.937   4.285   2.744  1.00  0.00    -0.287 N 
HETATM   19  N3  UNL     1       8.805   2.959   2.594  1.00  0.00    -0.020 NA
ATOM     20  H2  UNL     1       8.594   4.854   3.518  1.00  0.00     0.184 HD
BRANCH  17  21
HETATM   21  C10 UNL     1      10.027   6.134   1.344  1.00  0.00     0.059 C 
BRANCH  21  22
HETATM   22  C11 UNL     1       8.834   6.829   0.779  1.00  0.00     0.006 C 
BRANCH  22  23
HETATM   23  C12 UNL     1       8.787   7.196  -0.631  1.00  0.00     0.000 C 
BRANCH  23  24
HETATM   24  C13 UNL     1       8.890   6.226  -1.724  1.00  0.00    -0.000 C 
BRANCH  24  25
HETATM   25  C14 UNL     1       8.213   6.575  -2.989  1.00  0.00    -0.005 C 
HETATM   26  C15 UNL     1       6.889   5.731  -2.990  1.00  0.00     0.005 C 
ENDBRANCH  24  25
ENDBRANCH  23  24
ENDBRANCH  22  23
ENDBRANCH  21  22
ENDBRANCH  17  21
ENDBRANCH   8  15
BRANCH  12  27
HETATM   27  O3  UNL     1       8.901   0.884  -3.097  1.00  0.00    -0.387 OA
ATOM     28  H3  UNL     1       9.012   1.684  -2.598  1.00  0.00     0.210 HD
ENDBRANCH  12  27
ENDBRANCH   4   5
ENDBRANCH   3   4
TORSDOF 10
ENDMDL
MODEL 3
REMARK VINA RESULT: -6.630943333      5.548      8.372
REMARK  10 active torsions:
REMARK  status: ('A' for Active; 'I' for Inactive)
REMARK    1  A    between atoms: C3_3  and  O1_4 
REMARK    2  A    between atoms: O1_4  and  C4_5 
REMARK    3  A    between atoms: C5_6  and  O2_7 
REMARK    4  A    between atoms: C7_10  and  N1_11 
REMARK    5  A    between atoms: C9_13  and  C10_14 
REMARK    6  A    between atoms: C10_14  and  C11_15 
REMARK    7  A    between atoms: C11_15  and  C12_16 
REMARK    8  A    between atoms: C12_16  and  C13_17 
REMARK    9  A    between atoms: C13_17  and  C14_18 
REMARK   10  A    between atoms: C18_26  and  O3_27 
ROOT
HETATM    1  C1  UNL     1       5.918  -1.798  -5.757  1.00  0.00     0.014 C 
HETATM    2  C2  UNL     1       5.789  -1.473  -4.605  1.00  0.00    -0.091 C 
HETATM    3  C3  UNL     1       5.609  -1.090  -3.214  1.00  0.00     0.261 C 
ENDROOT
BRANCH   3   4
HETATM    4  O1  UNL     1       6.546  -0.185  -2.746  1.00  0.00    -0.369 OA
BRANCH   4   5
HETATM    5  C4  UNL     1       7.460  -0.746  -1.850  1.00  0.00     0.185 C 
HETATM    6  C5  UNL     1       7.403  -0.265  -0.522  1.00  0.00     0.152 C 
HETATM    7  C6  UNL     1       7.583   0.166   0.800  1.00  0.00     0.065 C 
HETATM    8  C7  UNL     1       9.035   0.706   0.941  1.00  0.00     0.132 C 
HETATM    9  C16 UNL     1       9.875   0.710  -0.250  1.00  0.00     0.025 C 
HETATM   10  C17 UNL     1       9.933  -0.187  -1.374  1.00  0.00     0.053 C 
HETATM   11  N4  UNL     1      10.633  -1.461  -1.068  1.00  0.00    -0.104 NA
HETATM   12  C18 UNL     1       8.871  -0.374  -2.409  1.00  0.00     0.196 C 
BRANCH   6  13
HETATM   13  O2  UNL     1       7.590   1.063  -1.017  1.00  0.00    -0.393 OA
ATOM     14  H2  UNL     1       8.337   0.757  -1.517  1.00  0.00     0.210 HD
ENDBRANCH   6  13
BRANCH   8  15
HETATM   15  N1  UNL     1       9.017   2.029   1.532  1.00  0.00    -0.277 N 
HETATM   16  C8  UNL     1       8.694   2.354   2.787  1.00  0.00     0.134 A 
HETATM   17  C9  UNL     1       8.827   3.718   2.870  1.00  0.00     0.040 A 
HETATM   18  N2  UNL     1       9.221   4.206   1.694  1.00  0.00    -0.287 N 
HETATM   19  N3  UNL     1       9.334   3.149   0.877  1.00  0.00    -0.020 NA
ATOM     20  H2  UNL     1       9.399   5.184   1.464  1.00  0.00     0.184 HD
BRANCH  17  21
HETATM   21  C10 UNL     1       8.549   4.492   4.151  1.00  0.00     0.059 C 
BRANCH  21  22
HETATM   22  C11 UNL     1       8.820   5.931   3.869  1.00  0.00     0.006 C 
BRANCH  22  23
HETATM   23  C12 UNL     1       8.416   6.962   4.818  1.00  0.00     0.000 C 
BRANCH  23  24
HETATM   24  C13 UNL     1       7.916   8.280   4.418  1.00  0.00    -0.000 C 
BRANCH  24  25
HETATM   25  C14 UNL     1       6.885   8.889   5.281  1.00  0.00    -0.005 C 
HETATM   26  C15 UNL     1       6.921  10.422   4.942  1.00  0.00     0.005 C 
ENDBRANCH  24  25
ENDBRANCH  23  24
ENDBRANCH  22  23
ENDBRANCH  21  22
ENDBRANCH  17  21
ENDBRANCH   8  15
BRANCH  12  27
HETATM   27  O3  UNL     1       8.737   0.794  -3.178  1.00  0.00    -0.387 OA
ATOM     28  H3  UNL     1       8.570   0.535  -4.076  1.00  0.00     0.210 HD
ENDBRANCH  12  27
ENDBRANCH   4   5
ENDBRANCH   3   4
TORSDOF 10
ENDMDL
MODEL 4
REMARK VINA RESULT: -6.578241863      4.848      7.823
REMARK  10 active torsions:
REMARK  status: ('A' for Active; 'I' for Inactive)
REMARK    1  A    between atoms: C3_3  and  O1_4 
REMARK    2  A    between atoms: O1_4  and  C4_5 
REMARK    3  A    between atoms: C5_6  and  O2_7 
REMARK    4  A    between atoms: C7_10  and  N1_11 
REMARK    5  A    between atoms: C9_13  and  C10_14 
REMARK    6  A    between atoms: C10_14  and  C11_15 
REMARK    7  A    between atoms: C11_15  and  C12_16 
REMARK    8  A    between atoms: C12_16  and  C13_17 
REMARK    9  A    between atoms: C13_17  and  C14_18 
REMARK   10  A    between atoms: C18_26  and  O3_27 
ROOT
HETATM    1  C1  UNL     1       5.924  -1.782  -5.815  1.00  0.00     0.014 C 
HETATM    2  C2  UNL     1       5.759  -1.465  -4.666  1.00  0.00    -0.091 C 
HETATM    3  C3  UNL     1       5.534  -1.090  -3.279  1.00  0.00     0.261 C 
ENDROOT
BRANCH   3   4
HETATM    4  O1  UNL     1       6.467  -0.205  -2.769  1.00  0.00    -0.369 OA
BRANCH   4   5
HETATM    5  C4  UNL     1       7.373  -0.800  -1.887  1.00  0.00     0.185 C 
HETATM    6  C5  UNL     1       7.318  -0.355  -0.547  1.00  0.00     0.152 C 
HETATM    7  C6  UNL     1       7.500   0.037   0.787  1.00  0.00     0.065 C 
HETATM    8  C7  UNL     1       8.957   0.557   0.946  1.00  0.00     0.132 C 
HETATM    9  C16 UNL     1       9.800   0.585  -0.243  1.00  0.00     0.025 C 
HETATM   10  C17 UNL     1       9.851  -0.281  -1.391  1.00  0.00     0.053 C 
HETATM   11  N4  UNL     1      10.536  -1.571  -1.119  1.00  0.00    -0.104 NA
HETATM   12  C18 UNL     1       8.789  -0.429  -2.433  1.00  0.00     0.196 C 
BRANCH   6  13
HETATM   13  O2  UNL     1       7.520   0.984  -1.004  1.00  0.00    -0.393 OA
ATOM     14  H2  UNL     1       7.746   1.238  -0.118  1.00  0.00     0.210 HD
ENDBRANCH   6  13
BRANCH   8  15
HETATM   15  N1  UNL     1       8.952   1.864   1.574  1.00  0.00    -0.277 N 
HETATM   16  C8  UNL     1       8.587   2.164   2.823  1.00  0.00     0.134 A 
HETATM   17  C9  UNL     1       8.755   3.520   2.950  1.00  0.00     0.040 A 
HETATM   18  N2  UNL     1       9.212   4.029   1.806  1.00  0.00    -0.287 N 
HETATM   19  N3  UNL     1       9.328   2.991   0.964  1.00  0.00    -0.020 NA
ATOM     20  H2  UNL     1       9.427   5.006   1.611  1.00  0.00     0.184 HD
BRANCH  17  21
HETATM   21  C10 UNL     1       8.446   4.267   4.239  1.00  0.00     0.059 C 
BRANCH  21  22
HETATM   22  C11 UNL     1       9.461   5.350   4.382  1.00  0.00     0.006 C 
BRANCH  22  23
HETATM   23  C12 UNL     1       9.054   6.750   4.408  1.00  0.00     0.000 C 
BRANCH  23  24
HETATM   24  C13 UNL     1       8.799   7.542   3.202  1.00  0.00    -0.000 C 
BRANCH  24  25
HETATM   25  C14 UNL     1       9.862   7.553   2.178  1.00  0.00    -0.005 C 
HETATM   26  C15 UNL     1       9.140   7.178   0.835  1.00  0.00     0.005 C 
ENDBRANCH  24  25
ENDBRANCH  23  24
ENDBRANCH  22  23
ENDBRANCH  21  22
ENDBRANCH  17  21
ENDBRANCH   8  15
BRANCH  12  27
HETATM   27  O3  UNL     1       8.670   0.761  -3.170  1.00  0.00    -0.387 OA
ATOM     28  H3  UNL     1       8.873   0.565  -4.076  1.00  0.00     0.210 HD
ENDBRANCH  12  27
ENDBRANCH   4   5
ENDBRANCH   3   4
TORSDOF 10
ENDMDL
MODEL 5
REMARK VINA RESULT: -6.474514984      4.103      7.302
REMARK  10 active torsions:
REMARK  status: ('A' for Active; 'I' for Inactive)
REMARK    1  A    between atoms: C3_3  and  O1_4 
REMARK    2  A    between atoms: O1_4  and  C4_5 
REMARK    3  A    between atoms: C5_6  and  O2_7 
REMARK    4  A    between atoms: C7_10  and  N1_11 
REMARK    5  A    between atoms: C9_13  and  C10_14 
REMARK    6  A    between atoms: C10_14  and  C11_15 
REMARK    7  A    between atoms: C11_15  and  C12_16 
REMARK    8  A    between atoms: C12_16  and  C13_17 
REMARK    9  A    between atoms: C13_17  and  C14_18 
REMARK   10  A    between atoms: C18_26  and  O3_27 
ROOT
HETATM    1  C1  UNL     1       5.557   0.780  -5.080  1.00  0.00     0.014 C 
HETATM    2  C2  UNL     1       5.765  -0.387  -4.873  1.00  0.00    -0.091 C 
HETATM    3  C3  UNL     1       5.990  -1.802  -4.627  1.00  0.00     0.261 C 
ENDROOT
BRANCH   3   4
HETATM    4  O1  UNL     1       7.177  -2.086  -3.975  1.00  0.00    -0.369 OA
BRANCH   4   5
HETATM    5  C4  UNL     1       7.027  -2.260  -2.597  1.00  0.00     0.185 C 
HETATM    6  C5  UNL     1       6.823  -1.083  -1.842  1.00  0.00     0.152 C 
HETATM    7  C6  UNL     1       6.735  -0.034  -0.916  1.00  0.00     0.065 C 
HETATM    8  C7  UNL     1       7.958  -0.127   0.041  1.00  0.00     0.132 C 
HETATM    9  C16 UNL     1       8.932  -1.184  -0.205  1.00  0.00     0.025 C 
HETATM   10  C17 UNL     1       8.775  -2.519  -0.717  1.00  0.00     0.053 C 
HETATM   11  N4  UNL     1       8.223  -3.468   0.284  1.00  0.00    -0.104 NA
HETATM   12  C18 UNL     1       8.372  -2.888  -2.109  1.00  0.00     0.196 C 
BRANCH   6  13
HETATM   13  O2  UNL     1       8.036  -0.552  -2.380  1.00  0.00    -0.393 OA
ATOM     14  H2  UNL     1       8.503  -1.300  -2.028  1.00  0.00     0.210 HD
ENDBRANCH   6  13
BRANCH   8  15
HETATM   15  N1  UNL     1       8.632   1.154   0.110  1.00  0.00    -0.277 N 
HETATM   16  C8  UNL     1       9.270   1.681   1.158  1.00  0.00     0.134 A 
HETATM   17  C9  UNL     1       9.741   2.900   0.740  1.00  0.00     0.040 A 
HETATM   18  N2  UNL     1       9.397   3.106  -0.531  1.00  0.00    -0.287 N 
HETATM   19  N3  UNL     1       8.711   2.017  -0.907  1.00  0.00    -0.020 NA
ATOM     20  H2  UNL     1       9.611   3.925  -1.100  1.00  0.00     0.184 HD
BRANCH  17  21
HETATM   21  C10 UNL     1      10.534   3.829   1.649  1.00  0.00     0.059 C 
BRANCH  21  22
HETATM   22  C11 UNL     1       9.714   5.056   1.857  1.00  0.00     0.006 C 
BRANCH  22  23
HETATM   23  C12 UNL     1       8.992   5.265   3.107  1.00  0.00     0.000 C 
BRANCH  23  24
HETATM   24  C13 UNL     1       8.474   4.172   3.934  1.00  0.00    -0.000 C 
BRANCH  24  25
HETATM   25  C14 UNL     1       8.705   4.273   5.389  1.00  0.00    -0.005 C 
HETATM   26  C15 UNL     1       9.326   2.891   5.801  1.00  0.00     0.005 C 
ENDBRANCH  24  25
ENDBRANCH  23  24
ENDBRANCH  22  23
ENDBRANCH  21  22
ENDBRANCH  17  21
ENDBRANCH   8  15
BRANCH  12  27
HETATM   27  O3  UNL     1       9.377  -2.515  -3.016  1.00  0.00    -0.387 OA
ATOM     28  H3  UNL     1       9.762  -3.309  -3.369  1.00  0.00     0.210 HD
ENDBRANCH  12  27
ENDBRANCH   4   5
ENDBRANCH   3   4
TORSDOF 10
ENDMDL
