MODEL 1
REMARK VINA RESULT: -6.031955575      0.000      0.000
REMARK  10 active torsions:
REMARK  status: ('A' for Active; 'I' for Inactive)
REMARK    1  A    between atoms: N1_2  and  C2_4 
REMARK    2  A    between atoms: C3_5  and  C4_6 
REMARK    3  A    between atoms: C4_6  and  O1_7 
REMARK    4  A    between atoms: C5_10  and  O3_11 
REMARK    5  A    between atoms: C7_13  and  C8_14 
REMARK    6  A    between atoms: C8_14  and  C9_15 
REMARK    7  A    between atoms: C9_15  and  C10_16 
REMARK    8  A    between atoms: C10_16  and  C11_17 
REMARK    9  A    between atoms: C14_20  and  C15_21 
REMARK   10  A    between atoms: C17_25  and  O6_26 
ROOT
HETATM    1  C2  UNL     1       8.211  -0.898   0.068  1.00  0.00     0.136 C 
HETATM    2  C3  UNL     1       8.602  -1.054  -1.358  1.00  0.00     0.172 C 
HETATM    3  O2  UNL     1       7.601  -0.929  -2.276  1.00  0.00    -0.351 OA
HETATM    4  C5  UNL     1       6.485  -1.723  -2.068  1.00  0.00     0.266 C 
HETATM    5  C7  UNL     1       5.953  -1.675  -0.680  1.00  0.00     0.072 C 
HETATM    6  C17 UNL     1       6.701  -0.625   0.101  1.00  0.00     0.151 C 
ENDROOT
BRANCH   5   7
HETATM    7  C8  UNL     1       6.025  -2.979   0.067  1.00  0.00     0.012 C 
BRANCH   7   8
HETATM    8  C9  UNL     1       4.701  -3.448   0.580  1.00  0.00     0.003 C 
BRANCH   8   9
HETATM    9  C10 UNL     1       4.950  -4.353   1.772  1.00  0.00     0.032 C 
BRANCH   9  10
HETATM   10  C11 UNL     1       4.767  -3.589   3.077  1.00  0.00     0.122 C 
HETATM   11  C12 UNL     1       5.132  -4.476   4.208  1.00  0.00     0.035 C 
HETATM   12  C13 UNL     1       6.272  -3.771   4.882  1.00  0.00     0.042 C 
HETATM   13  C14 UNL     1       6.706  -2.784   3.825  1.00  0.00     0.191 C 
HETATM   14  O5  UNL     1       5.562  -2.454   3.110  1.00  0.00    -0.373 OA
BRANCH  13  15
HETATM   15  C15 UNL     1       7.309  -1.612   4.517  1.00  0.00     0.151 C 
HETATM   16  C16 UNL     1       7.145  -1.353   5.978  1.00  0.00     0.093 C 
HETATM   17  O4  UNL     1       7.961  -0.842   3.833  1.00  0.00    -0.296 OA
ENDBRANCH  13  15
ENDBRANCH   9  10
ENDBRANCH   8   9
ENDBRANCH   7   8
ENDBRANCH   5   7
BRANCH   4  18
HETATM   18  O3  UNL     1       5.495  -1.191  -2.929  1.00  0.00    -0.366 OA
HETATM   19  C6  UNL     1       5.783  -1.432  -4.259  1.00  0.00     0.204 C 
ENDBRANCH   4  18
BRANCH   6  20
HETATM   20  O6  UNL     1       6.243  -0.482   1.392  1.00  0.00    -0.393 OA
ATOM     21  H6  UNL     1       5.326  -0.716   1.463  1.00  0.00     0.210 HD
ENDBRANCH   6  20
BRANCH   1  22
HETATM   22  N1  UNL     1       8.824   0.226   0.727  1.00  0.00    -0.417 N 
HETATM   23  C1  UNL     1       8.914   1.413  -0.039  1.00  0.00     0.140 C 
ATOM     24  H1  UNL     1       9.172   0.170   1.685  1.00  0.00     0.153 HD
ENDBRANCH   1  22
BRANCH   2  25
HETATM   25  C4  UNL     1       9.420  -2.328  -1.603  1.00  0.00     0.198 C 
BRANCH  25  26
HETATM   26  O1  UNL     1       9.712  -2.476  -2.951  1.00  0.00    -0.398 OA
ATOM     27  H1  UNL     1      10.643  -2.374  -3.109  1.00  0.00     0.209 HD
ENDBRANCH  25  26
ENDBRANCH   2  25
TORSDOF 10
ENDMDL
MODEL 2
REMARK VINA RESULT: -5.981411386      3.208      5.156
REMARK  10 active torsions:
REMARK  status: ('A' for Active; 'I' for Inactive)
REMARK    1  A    between atoms: N1_2  and  C2_4 
REMARK    2  A    between atoms: C3_5  and  C4_6 
REMARK    3  A    between atoms: C4_6  and  O1_7 
REMARK    4  A    between atoms: C5_10  and  O3_11 
REMARK    5  A    between atoms: C7_13  and  C8_14 
REMARK    6  A    between atoms: C8_14  and  C9_15 
REMARK    7  A    between atoms: C9_15  and  C10_16 
REMARK    8  A    between atoms: C10_16  and  C11_17 
REMARK    9  A    between atoms: C14_20  and  C15_21 
REMARK   10  A    between atoms: C17_25  and  O6_26 
ROOT
HETATM    1  C2  UNL     1       7.242  -0.591  -2.780  1.00  0.00     0.136 C 
HETATM    2  C3  UNL     1       6.971  -1.953  -2.249  1.00  0.00     0.172 C 
HETATM    3  O2  UNL     1       6.434  -2.018  -0.997  1.00  0.00    -0.351 OA
HETATM    4  C5  UNL     1       7.112  -1.320  -0.011  1.00  0.00     0.266 C 
HETATM    5  C7  UNL     1       7.456   0.078  -0.379  1.00  0.00     0.072 C 
HETATM    6  C17 UNL     1       6.816   0.414  -1.702  1.00  0.00     0.151 C 
ENDROOT
BRANCH   5   7
HETATM    7  C8  UNL     1       8.931   0.362  -0.468  1.00  0.00     0.012 C 
BRANCH   7   8
HETATM    8  C9  UNL     1       9.575   0.600   0.861  1.00  0.00     0.003 C 
BRANCH   8   9
HETATM    9  C10 UNL     1       9.182   1.986   1.335  1.00  0.00     0.032 C 
BRANCH   9  10
HETATM   10  C11 UNL     1       8.408   1.910   2.645  1.00  0.00     0.122 C 
HETATM   11  C12 UNL     1       9.217   1.160   3.637  1.00  0.00     0.035 C 
HETATM   12  C13 UNL     1       9.442   2.140   4.751  1.00  0.00     0.042 C 
HETATM   13  C14 UNL     1       9.104   3.456   4.091  1.00  0.00     0.191 C 
HETATM   14  O5  UNL     1       8.133   3.174   3.139  1.00  0.00    -0.373 OA
BRANCH  13  15
HETATM   15  C15 UNL     1       8.621   4.385   5.149  1.00  0.00     0.151 C 
HETATM   16  C16 UNL     1       8.790   5.866   5.074  1.00  0.00     0.093 C 
HETATM   17  O4  UNL     1       8.067   3.885   6.112  1.00  0.00    -0.296 OA
ENDBRANCH  13  15
ENDBRANCH   9  10
ENDBRANCH   8   9
ENDBRANCH   7   8
ENDBRANCH   5   7
BRANCH   4  18
HETATM   18  O3  UNL     1       6.215  -1.272   1.082  1.00  0.00    -0.366 OA
HETATM   19  C6  UNL     1       6.858  -1.467   2.289  1.00  0.00     0.204 C 
ENDBRANCH   4  18
BRANCH   6  20
HETATM   20  O6  UNL     1       7.047   1.711  -2.102  1.00  0.00    -0.393 OA
ATOM     21  H6  UNL     1       6.413   1.993  -2.749  1.00  0.00     0.210 HD
ENDBRANCH   6  20
BRANCH   1  22
HETATM   22  N1  UNL     1       6.477  -0.252  -3.953  1.00  0.00    -0.417 N 
HETATM   23  C1  UNL     1       5.476  -1.183  -4.323  1.00  0.00     0.140 C 
ATOM     24  H1  UNL     1       6.645   0.603  -4.482  1.00  0.00     0.153 HD
ENDBRANCH   1  22
BRANCH   2  25
HETATM   25  C4  UNL     1       8.183  -2.883  -2.379  1.00  0.00     0.198 C 
BRANCH  25  26
HETATM   26  O1  UNL     1       9.249  -2.225  -2.975  1.00  0.00    -0.398 OA
ATOM     27  H1  UNL     1       9.728  -2.809  -3.550  1.00  0.00     0.209 HD
ENDBRANCH  25  26
ENDBRANCH   2  25
TORSDOF 10
ENDMDL
MODEL 3
REMARK VINA RESULT: -5.964248986      2.115      6.546
REMARK  10 active torsions:
REMARK  status: ('A' for Active; 'I' for Inactive)
REMARK    1  A    between atoms: N1_2  and  C2_4 
REMARK    2  A    between atoms: C3_5  and  C4_6 
REMARK    3  A    between atoms: C4_6  and  O1_7 
REMARK    4  A    between atoms: C5_10  and  O3_11 
REMARK    5  A    between atoms: C7_13  and  C8_14 
REMARK    6  A    between atoms: C8_14  and  C9_15 
REMARK    7  A    between atoms: C9_15  and  C10_16 
REMARK    8  A    between atoms: C10_16  and  C11_17 
REMARK    9  A    between atoms: C14_20  and  C15_21 
REMARK   10  A    between atoms: C17_25  and  O6_26 
ROOT
HETATM    1  C2  UNL     1       6.870  -1.441   1.630  1.00  0.00     0.136 C 
HETATM    2  C3  UNL     1       6.712  -2.428   0.529  1.00  0.00     0.172 C 
HETATM    3  O2  UNL     1       7.854  -3.026   0.085  1.00  0.00    -0.351 OA
HETATM    4  C5  UNL     1       8.884  -2.173  -0.275  1.00  0.00     0.266 C 
HETATM    5  C7  UNL     1       9.183  -1.119   0.731  1.00  0.00     0.072 C 
HETATM    6  C17 UNL     1       8.365  -1.372   1.971  1.00  0.00     0.151 C 
ENDROOT
BRANCH   5   7
HETATM    7  C8  UNL     1       8.932   0.288   0.262  1.00  0.00     0.012 C 
BRANCH   7   8
HETATM    8  C9  UNL     1      10.020   0.833  -0.608  1.00  0.00     0.003 C 
BRANCH   8   9
HETATM    9  C10 UNL     1       9.475   0.970  -2.017  1.00  0.00     0.032 C 
BRANCH   9  10
HETATM   10  C11 UNL     1       7.965   1.166  -1.995  1.00  0.00     0.122 C 
HETATM   11  C12 UNL     1       7.643   2.479  -2.606  1.00  0.00     0.035 C 
HETATM   12  C13 UNL     1       6.780   2.140  -3.786  1.00  0.00     0.042 C 
HETATM   13  C14 UNL     1       7.052   0.665  -3.965  1.00  0.00     0.191 C 
HETATM   14  O5  UNL     1       7.318   0.163  -2.698  1.00  0.00    -0.373 OA
BRANCH  13  15
HETATM   15  C15 UNL     1       5.845   0.052  -4.585  1.00  0.00     0.151 C 
HETATM   16  C16 UNL     1       5.437  -1.364  -4.350  1.00  0.00     0.093 C 
HETATM   17  O4  UNL     1       5.179   0.763  -5.317  1.00  0.00    -0.296 OA
ENDBRANCH  13  15
ENDBRANCH   9  10
ENDBRANCH   8   9
ENDBRANCH   7   8
ENDBRANCH   5   7
BRANCH   4  18
HETATM   18  O3  UNL     1      10.024  -3.004  -0.382  1.00  0.00    -0.366 OA
HETATM   19  C6  UNL     1      10.692  -2.816  -1.577  1.00  0.00     0.204 C 
ENDBRANCH   4  18
BRANCH   6  20
HETATM   20  O6  UNL     1       8.611  -0.465   2.977  1.00  0.00    -0.393 OA
ATOM     21  H6  UNL     1       9.465  -0.603   3.368  1.00  0.00     0.210 HD
ENDBRANCH   6  20
BRANCH   1  22
HETATM   22  N1  UNL     1       6.208  -1.812   2.854  1.00  0.00    -0.417 N 
HETATM   23  C1  UNL     1       5.715  -3.138   2.908  1.00  0.00     0.140 C 
ATOM     24  H1  UNL     1       6.101  -1.161   3.632  1.00  0.00     0.153 HD
ENDBRANCH   1  22
BRANCH   2  25
HETATM   25  C4  UNL     1       5.888  -1.872  -0.640  1.00  0.00     0.198 C 
BRANCH  25  26
HETATM   26  O1  UNL     1       5.530  -0.553  -0.408  1.00  0.00    -0.398 OA
ATOM     27  H1  UNL     1       5.592  -0.343   0.516  1.00  0.00     0.209 HD
ENDBRANCH  25  26
ENDBRANCH   2  25
TORSDOF 10
ENDMDL
MODEL 4
REMARK VINA RESULT: -5.944483878      3.760      6.680
REMARK  10 active torsions:
REMARK  status: ('A' for Active; 'I' for Inactive)
REMARK    1  A    between atoms: N1_2  and  C2_4 
REMARK    2  A    between atoms: C3_5  and  C4_6 
REMARK    3  A    between atoms: C4_6  and  O1_7 
REMARK    4  A    between atoms: C5_10  and  O3_11 
REMARK    5  A    between atoms: C7_13  and  C8_14 
REMARK    6  A    between atoms: C8_14  and  C9_15 
REMARK    7  A    between atoms: C9_15  and  C10_16 
REMARK    8  A    between atoms: C10_16  and  C11_17 
REMARK    9  A    between atoms: C14_20  and  C15_21 
REMARK   10  A    between atoms: C17_25  and  O6_26 
ROOT
HETATM    1  C2  UNL     1       6.840   0.329  -1.005  1.00  0.00     0.136 C 
HETATM    2  C3  UNL     1       7.443   0.181  -2.356  1.00  0.00     0.172 C 
HETATM    3  O2  UNL     1       8.588  -0.556  -2.429  1.00  0.00    -0.351 OA
HETATM    4  C5  UNL     1       9.604  -0.183  -1.566  1.00  0.00     0.266 C 
HETATM    5  C7  UNL     1       9.171   0.001  -0.155  1.00  0.00     0.072 C 
HETATM    6  C17 UNL     1       7.734  -0.434  -0.019  1.00  0.00     0.151 C 
ENDROOT
BRANCH   5   7
HETATM    7  C8  UNL     1       9.305   1.405   0.366  1.00  0.00     0.012 C 
BRANCH   7   8
HETATM    8  C9  UNL     1      10.710   1.784   0.713  1.00  0.00     0.003 C 
BRANCH   8   9
HETATM    9  C10 UNL     1      10.661   2.814   1.825  1.00  0.00     0.032 C 
BRANCH   9  10
HETATM   10  C11 UNL     1       9.417   3.683   1.702  1.00  0.00     0.122 C 
HETATM   11  C12 UNL     1       9.019   4.144   3.054  1.00  0.00     0.035 C 
HETATM   12  C13 UNL     1       9.099   5.641   2.976  1.00  0.00     0.042 C 
HETATM   13  C14 UNL     1       9.933   5.851   1.735  1.00  0.00     0.191 C 
HETATM   14  O5  UNL     1       9.651   4.783   0.893  1.00  0.00    -0.373 OA
BRANCH  13  15
HETATM   15  C15 UNL     1       9.551   7.164   1.146  1.00  0.00     0.151 C 
HETATM   16  C16 UNL     1       8.724   7.296  -0.088  1.00  0.00     0.093 C 
HETATM   17  O4  UNL     1       9.949   8.163   1.721  1.00  0.00    -0.296 OA
ENDBRANCH  13  15
ENDBRANCH   9  10
ENDBRANCH   8   9
ENDBRANCH   7   8
ENDBRANCH   5   7
BRANCH   4  18
HETATM   18  O3  UNL     1      10.523  -1.260  -1.599  1.00  0.00    -0.366 OA
HETATM   19  C6  UNL     1       9.987  -2.379  -2.208  1.00  0.00     0.204 C 
ENDBRANCH   4  18
BRANCH   6  20
HETATM   20  O6  UNL     1       7.260  -0.338   1.270  1.00  0.00    -0.393 OA
ATOM     21  H6  UNL     1       7.962  -0.408   1.905  1.00  0.00     0.210 HD
ENDBRANCH   6  20
BRANCH   1  22
HETATM   22  N1  UNL     1       5.530  -0.255  -0.876  1.00  0.00    -0.417 N 
HETATM   23  C1  UNL     1       5.278  -1.383  -1.693  1.00  0.00     0.140 C 
ATOM     24  H1  UNL     1       4.829   0.121  -0.237  1.00  0.00     0.153 HD
ENDBRANCH   1  22
BRANCH   2  25
HETATM   25  C4  UNL     1       7.605   1.527  -3.074  1.00  0.00     0.198 C 
BRANCH  25  26
HETATM   26  O1  UNL     1       7.745   1.343  -4.441  1.00  0.00    -0.398 OA
ATOM     27  H1  UNL     1       6.913   1.117  -4.839  1.00  0.00     0.209 HD
ENDBRANCH  25  26
ENDBRANCH   2  25
TORSDOF 10
ENDMDL
MODEL 5
REMARK VINA RESULT: -5.873312128      2.646      6.629
REMARK  10 active torsions:
REMARK  status: ('A' for Active; 'I' for Inactive)
REMARK    1  A    between atoms: N1_2  and  C2_4 
REMARK    2  A    between atoms: C3_5  and  C4_6 
REMARK    3  A    between atoms: C4_6  and  O1_7 
REMARK    4  A    between atoms: C5_10  and  O3_11 
REMARK    5  A    between atoms: C7_13  and  C8_14 
REMARK    6  A    between atoms: C8_14  and  C9_15 
REMARK    7  A    between atoms: C9_15  and  C10_16 
REMARK    8  A    between atoms: C10_16  and  C11_17 
REMARK    9  A    between atoms: C14_20  and  C15_21 
REMARK   10  A    between atoms: C17_25  and  O6_26 
ROOT
HETATM    1  C2  UNL     1       7.707  -2.180  -0.387  1.00  0.00     0.136 C 
HETATM    2  C3  UNL     1       9.007  -2.861  -0.630  1.00  0.00     0.172 C 
HETATM    3  O2  UNL     1       9.924  -2.790   0.377  1.00  0.00    -0.351 OA
HETATM    4  C5  UNL     1      10.208  -1.519   0.848  1.00  0.00     0.266 C 
HETATM    5  C7  UNL     1       9.007  -0.697   1.154  1.00  0.00     0.072 C 
HETATM    6  C17 UNL     1       7.774  -1.552   1.012  1.00  0.00     0.151 C 
ENDROOT
BRANCH   5   7
HETATM    7  C8  UNL     1       8.849   0.529   0.298  1.00  0.00     0.012 C 
BRANCH   7   8
HETATM    8  C9  UNL     1      10.016   0.787  -0.601  1.00  0.00     0.003 C 
BRANCH   8   9
HETATM    9  C10 UNL     1       9.487   1.058  -1.997  1.00  0.00     0.032 C 
BRANCH   9  10
HETATM   10  C11 UNL     1       7.974   1.228  -1.977  1.00  0.00     0.122 C 
HETATM   11  C12 UNL     1       7.630   2.529  -2.601  1.00  0.00     0.035 C 
HETATM   12  C13 UNL     1       6.774   2.163  -3.779  1.00  0.00     0.042 C 
HETATM   13  C14 UNL     1       7.071   0.691  -3.943  1.00  0.00     0.191 C 
HETATM   14  O5  UNL     1       7.346   0.206  -2.671  1.00  0.00    -0.373 OA
BRANCH  13  15
HETATM   15  C15 UNL     1       5.876   0.051  -4.558  1.00  0.00     0.151 C 
HETATM   16  C16 UNL     1       5.477  -1.361  -4.287  1.00  0.00     0.093 C 
HETATM   17  O4  UNL     1       5.211   0.736  -5.315  1.00  0.00    -0.296 OA
ENDBRANCH  13  15
ENDBRANCH   9  10
ENDBRANCH   8   9
ENDBRANCH   7   8
ENDBRANCH   5   7
BRANCH   4  18
HETATM   18  O3  UNL     1      10.908  -1.729   2.061  1.00  0.00    -0.366 OA
HETATM   19  C6  UNL     1      11.301  -3.045   2.210  1.00  0.00     0.204 C 
ENDBRANCH   4  18
BRANCH   6  20
HETATM   20  O6  UNL     1       6.612  -0.882   1.319  1.00  0.00    -0.393 OA
ATOM     21  H6  UNL     1       6.091  -1.360   1.953  1.00  0.00     0.210 HD
ENDBRANCH   6  20
BRANCH   1  22
HETATM   22  N1  UNL     1       6.573  -3.067  -0.362  1.00  0.00    -0.417 N 
HETATM   23  C1  UNL     1       6.755  -4.277   0.350  1.00  0.00     0.140 C 
ATOM     24  H1  UNL     1       5.695  -2.838  -0.829  1.00  0.00     0.153 HD
ENDBRANCH   1  22
BRANCH   2  25
HETATM   25  C4  UNL     1       9.631  -2.466  -1.974  1.00  0.00     0.198 C 
BRANCH  25  26
HETATM   26  O1  UNL     1       8.669  -2.425  -2.972  1.00  0.00    -0.398 OA
ATOM     27  H1  UNL     1       8.198  -3.248  -3.022  1.00  0.00     0.209 HD
ENDBRANCH  25  26
ENDBRANCH   2  25
TORSDOF 10
ENDMDL
