MODEL 1
REMARK VINA RESULT: -6.206304529      0.000      0.000
REMARK  10 active torsions:
REMARK  status: ('A' for Active; 'I' for Inactive)
REMARK    1  A    between atoms: C2_2  and  C3_3 
REMARK    2  A    between atoms: C3_3  and  C4_4 
REMARK    3  A    between atoms: C4_4  and  C5_5 
REMARK    4  A    between atoms: C5_5  and  N1_8 
REMARK    5  A    between atoms: N1_8  and  C8_11 
REMARK    6  A    between atoms: C8_11  and  C9_12 
REMARK    7  A    between atoms: N3_16  and  C11_17 
REMARK    8  A    between atoms: C12_19  and  C13_20 
REMARK    9  A    between atoms: C13_20  and  O2_21 
REMARK   10  A    between atoms: C14_23  and  O3_24 
ROOT
HETATM    1  C9  UNL     1       9.072  -2.452  -1.237  1.00  0.00     0.001 A 
HETATM    2  C10 UNL     1       8.971  -3.567  -2.037  1.00  0.00     0.117 A 
HETATM    3  N2  UNL     1       8.505  -4.555  -1.290  1.00  0.00    -0.306 N 
ATOM      4  H2  UNL     1       8.327  -5.504  -1.618  1.00  0.00     0.186 HD
HETATM    5  N3  UNL     1       8.307  -4.129  -0.061  1.00  0.00    -0.247 N 
HETATM    6  C17 UNL     1       8.645  -2.838   0.007  1.00  0.00     0.125 A 
ENDROOT
BRANCH   5   7
HETATM    7  C11 UNL     1       7.804  -4.939   1.050  1.00  0.00     0.488 C 
HETATM    8  O1  UNL     1       7.485  -4.202   2.160  1.00  0.00    -0.330 OA
HETATM    9  C12 UNL     1       6.244  -3.620   2.170  1.00  0.00     0.180 C 
HETATM   10  C14 UNL     1       5.107  -4.527   1.802  1.00  0.00     0.177 C 
HETATM   11  C15 UNL     1       5.477  -5.225   0.512  1.00  0.00     0.312 C 
HETATM   12  N4  UNL     1       6.767  -5.840   0.603  1.00  0.00     0.137 N 
HETATM   13  C16 UNL     1       6.698  -6.978   1.475  1.00  0.00     0.316 C 
BRANCH   9  14
HETATM   14  C13 UNL     1       5.994  -3.102   3.588  1.00  0.00     0.198 C 
BRANCH  14  15
HETATM   15  O2  UNL     1       5.102  -3.922   4.282  1.00  0.00    -0.398 OA
ATOM     16  H2  UNL     1       5.357  -4.021   5.192  1.00  0.00     0.209 HD
ENDBRANCH  14  15
ENDBRANCH   9  14
BRANCH  10  17
HETATM   17  O3  UNL     1       3.983  -3.727   1.547  1.00  0.00    -0.391 OA
ATOM     18  H3  UNL     1       4.178  -3.183   0.792  1.00  0.00     0.210 HD
ENDBRANCH  10  17
ENDBRANCH   5   7
BRANCH   1  19
HETATM   19  C8  UNL     1       9.572  -1.099  -1.683  1.00  0.00     0.274 C 
BRANCH  19  20
HETATM   20  N1  UNL     1       8.629  -0.611  -2.630  1.00  0.00    -0.063 N 
ATOM     21  H12 UNL     1       8.056  -1.370  -3.000  1.00  0.00     0.278 HD
ATOM     22  H11 UNL     1       9.092  -0.318  -3.490  1.00  0.00     0.278 HD
BRANCH  20  23
HETATM   23  C5  UNL     1       7.774   0.486  -2.080  1.00  0.00     0.119 C 
HETATM   24  C6  UNL     1       7.875   1.557  -3.146  1.00  0.00     0.046 C 
HETATM   25  C7  UNL     1       8.460   0.985  -0.841  1.00  0.00     0.046 C 
BRANCH  23  26
HETATM   26  C4  UNL     1       6.421  -0.038  -1.872  1.00  0.00     0.038 C 
BRANCH  26  27
HETATM   27  C3  UNL     1       5.949  -1.218  -2.613  1.00  0.00     0.002 C 
BRANCH  27  28
HETATM   28  C2  UNL     1       5.223  -1.009  -3.895  1.00  0.00    -0.004 C 
HETATM   29  C1  UNL     1       5.933  -1.792  -5.022  1.00  0.00     0.005 C 
ENDBRANCH  27  28
ENDBRANCH  26  27
ENDBRANCH  23  26
ENDBRANCH  20  23
ENDBRANCH  19  20
ENDBRANCH   1  19
TORSDOF 10
ENDMDL
MODEL 2
REMARK VINA RESULT: -6.099758956      4.621      6.724
REMARK  10 active torsions:
REMARK  status: ('A' for Active; 'I' for Inactive)
REMARK    1  A    between atoms: C2_2  and  C3_3 
REMARK    2  A    between atoms: C3_3  and  C4_4 
REMARK    3  A    between atoms: C4_4  and  C5_5 
REMARK    4  A    between atoms: C5_5  and  N1_8 
REMARK    5  A    between atoms: N1_8  and  C8_11 
REMARK    6  A    between atoms: C8_11  and  C9_12 
REMARK    7  A    between atoms: N3_16  and  C11_17 
REMARK    8  A    between atoms: C12_19  and  C13_20 
REMARK    9  A    between atoms: C13_20  and  O2_21 
REMARK   10  A    between atoms: C14_23  and  O3_24 
ROOT
HETATM    1  C9  UNL     1       9.679   0.492  -0.910  1.00  0.00     0.001 A 
HETATM    2  C10 UNL     1       9.213   1.704  -1.368  1.00  0.00     0.117 A 
HETATM    3  N2  UNL     1       9.594   2.631  -0.504  1.00  0.00    -0.306 N 
ATOM      4  H2  UNL     1       9.391   3.627  -0.586  1.00  0.00     0.186 HD
HETATM    5  N3  UNL     1      10.274   2.075   0.475  1.00  0.00    -0.247 N 
HETATM    6  C17 UNL     1      10.346   0.759   0.257  1.00  0.00     0.125 A 
ENDROOT
BRANCH   5   7
HETATM    7  C11 UNL     1      10.852   2.782   1.620  1.00  0.00     0.488 C 
HETATM    8  O1  UNL     1      10.491   4.102   1.683  1.00  0.00    -0.330 OA
HETATM    9  C12 UNL     1       9.282   4.377   2.268  1.00  0.00     0.180 C 
HETATM   10  C14 UNL     1       9.042   3.706   3.587  1.00  0.00     0.177 C 
HETATM   11  C15 UNL     1       9.352   2.236   3.418  1.00  0.00     0.312 C 
HETATM   12  N4  UNL     1      10.648   2.039   2.841  1.00  0.00     0.137 N 
HETATM   13  C16 UNL     1      11.660   2.385   3.799  1.00  0.00     0.316 C 
BRANCH   9  14
HETATM   14  C13 UNL     1       9.215   5.889   2.487  1.00  0.00     0.198 C 
BRANCH  14  15
HETATM   15  O2  UNL     1       9.272   6.212   3.845  1.00  0.00    -0.398 OA
ATOM     16  H2  UNL     1       8.645   6.890   4.068  1.00  0.00     0.209 HD
ENDBRANCH  14  15
ENDBRANCH   9  14
BRANCH  10  17
HETATM   17  O3  UNL     1       7.676   3.822   3.886  1.00  0.00    -0.391 OA
ATOM     18  H3  UNL     1       7.572   3.703   4.823  1.00  0.00     0.210 HD
ENDBRANCH  10  17
ENDBRANCH   5   7
BRANCH   1  19
HETATM   19  C8  UNL     1       9.461  -0.840  -1.587  1.00  0.00     0.274 C 
BRANCH  19  20
HETATM   20  N1  UNL     1       8.371  -0.664  -2.485  1.00  0.00    -0.063 N 
ATOM     21  H12 UNL     1       8.703  -0.491  -3.434  1.00  0.00     0.278 HD
ATOM     22  H11 UNL     1       7.894   0.221  -2.313  1.00  0.00     0.278 HD
BRANCH  20  23
HETATM   23  C5  UNL     1       7.408  -1.807  -2.453  1.00  0.00     0.119 C 
HETATM   24  C6  UNL     1       6.563  -1.502  -1.234  1.00  0.00     0.046 C 
HETATM   25  C7  UNL     1       8.215  -3.042  -2.173  1.00  0.00     0.046 C 
BRANCH  23  26
HETATM   26  C4  UNL     1       6.665  -1.825  -3.717  1.00  0.00     0.038 C 
BRANCH  26  27
HETATM   27  C3  UNL     1       5.546  -0.898  -3.945  1.00  0.00     0.002 C 
BRANCH  27  28
HETATM   28  C2  UNL     1       5.698   0.163  -4.977  1.00  0.00    -0.004 C 
HETATM   29  C1  UNL     1       6.406   1.388  -4.357  1.00  0.00     0.005 C 
ENDBRANCH  27  28
ENDBRANCH  26  27
ENDBRANCH  23  26
ENDBRANCH  20  23
ENDBRANCH  19  20
ENDBRANCH   1  19
TORSDOF 10
ENDMDL
MODEL 3
REMARK VINA RESULT: -5.991392545      5.355      7.683
REMARK  10 active torsions:
REMARK  status: ('A' for Active; 'I' for Inactive)
REMARK    1  A    between atoms: C2_2  and  C3_3 
REMARK    2  A    between atoms: C3_3  and  C4_4 
REMARK    3  A    between atoms: C4_4  and  C5_5 
REMARK    4  A    between atoms: C5_5  and  N1_8 
REMARK    5  A    between atoms: N1_8  and  C8_11 
REMARK    6  A    between atoms: C8_11  and  C9_12 
REMARK    7  A    between atoms: N3_16  and  C11_17 
REMARK    8  A    between atoms: C12_19  and  C13_20 
REMARK    9  A    between atoms: C13_20  and  O2_21 
REMARK   10  A    between atoms: C14_23  and  O3_24 
ROOT
HETATM    1  C9  UNL     1       8.554   1.209   0.018  1.00  0.00     0.001 A 
HETATM    2  C10 UNL     1       9.054   2.098  -0.905  1.00  0.00     0.117 A 
HETATM    3  N2  UNL     1       9.882   2.911  -0.270  1.00  0.00    -0.306 N 
ATOM      4  H2  UNL     1      10.402   3.674  -0.704  1.00  0.00     0.186 HD
HETATM    5  N3  UNL     1       9.934   2.588   1.004  1.00  0.00    -0.247 N 
HETATM    6  C17 UNL     1       9.128   1.544   1.217  1.00  0.00     0.125 A 
ENDROOT
BRANCH   5   7
HETATM    7  C11 UNL     1      10.738   3.266   2.023  1.00  0.00     0.488 C 
HETATM    8  O1  UNL     1      11.171   4.507   1.637  1.00  0.00    -0.330 OA
HETATM    9  C12 UNL     1      10.288   5.542   1.808  1.00  0.00     0.180 C 
HETATM   10  C14 UNL     1       9.636   5.613   3.156  1.00  0.00     0.177 C 
HETATM   11  C15 UNL     1       9.083   4.240   3.470  1.00  0.00     0.312 C 
HETATM   12  N4  UNL     1      10.081   3.226   3.308  1.00  0.00     0.137 N 
HETATM   13  C16 UNL     1      11.054   3.335   4.358  1.00  0.00     0.316 C 
BRANCH   9  14
HETATM   14  C13 UNL     1      11.062   6.843   1.589  1.00  0.00     0.198 C 
BRANCH  14  15
HETATM   15  O2  UNL     1      10.201   7.936   1.466  1.00  0.00    -0.398 OA
ATOM     16  H2  UNL     1      10.507   8.679   1.972  1.00  0.00     0.209 HD
ENDBRANCH  14  15
ENDBRANCH   9  14
BRANCH  10  17
HETATM   17  O3  UNL     1       8.551   6.498   3.064  1.00  0.00    -0.391 OA
ATOM     18  H3  UNL     1       8.787   7.296   3.523  1.00  0.00     0.210 HD
ENDBRANCH  10  17
ENDBRANCH   5   7
BRANCH   1  19
HETATM   19  C8  UNL     1       7.561   0.109  -0.275  1.00  0.00     0.274 C 
BRANCH  19  20
HETATM   20  N1  UNL     1       8.109  -0.656  -1.342  1.00  0.00    -0.063 N 
ATOM     21  H12 UNL     1       8.977  -1.112  -1.058  1.00  0.00     0.278 HD
ATOM     22  H11 UNL     1       8.475  -0.050  -2.077  1.00  0.00     0.278 HD
BRANCH  20  23
HETATM   23  C5  UNL     1       7.139  -1.648  -1.898  1.00  0.00     0.119 C 
HETATM   24  C6  UNL     1       6.754  -2.461  -0.680  1.00  0.00     0.046 C 
HETATM   25  C7  UNL     1       7.914  -2.531  -2.833  1.00  0.00     0.046 C 
BRANCH  23  26
HETATM   26  C4  UNL     1       6.027  -0.916  -2.515  1.00  0.00     0.038 C 
BRANCH  26  27
HETATM   27  C3  UNL     1       5.758  -1.030  -3.956  1.00  0.00     0.002 C 
BRANCH  27  28
HETATM   28  C2  UNL     1       5.754   0.209  -4.780  1.00  0.00    -0.004 C 
HETATM   29  C1  UNL     1       6.643   1.278  -4.106  1.00  0.00     0.005 C 
ENDBRANCH  27  28
ENDBRANCH  26  27
ENDBRANCH  23  26
ENDBRANCH  20  23
ENDBRANCH  19  20
ENDBRANCH   1  19
TORSDOF 10
ENDMDL
MODEL 4
REMARK VINA RESULT: -5.822439181      4.617      6.854
REMARK  10 active torsions:
REMARK  status: ('A' for Active; 'I' for Inactive)
REMARK    1  A    between atoms: C2_2  and  C3_3 
REMARK    2  A    between atoms: C3_3  and  C4_4 
REMARK    3  A    between atoms: C4_4  and  C5_5 
REMARK    4  A    between atoms: C5_5  and  N1_8 
REMARK    5  A    between atoms: N1_8  and  C8_11 
REMARK    6  A    between atoms: C8_11  and  C9_12 
REMARK    7  A    between atoms: N3_16  and  C11_17 
REMARK    8  A    between atoms: C12_19  and  C13_20 
REMARK    9  A    between atoms: C13_20  and  O2_21 
REMARK   10  A    between atoms: C14_23  and  O3_24 
ROOT
HETATM    1  C9  UNL     1       9.247   0.834  -1.236  1.00  0.00     0.001 A 
HETATM    2  C10 UNL     1       8.891   2.127  -1.543  1.00  0.00     0.117 A 
HETATM    3  N2  UNL     1       9.370   2.911  -0.591  1.00  0.00    -0.306 N 
ATOM      4  H2  UNL     1       9.261   3.925  -0.555  1.00  0.00     0.186 HD
HETATM    5  N3  UNL     1      10.009   2.187   0.302  1.00  0.00    -0.247 N 
HETATM    6  C17 UNL     1       9.954   0.903  -0.064  1.00  0.00     0.125 A 
ENDROOT
BRANCH   5   7
HETATM    7  C11 UNL     1      10.669   2.703   1.504  1.00  0.00     0.488 C 
HETATM    8  O1  UNL     1      10.464   4.042   1.704  1.00  0.00    -0.330 OA
HETATM    9  C12 UNL     1       9.296   4.393   2.332  1.00  0.00     0.180 C 
HETATM   10  C14 UNL     1       8.983   3.624   3.580  1.00  0.00     0.177 C 
HETATM   11  C15 UNL     1       9.120   2.153   3.259  1.00  0.00     0.312 C 
HETATM   12  N4  UNL     1      10.383   1.868   2.647  1.00  0.00     0.137 N 
HETATM   13  C16 UNL     1      11.430   1.995   3.620  1.00  0.00     0.316 C 
BRANCH   9  14
HETATM   14  C13 UNL     1       9.405   5.873   2.703  1.00  0.00     0.198 C 
BRANCH  14  15
HETATM   15  O2  UNL     1       9.643   6.041   4.069  1.00  0.00    -0.398 OA
ATOM     16  H2  UNL     1       9.267   5.333   4.577  1.00  0.00     0.209 HD
ENDBRANCH  14  15
ENDBRANCH   9  14
BRANCH  10  17
HETATM   17  O3  UNL     1       7.640   3.865   3.909  1.00  0.00    -0.391 OA
ATOM     18  H3  UNL     1       7.241   3.033   4.131  1.00  0.00     0.210 HD
ENDBRANCH  10  17
ENDBRANCH   5   7
BRANCH   1  19
HETATM   19  C8  UNL     1       8.894  -0.387  -2.053  1.00  0.00     0.274 C 
BRANCH  19  20
HETATM   20  N1  UNL     1       7.703  -0.068  -2.763  1.00  0.00    -0.063 N 
ATOM     21  H12 UNL     1       7.907   0.156  -3.738  1.00  0.00     0.278 HD
ATOM     22  H11 UNL     1       7.328   0.832  -2.463  1.00  0.00     0.278 HD
BRANCH  20  23
HETATM   23  C5  UNL     1       6.668  -1.142  -2.664  1.00  0.00     0.119 C 
HETATM   24  C6  UNL     1       7.486  -2.410  -2.790  1.00  0.00     0.046 C 
HETATM   25  C7  UNL     1       5.798  -1.015  -3.881  1.00  0.00     0.046 C 
BRANCH  23  26
HETATM   26  C4  UNL     1       5.968  -0.996  -1.383  1.00  0.00     0.038 C 
BRANCH  26  27
HETATM   27  C3  UNL     1       5.960  -2.090  -0.401  1.00  0.00     0.002 C 
BRANCH  27  28
HETATM   28  C2  UNL     1       6.834  -1.977   0.798  1.00  0.00    -0.004 C 
HETATM   29  C1  UNL     1       6.872  -0.507   1.271  1.00  0.00     0.005 C 
ENDBRANCH  27  28
ENDBRANCH  26  27
ENDBRANCH  23  26
ENDBRANCH  20  23
ENDBRANCH  19  20
ENDBRANCH   1  19
TORSDOF 10
ENDMDL
MODEL 5
REMARK VINA RESULT: -5.819785575      4.051      6.314
REMARK  10 active torsions:
REMARK  status: ('A' for Active; 'I' for Inactive)
REMARK    1  A    between atoms: C2_2  and  C3_3 
REMARK    2  A    between atoms: C3_3  and  C4_4 
REMARK    3  A    between atoms: C4_4  and  C5_5 
REMARK    4  A    between atoms: C5_5  and  N1_8 
REMARK    5  A    between atoms: N1_8  and  C8_11 
REMARK    6  A    between atoms: C8_11  and  C9_12 
REMARK    7  A    between atoms: N3_16  and  C11_17 
REMARK    8  A    between atoms: C12_19  and  C13_20 
REMARK    9  A    between atoms: C13_20  and  O2_21 
REMARK   10  A    between atoms: C14_23  and  O3_24 
ROOT
HETATM    1  C9  UNL     1       9.646   0.315  -0.838  1.00  0.00     0.001 A 
HETATM    2  C10 UNL     1      10.528   1.338  -1.103  1.00  0.00     0.117 A 
HETATM    3  N2  UNL     1      10.360   2.262  -0.172  1.00  0.00    -0.306 N 
ATOM      4  H2  UNL     1      10.880   3.138  -0.113  1.00  0.00     0.186 HD
HETATM    5  N3  UNL     1       9.420   1.883   0.668  1.00  0.00    -0.247 N 
HETATM    6  C17 UNL     1       8.960   0.688   0.289  1.00  0.00     0.125 A 
ENDROOT
BRANCH   5   7
HETATM    7  C11 UNL     1       8.953   2.649   1.826  1.00  0.00     0.488 C 
HETATM    8  O1  UNL     1       8.586   1.863   2.886  1.00  0.00    -0.330 OA
HETATM    9  C12 UNL     1       9.596   1.444   3.713  1.00  0.00     0.180 C 
HETATM   10  C14 UNL     1      10.544   2.516   4.162  1.00  0.00     0.177 C 
HETATM   11  C15 UNL     1      10.995   3.273   2.932  1.00  0.00     0.312 C 
HETATM   12  N4  UNL     1       9.878   3.709   2.150  1.00  0.00     0.137 N 
HETATM   13  C16 UNL     1       9.191   4.765   2.837  1.00  0.00     0.316 C 
BRANCH   9  14
HETATM   14  C13 UNL     1       8.945   0.838   4.958  1.00  0.00     0.198 C 
BRANCH  14  15
HETATM   15  O2  UNL     1       8.795   1.788   5.971  1.00  0.00    -0.398 OA
ATOM     16  H2  UNL     1       9.156   1.479   6.793  1.00  0.00     0.209 HD
ENDBRANCH  14  15
ENDBRANCH   9  14
BRANCH  10  17
HETATM   17  O3  UNL     1      11.671   1.890   4.715  1.00  0.00    -0.391 OA
ATOM     18  H3  UNL     1      12.370   1.928   4.072  1.00  0.00     0.210 HD
ENDBRANCH  10  17
ENDBRANCH   5   7
BRANCH   1  19
HETATM   19  C8  UNL     1       9.494  -0.942  -1.660  1.00  0.00     0.274 C 
BRANCH  19  20
HETATM   20  N1  UNL     1       8.352  -0.749  -2.487  1.00  0.00    -0.063 N 
ATOM     21  H12 UNL     1       8.625  -0.459  -3.426  1.00  0.00     0.278 HD
ATOM     22  H11 UNL     1       7.831   0.082  -2.203  1.00  0.00     0.278 HD
BRANCH  20  23
HETATM   23  C5  UNL     1       7.463  -1.950  -2.532  1.00  0.00     0.119 C 
HETATM   24  C6  UNL     1       6.614  -1.787  -1.288  1.00  0.00     0.046 C 
HETATM   25  C7  UNL     1       8.349  -3.148  -2.348  1.00  0.00     0.046 C 
BRANCH  23  26
HETATM   26  C4  UNL     1       6.708  -1.923  -3.789  1.00  0.00     0.038 C 
BRANCH  26  27
HETATM   27  C3  UNL     1       5.569  -1.008  -3.964  1.00  0.00     0.002 C 
BRANCH  27  28
HETATM   28  C2  UNL     1       5.679   0.081  -4.971  1.00  0.00    -0.004 C 
HETATM   29  C1  UNL     1       6.392   1.297  -4.339  1.00  0.00     0.005 C 
ENDBRANCH  27  28
ENDBRANCH  26  27
ENDBRANCH  23  26
ENDBRANCH  20  23
ENDBRANCH  19  20
ENDBRANCH   1  19
TORSDOF 10
ENDMDL
