MODEL 1
REMARK VINA RESULT: -6.473214025      0.000      0.000
REMARK  9 active torsions:
REMARK  status: ('A' for Active; 'I' for Inactive)
REMARK    1  A    between atoms: C2_2  and  N1_3 
REMARK    2  A    between atoms: N1_3  and  C3_6 
REMARK    3  A    between atoms: C3_6  and  C4_7 
REMARK    4  A    between atoms: N2_9  and  C6_10 
REMARK    5  A    between atoms: C6_10  and  C7_11 
REMARK    6  A    between atoms: C7_11  and  C8_12 
REMARK    7  A    between atoms: C8_12  and  O1_13 
REMARK    8  A    between atoms: O1_13  and  N3_14 
REMARK    9  A    between atoms: C17_26  and  O2_27 
ROOT
HETATM    1  C4  UNL     1       8.627   0.931  -2.575  1.00  0.00     0.068 C 
HETATM    2  C5  UNL     1       8.374  -0.421  -1.928  1.00  0.00     0.281 C 
HETATM    3  N2  UNL     1       9.575  -1.049  -1.491  1.00  0.00     0.089 N 
HETATM    4  C15 UNL     1      10.679  -0.240  -1.219  1.00  0.00     0.275 C 
HETATM    5  C16 UNL     1      10.519   1.222  -1.112  1.00  0.00     0.062 C 
HETATM    6  C17 UNL     1       9.157   1.781  -1.444  1.00  0.00     0.127 C 
ENDROOT
BRANCH   3   7
HETATM    7  C6  UNL     1       9.807  -2.226  -2.302  1.00  0.00     0.274 C 
BRANCH   7   8
HETATM    8  C7  UNL     1       8.484  -2.938  -2.452  1.00  0.00     0.059 C 
BRANCH   8   9
HETATM    9  C8  UNL     1       8.547  -4.147  -1.491  1.00  0.00     0.203 C 
BRANCH   9  10
HETATM   10  O1  UNL     1       7.461  -4.143  -0.652  1.00  0.00    -0.276 OA
BRANCH  10  11
HETATM   11  N3  UNL     1       7.482  -3.324   0.378  1.00  0.00    -0.230 N 
HETATM   12  C9  UNL     1       8.676  -3.187   1.238  1.00  0.00     0.161 C 
HETATM   13  C10 UNL     1       8.287  -3.035   2.672  1.00  0.00     0.052 C 
HETATM   14  C11 UNL     1       6.825  -3.134   2.955  1.00  0.00     0.027 C 
HETATM   15  C12 UNL     1       6.560  -2.521   4.317  1.00  0.00     0.038 C 
HETATM   16  C13 UNL     1       6.416  -4.596   2.984  1.00  0.00     0.038 C 
HETATM   17  N4  UNL     1       6.002  -2.423   2.006  1.00  0.00    -0.354 N 
HETATM   18  C14 UNL     1       6.350  -2.535   0.742  1.00  0.00     0.211 C 
ATOM     19  H4  UNL     1       5.199  -1.866   2.298  1.00  0.00     0.163 HD
HETATM   20  N5  UNL     1       5.568  -1.864  -0.228  1.00  0.00    -0.062 NA
ENDBRANCH  10  11
ENDBRANCH   9  10
ENDBRANCH   8   9
ENDBRANCH   7   8
ENDBRANCH   3   7
BRANCH   1  21
HETATM   21  C3  UNL     1       7.355   1.410  -3.178  1.00  0.00     0.241 C 
BRANCH  21  22
HETATM   22  N1  UNL     1       7.185   0.967  -4.530  1.00  0.00    -0.075 N 
ATOM     23  H12 UNL     1       7.827   0.208  -4.756  1.00  0.00     0.277 HD
ATOM     24  H11 UNL     1       7.522   1.664  -5.194  1.00  0.00     0.277 HD
BRANCH  22  25
HETATM   25  C2  UNL     1       5.806   0.595  -4.804  1.00  0.00     0.228 C 
HETATM   26  C1  UNL     1       5.593  -0.819  -4.308  1.00  0.00     0.034 C 
ENDBRANCH  22  25
ENDBRANCH  21  22
ENDBRANCH   1  21
BRANCH   6  27
HETATM   27  O2  UNL     1       8.338   1.566  -0.319  1.00  0.00    -0.395 OA
ATOM     28  H2  UNL     1       7.566   2.112  -0.410  1.00  0.00     0.210 HD
ENDBRANCH   6  27
TORSDOF 9
ENDMDL
MODEL 2
REMARK VINA RESULT: -6.362098674      1.297      1.922
REMARK  9 active torsions:
REMARK  status: ('A' for Active; 'I' for Inactive)
REMARK    1  A    between atoms: C2_2  and  N1_3 
REMARK    2  A    between atoms: N1_3  and  C3_6 
REMARK    3  A    between atoms: C3_6  and  C4_7 
REMARK    4  A    between atoms: N2_9  and  C6_10 
REMARK    5  A    between atoms: C6_10  and  C7_11 
REMARK    6  A    between atoms: C7_11  and  C8_12 
REMARK    7  A    between atoms: C8_12  and  O1_13 
REMARK    8  A    between atoms: O1_13  and  N3_14 
REMARK    9  A    between atoms: C17_26  and  O2_27 
ROOT
HETATM    1  C4  UNL     1       8.447   0.863  -2.609  1.00  0.00     0.068 C 
HETATM    2  C5  UNL     1       8.290  -0.472  -1.900  1.00  0.00     0.281 C 
HETATM    3  N2  UNL     1       9.538  -1.024  -1.495  1.00  0.00     0.089 N 
HETATM    4  C15 UNL     1      10.611  -0.154  -1.304  1.00  0.00     0.275 C 
HETATM    5  C16 UNL     1      10.384   1.303  -1.246  1.00  0.00     0.062 C 
HETATM    6  C17 UNL     1       8.983   1.782  -1.536  1.00  0.00     0.127 C 
ENDROOT
BRANCH   3   7
HETATM    7  C6  UNL     1       9.793  -2.221  -2.270  1.00  0.00     0.274 C 
BRANCH   7   8
HETATM    8  C7  UNL     1       8.478  -2.948  -2.421  1.00  0.00     0.059 C 
BRANCH   8   9
HETATM    9  C8  UNL     1       8.712  -4.361  -1.841  1.00  0.00     0.203 C 
BRANCH   9  10
HETATM   10  O1  UNL     1       9.031  -4.280  -0.508  1.00  0.00    -0.276 OA
BRANCH  10  11
HETATM   11  N3  UNL     1       8.109  -4.616   0.368  1.00  0.00    -0.230 N 
HETATM   12  C9  UNL     1       7.096  -5.651   0.073  1.00  0.00     0.161 C 
HETATM   13  C10 UNL     1       5.765  -5.272   0.635  1.00  0.00     0.052 C 
HETATM   14  C11 UNL     1       5.702  -3.931   1.289  1.00  0.00     0.027 C 
HETATM   15  C12 UNL     1       4.476  -3.891   2.180  1.00  0.00     0.038 C 
HETATM   16  C13 UNL     1       5.573  -2.858   0.223  1.00  0.00     0.038 C 
HETATM   17  N4  UNL     1       6.841  -3.642   2.128  1.00  0.00    -0.354 N 
HETATM   18  C14 UNL     1       8.015  -3.991   1.647  1.00  0.00     0.211 C 
ATOM     19  H4  UNL     1       6.741  -3.194   3.038  1.00  0.00     0.163 HD
HETATM   20  N5  UNL     1       9.164  -3.719   2.428  1.00  0.00    -0.062 NA
ENDBRANCH  10  11
ENDBRANCH   9  10
ENDBRANCH   8   9
ENDBRANCH   7   8
ENDBRANCH   3   7
BRANCH   1  21
HETATM   21  C3  UNL     1       7.128   1.256  -3.171  1.00  0.00     0.241 C 
BRANCH  21  22
HETATM   22  N1  UNL     1       7.027   0.995  -4.576  1.00  0.00    -0.075 N 
ATOM     23  H12 UNL     1       7.782   0.388  -4.896  1.00  0.00     0.277 HD
ATOM     24  H11 UNL     1       7.246   1.825  -5.125  1.00  0.00     0.277 HD
BRANCH  22  25
HETATM   25  C2  UNL     1       5.725   0.452  -4.930  1.00  0.00     0.228 C 
HETATM   26  C1  UNL     1       5.628  -0.947  -4.361  1.00  0.00     0.034 C 
ENDBRANCH  22  25
ENDBRANCH  21  22
ENDBRANCH   1  21
BRANCH   6  27
HETATM   27  O2  UNL     1       8.225   1.573  -0.368  1.00  0.00    -0.395 OA
ATOM     28  H2  UNL     1       8.312   0.660  -0.121  1.00  0.00     0.210 HD
ENDBRANCH   6  27
TORSDOF 9
ENDMDL
MODEL 3
REMARK VINA RESULT: -6.301722730      1.648      2.100
REMARK  9 active torsions:
REMARK  status: ('A' for Active; 'I' for Inactive)
REMARK    1  A    between atoms: C2_2  and  N1_3 
REMARK    2  A    between atoms: N1_3  and  C3_6 
REMARK    3  A    between atoms: C3_6  and  C4_7 
REMARK    4  A    between atoms: N2_9  and  C6_10 
REMARK    5  A    between atoms: C6_10  and  C7_11 
REMARK    6  A    between atoms: C7_11  and  C8_12 
REMARK    7  A    between atoms: C8_12  and  O1_13 
REMARK    8  A    between atoms: O1_13  and  N3_14 
REMARK    9  A    between atoms: C17_26  and  O2_27 
ROOT
HETATM    1  C4  UNL     1       8.622   0.949  -2.615  1.00  0.00     0.068 C 
HETATM    2  C5  UNL     1       8.328  -0.399  -1.976  1.00  0.00     0.281 C 
HETATM    3  N2  UNL     1       9.507  -1.057  -1.527  1.00  0.00     0.089 N 
HETATM    4  C15 UNL     1      10.627  -0.277  -1.237  1.00  0.00     0.275 C 
HETATM    5  C16 UNL     1      10.501   1.188  -1.126  1.00  0.00     0.062 C 
HETATM    6  C17 UNL     1       9.157   1.782  -1.473  1.00  0.00     0.127 C 
ENDROOT
BRANCH   3   7
HETATM    7  C6  UNL     1       9.721  -2.237  -2.339  1.00  0.00     0.274 C 
BRANCH   7   8
HETATM    8  C7  UNL     1       8.386  -2.927  -2.493  1.00  0.00     0.059 C 
BRANCH   8   9
HETATM    9  C8  UNL     1       8.280  -3.906  -1.302  1.00  0.00     0.203 C 
BRANCH   9  10
HETATM   10  O1  UNL     1       7.187  -3.598  -0.531  1.00  0.00    -0.276 OA
BRANCH  10  11
HETATM   11  N3  UNL     1       6.952  -4.341   0.530  1.00  0.00    -0.230 N 
HETATM   12  C9  UNL     1       7.990  -5.221   1.107  1.00  0.00     0.161 C 
HETATM   13  C10 UNL     1       7.396  -6.510   1.576  1.00  0.00     0.052 C 
HETATM   14  C11 UNL     1       5.939  -6.684   1.301  1.00  0.00     0.027 C 
HETATM   15  C12 UNL     1       5.410  -7.778   2.208  1.00  0.00     0.038 C 
HETATM   16  C13 UNL     1       5.747  -7.104  -0.145  1.00  0.00     0.038 C 
HETATM   17  N4  UNL     1       5.155  -5.501   1.568  1.00  0.00    -0.354 N 
HETATM   18  C14 UNL     1       5.680  -4.360   1.176  1.00  0.00     0.211 C 
ATOM     19  H4  UNL     1       4.249  -5.547   2.032  1.00  0.00     0.163 HD
HETATM   20  N5  UNL     1       4.944  -3.173   1.405  1.00  0.00    -0.062 NA
ENDBRANCH  10  11
ENDBRANCH   9  10
ENDBRANCH   8   9
ENDBRANCH   7   8
ENDBRANCH   3   7
BRANCH   1  21
HETATM   21  C3  UNL     1       7.370   1.461  -3.231  1.00  0.00     0.241 C 
BRANCH  21  22
HETATM   22  N1  UNL     1       7.176   0.978  -4.566  1.00  0.00    -0.075 N 
ATOM     23  H12 UNL     1       7.811   0.209  -4.779  1.00  0.00     0.277 HD
ATOM     24  H11 UNL     1       7.504   1.652  -5.257  1.00  0.00     0.277 HD
BRANCH  22  25
HETATM   25  C2  UNL     1       5.790   0.604  -4.805  1.00  0.00     0.228 C 
HETATM   26  C1  UNL     1       5.618  -0.845  -4.401  1.00  0.00     0.034 C 
ENDBRANCH  22  25
ENDBRANCH  21  22
ENDBRANCH   1  21
BRANCH   6  27
HETATM   27  O2  UNL     1       8.319   1.582  -0.360  1.00  0.00    -0.395 OA
ATOM     28  H2  UNL     1       7.918   0.725  -0.445  1.00  0.00     0.210 HD
ENDBRANCH   6  27
TORSDOF 9
ENDMDL
MODEL 4
REMARK VINA RESULT: -6.296910457      2.032      6.956
REMARK  9 active torsions:
REMARK  status: ('A' for Active; 'I' for Inactive)
REMARK    1  A    between atoms: C2_2  and  N1_3 
REMARK    2  A    between atoms: N1_3  and  C3_6 
REMARK    3  A    between atoms: C3_6  and  C4_7 
REMARK    4  A    between atoms: N2_9  and  C6_10 
REMARK    5  A    between atoms: C6_10  and  C7_11 
REMARK    6  A    between atoms: C7_11  and  C8_12 
REMARK    7  A    between atoms: C8_12  and  O1_13 
REMARK    8  A    between atoms: O1_13  and  N3_14 
REMARK    9  A    between atoms: C17_26  and  O2_27 
ROOT
HETATM    1  C4  UNL     1       6.301  -3.791   3.310  1.00  0.00     0.068 C 
HETATM    2  C5  UNL     1       6.568  -2.675   2.314  1.00  0.00     0.281 C 
HETATM    3  N2  UNL     1       6.751  -3.160   0.989  1.00  0.00     0.089 N 
HETATM    4  C15 UNL     1       6.190  -4.393   0.656  1.00  0.00     0.275 C 
HETATM    5  C16 UNL     1       5.208  -5.028   1.555  1.00  0.00     0.062 C 
HETATM    6  C17 UNL     1       4.963  -4.348   2.880  1.00  0.00     0.127 C 
ENDROOT
BRANCH   3   7
HETATM    7  C6  UNL     1       8.127  -2.937   0.596  1.00  0.00     0.274 C 
BRANCH   7   8
HETATM    8  C7  UNL     1       8.568  -1.633   1.217  1.00  0.00     0.059 C 
BRANCH   8   9
HETATM    9  C8  UNL     1       8.917  -0.702   0.034  1.00  0.00     0.203 C 
BRANCH   9  10
HETATM   10  O1  UNL     1       8.006   0.322  -0.049  1.00  0.00    -0.276 OA
BRANCH  10  11
HETATM   11  N3  UNL     1       7.090   0.257  -0.992  1.00  0.00    -0.230 N 
HETATM   12  C9  UNL     1       5.811  -0.454  -0.785  1.00  0.00     0.161 C 
HETATM   13  C10 UNL     1       5.397  -1.180  -2.023  1.00  0.00     0.052 C 
HETATM   14  C11 UNL     1       6.365  -1.117  -3.158  1.00  0.00     0.027 C 
HETATM   15  C12 UNL     1       5.630  -1.484  -4.433  1.00  0.00     0.038 C 
HETATM   16  C13 UNL     1       7.481  -2.120  -2.925  1.00  0.00     0.038 C 
HETATM   17  N4  UNL     1       6.932   0.194  -3.363  1.00  0.00    -0.354 N 
HETATM   18  C14 UNL     1       7.281   0.849  -2.276  1.00  0.00     0.211 C 
ATOM     19  H4  UNL     1       7.055   0.590  -4.294  1.00  0.00     0.163 HD
HETATM   20  N5  UNL     1       7.852   2.135  -2.424  1.00  0.00    -0.062 NA
ENDBRANCH  10  11
ENDBRANCH   9  10
ENDBRANCH   8   9
ENDBRANCH   7   8
ENDBRANCH   3   7
BRANCH   1  21
HETATM   21  C3  UNL     1       6.329  -3.217   4.681  1.00  0.00     0.241 C 
BRANCH  21  22
HETATM   22  N1  UNL     1       7.112  -2.020   4.760  1.00  0.00    -0.075 N 
ATOM     23  H12 UNL     1       6.797  -1.323   4.085  1.00  0.00     0.277 HD
ATOM     24  H11 UNL     1       8.056  -2.169   4.406  1.00  0.00     0.277 HD
BRANCH  22  25
HETATM   25  C2  UNL     1       7.132  -1.478   6.111  1.00  0.00     0.228 C 
HETATM   26  C1  UNL     1       6.733  -2.583   7.065  1.00  0.00     0.034 C 
ENDBRANCH  22  25
ENDBRANCH  21  22
ENDBRANCH   1  21
BRANCH   6  27
HETATM   27  O2  UNL     1       4.101  -3.263   2.633  1.00  0.00    -0.395 OA
ATOM     28  H2  UNL     1       4.376  -2.847   1.824  1.00  0.00     0.210 HD
ENDBRANCH   6  27
TORSDOF 9
ENDMDL
MODEL 5
REMARK VINA RESULT: -6.258744692      2.383      5.239
REMARK  9 active torsions:
REMARK  status: ('A' for Active; 'I' for Inactive)
REMARK    1  A    between atoms: C2_2  and  N1_3 
REMARK    2  A    between atoms: N1_3  and  C3_6 
REMARK    3  A    between atoms: C3_6  and  C4_7 
REMARK    4  A    between atoms: N2_9  and  C6_10 
REMARK    5  A    between atoms: C6_10  and  C7_11 
REMARK    6  A    between atoms: C7_11  and  C8_12 
REMARK    7  A    between atoms: C8_12  and  O1_13 
REMARK    8  A    between atoms: O1_13  and  N3_14 
REMARK    9  A    between atoms: C17_26  and  O2_27 
ROOT
HETATM    1  C4  UNL     1      10.848   0.044  -0.104  1.00  0.00     0.068 C 
HETATM    2  C5  UNL     1      10.929  -0.642   1.250  1.00  0.00     0.281 C 
HETATM    3  N2  UNL     1      10.454  -1.983   1.210  1.00  0.00     0.089 N 
HETATM    4  C15 UNL     1      10.476  -2.653  -0.014  1.00  0.00     0.275 C 
HETATM    5  C16 UNL     1      11.226  -2.091  -1.153  1.00  0.00     0.062 C 
HETATM    6  C17 UNL     1      11.831  -0.722  -0.958  1.00  0.00     0.127 C 
ENDROOT
BRANCH   3   7
HETATM    7  C6  UNL     1       9.233  -2.069   1.984  1.00  0.00     0.274 C 
BRANCH   7   8
HETATM    8  C7  UNL     1       8.083  -2.113   1.008  1.00  0.00     0.059 C 
BRANCH   8   9
HETATM    9  C8  UNL     1       7.317  -0.784   1.202  1.00  0.00     0.203 C 
BRANCH   9  10
HETATM   10  O1  UNL     1       7.610   0.086   0.181  1.00  0.00    -0.276 OA
BRANCH  10  11
HETATM   11  N3  UNL     1       6.849   0.055  -0.892  1.00  0.00    -0.230 N 
HETATM   12  C9  UNL     1       5.543  -0.637  -0.899  1.00  0.00     0.161 C 
HETATM   13  C10 UNL     1       5.314  -1.332  -2.201  1.00  0.00     0.052 C 
HETATM   14  C11 UNL     1       6.445  -1.266  -3.173  1.00  0.00     0.027 C 
HETATM   15  C12 UNL     1       5.910  -1.596  -4.552  1.00  0.00     0.038 C 
HETATM   16  C13 UNL     1       7.496  -2.293  -2.792  1.00  0.00     0.038 C 
HETATM   17  N4  UNL     1       7.057   0.039  -3.260  1.00  0.00    -0.354 N 
HETATM   18  C14 UNL     1       7.244   0.667  -2.119  1.00  0.00     0.211 C 
ATOM     19  H4  UNL     1       7.328   0.449  -4.153  1.00  0.00     0.163 HD
HETATM   20  N5  UNL     1       7.850   1.945  -2.152  1.00  0.00    -0.062 NA
ENDBRANCH  10  11
ENDBRANCH   9  10
ENDBRANCH   8   9
ENDBRANCH   7   8
ENDBRANCH   3   7
BRANCH   1  21
HETATM   21  C3  UNL     1      11.167   1.485   0.079  1.00  0.00     0.241 C 
BRANCH  21  22
HETATM   22  N1  UNL     1      10.021   2.329  -0.096  1.00  0.00    -0.075 N 
ATOM     23  H12 UNL     1       9.312   1.878  -0.673  1.00  0.00     0.277 HD
ATOM     24  H11 UNL     1      10.234   3.124  -0.697  1.00  0.00     0.277 HD
BRANCH  22  25
HETATM   25  C2  UNL     1       9.472   2.759   1.181  1.00  0.00     0.228 C 
HETATM   26  C1  UNL     1       9.658   4.257   1.291  1.00  0.00     0.034 C 
ENDBRANCH  22  25
ENDBRANCH  21  22
ENDBRANCH   1  21
BRANCH   6  27
HETATM   27  O2  UNL     1      13.012  -0.897  -0.211  1.00  0.00    -0.395 OA
ATOM     28  H2  UNL     1      13.645  -0.254  -0.509  1.00  0.00     0.210 HD
ENDBRANCH   6  27
TORSDOF 9
ENDMDL
