MODEL 1
REMARK VINA RESULT: -7.572808763      0.000      0.000
REMARK  6 active torsions:
REMARK  status: ('A' for Active; 'I' for Inactive)
REMARK    1  A    between atoms: C2_2  and  C3_3 
REMARK    2  A    between atoms: C16_16  and  N1_17 
REMARK    3  A    between atoms: N1_17  and  C17_19 
REMARK    4  A    between atoms: N2_21  and  O1_23 
REMARK    5  A    between atoms: O1_23  and  C18_24 
REMARK    6  A    between atoms: C22_28  and  O2_29 
ROOT
HETATM    1  C3  UNL     1      17.553  -8.091  17.051  1.00  0.00    -0.027 C 
HETATM    2  C4  UNL     1      17.518  -8.271  18.584  1.00  0.00     0.019 C 
HETATM    3  C5  UNL     1      17.942  -6.670  16.771  1.00  0.00     0.013 C 
HETATM    4  C6  UNL     1      16.746  -5.789  16.758  1.00  0.00     0.006 C 
HETATM    5  C7  UNL     1      15.727  -6.161  15.701  1.00  0.00    -0.005 C 
HETATM    6  C8  UNL     1      15.703  -7.622  15.419  1.00  0.00    -0.009 C 
HETATM    7  C9  UNL     1      16.367  -7.981  14.099  1.00  0.00     0.006 C 
HETATM    8  C10 UNL     1      15.591  -7.347  12.980  1.00  0.00     0.010 C 
HETATM    9  C11 UNL     1      15.213  -5.923  13.247  1.00  0.00    -0.036 C 
HETATM   10  C12 UNL     1      13.735  -5.794  13.332  1.00  0.00     0.016 C 
HETATM   11  C13 UNL     1      15.678  -5.087  12.058  1.00  0.00     0.001 C 
HETATM   12  C14 UNL     1      17.154  -4.853  12.116  1.00  0.00     0.008 C 
HETATM   13  C15 UNL     1      17.514  -4.234  10.749  1.00  0.00     0.025 C 
HETATM   14  C16 UNL     1      16.780  -2.955  10.623  1.00  0.00     0.084 C 
HETATM   15  C20 UNL     1      15.332  -2.916  11.003  1.00  0.00     0.032 C 
HETATM   16  C21 UNL     1      15.026  -3.726  12.230  1.00  0.00     0.021 C 
HETATM   17  C22 UNL     1      15.463  -3.043  13.476  1.00  0.00     0.123 C 
HETATM   18  C23 UNL     1      15.545  -3.935  14.681  1.00  0.00     0.038 C 
HETATM   19  C24 UNL     1      15.953  -5.335  14.425  1.00  0.00     0.001 C 
HETATM   20  C25 UNL     1      16.201  -8.484  16.549  1.00  0.00     0.018 C 
ENDROOT
BRANCH  14  21
HETATM   21  N1  UNL     1      16.922  -2.291   9.305  1.00  0.00    -0.361 N 
ATOM     22  H1  UNL     1      16.714  -2.817   8.456  1.00  0.00     0.162 HD
BRANCH  21  23
HETATM   23  C17 UNL     1      17.337  -0.957   9.203  1.00  0.00     0.192 C 
HETATM   24  S1  UNL     1      16.147   0.223   8.886  1.00  0.00    -0.039 SA
HETATM   25  N2  UNL     1      18.545  -0.379   9.396  1.00  0.00    -0.241 N 
ATOM     26  H2  UNL     1      18.541   0.627   9.226  1.00  0.00     0.197 HD
BRANCH  25  27
HETATM   27  O1  UNL     1      19.739  -0.843   9.760  1.00  0.00    -0.279 OA
BRANCH  27  28
HETATM   28  C18 UNL     1      20.292  -1.247   8.470  1.00  0.00     0.197 C 
HETATM   29  C19 UNL     1      20.806  -2.643   8.848  1.00  0.00     0.036 C 
ENDBRANCH  27  28
ENDBRANCH  25  27
ENDBRANCH  21  23
ENDBRANCH  14  21
BRANCH  17  30
HETATM   30  O2  UNL     1      14.525  -2.047  13.774  1.00  0.00    -0.395 OA
ATOM     31  H2  UNL     1      14.965  -1.373  14.279  1.00  0.00     0.210 HD
ENDBRANCH  17  30
BRANCH   1  32
HETATM   32  C2  UNL     1      18.592  -9.041  16.569  1.00  0.00    -0.028 C 
HETATM   33  C1  UNL     1      19.610  -8.791  15.836  1.00  0.00     0.007 C 
ENDBRANCH   1  32
TORSDOF 6
ENDMDL
MODEL 2
REMARK VINA RESULT: -7.560158545      4.559      7.857
REMARK  6 active torsions:
REMARK  status: ('A' for Active; 'I' for Inactive)
REMARK    1  A    between atoms: C2_2  and  C3_3 
REMARK    2  A    between atoms: C16_16  and  N1_17 
REMARK    3  A    between atoms: N1_17  and  C17_19 
REMARK    4  A    between atoms: N2_21  and  O1_23 
REMARK    5  A    between atoms: O1_23  and  C18_24 
REMARK    6  A    between atoms: C22_28  and  O2_29 
ROOT
HETATM    1  C3  UNL     1      17.323  -2.184  10.188  1.00  0.00    -0.027 C 
HETATM    2  C4  UNL     1      17.347  -0.829   9.449  1.00  0.00     0.019 C 
HETATM    3  C5  UNL     1      16.022  -2.855   9.860  1.00  0.00     0.013 C 
HETATM    4  C6  UNL     1      14.955  -2.424  10.801  1.00  0.00     0.006 C 
HETATM    5  C7  UNL     1      15.248  -2.760  12.248  1.00  0.00    -0.005 C 
HETATM    6  C8  UNL     1      16.703  -2.743  12.557  1.00  0.00    -0.009 C 
HETATM    7  C9  UNL     1      17.294  -4.135  12.703  1.00  0.00     0.006 C 
HETATM    8  C10 UNL     1      16.646  -4.814  13.877  1.00  0.00     0.010 C 
HETATM    9  C11 UNL     1      15.159  -4.639  13.922  1.00  0.00    -0.036 C 
HETATM   10  C12 UNL     1      14.772  -3.858  15.126  1.00  0.00     0.016 C 
HETATM   11  C13 UNL     1      14.531  -6.024  14.053  1.00  0.00     0.001 C 
HETATM   12  C14 UNL     1      14.548  -6.744  12.742  1.00  0.00     0.008 C 
HETATM   13  C15 UNL     1      14.132  -8.191  13.075  1.00  0.00     0.025 C 
HETATM   14  C16 UNL     1      12.765  -8.152  13.640  1.00  0.00     0.084 C 
HETATM   15  C20 UNL     1      12.444  -7.119  14.676  1.00  0.00     0.032 C 
HETATM   16  C21 UNL     1      13.070  -5.785  14.387  1.00  0.00     0.021 C 
HETATM   17  C22 UNL     1      12.356  -5.053  13.308  1.00  0.00     0.123 C 
HETATM   18  C23 UNL     1      13.130  -3.915  12.707  1.00  0.00     0.038 C 
HETATM   19  C24 UNL     1      14.597  -4.099  12.629  1.00  0.00     0.001 C 
HETATM   20  C25 UNL     1      17.526  -1.879  11.637  1.00  0.00     0.018 C 
ENDROOT
BRANCH  14  21
HETATM   21  N1  UNL     1      12.264  -9.459  14.129  1.00  0.00    -0.361 N 
ATOM     22  H1  UNL     1      11.799 -10.091  13.478  1.00  0.00     0.162 HD
BRANCH  21  23
HETATM   23  C17 UNL     1      12.417  -9.841  15.469  1.00  0.00     0.192 C 
HETATM   24  S1  UNL     1      11.017 -10.295  16.331  1.00  0.00    -0.039 SA
HETATM   25  N2  UNL     1      13.524 -10.008  16.230  1.00  0.00    -0.241 N 
ATOM     26  H2  UNL     1      13.313 -10.278  17.191  1.00  0.00     0.197 HD
BRANCH  25  27
HETATM   27  O1  UNL     1      14.829  -9.893  15.992  1.00  0.00    -0.279 OA
BRANCH  27  28
HETATM   28  C18 UNL     1      15.141  -8.659  16.708  1.00  0.00     0.197 C 
HETATM   29  C19 UNL     1      16.486  -8.325  16.050  1.00  0.00     0.036 C 
ENDBRANCH  27  28
ENDBRANCH  25  27
ENDBRANCH  21  23
ENDBRANCH  14  21
BRANCH  17  30
HETATM   30  O2  UNL     1      11.191  -4.504  13.857  1.00  0.00    -0.395 OA
ATOM     31  H2  UNL     1      10.484  -4.638  13.236  1.00  0.00     0.210 HD
ENDBRANCH  17  30
BRANCH   1  32
HETATM   32  C2  UNL     1      18.477  -2.949   9.643  1.00  0.00    -0.028 C 
HETATM   33  C1  UNL     1      19.725  -2.706   9.790  1.00  0.00     0.007 C 
ENDBRANCH   1  32
TORSDOF 6
ENDMDL
MODEL 3
REMARK VINA RESULT: -7.464013287      3.660      4.914
REMARK  6 active torsions:
REMARK  status: ('A' for Active; 'I' for Inactive)
REMARK    1  A    between atoms: C2_2  and  C3_3 
REMARK    2  A    between atoms: C16_16  and  N1_17 
REMARK    3  A    between atoms: N1_17  and  C17_19 
REMARK    4  A    between atoms: N2_21  and  O1_23 
REMARK    5  A    between atoms: O1_23  and  C18_24 
REMARK    6  A    between atoms: C22_28  and  O2_29 
ROOT
HETATM    1  C3  UNL     1      16.429  -8.682  18.648  1.00  0.00    -0.027 C 
HETATM    2  C4  UNL     1      16.022  -9.836  19.590  1.00  0.00     0.019 C 
HETATM    3  C5  UNL     1      15.283  -7.717  18.593  1.00  0.00     0.013 C 
HETATM    4  C6  UNL     1      14.309  -8.113  17.542  1.00  0.00     0.006 C 
HETATM    5  C7  UNL     1      14.899  -8.145  16.147  1.00  0.00    -0.005 C 
HETATM    6  C8  UNL     1      16.341  -8.510  16.144  1.00  0.00    -0.009 C 
HETATM    7  C9  UNL     1      17.252  -7.321  15.891  1.00  0.00     0.006 C 
HETATM    8  C10 UNL     1      16.975  -6.783  14.515  1.00  0.00     0.010 C 
HETATM    9  C11 UNL     1      15.515  -6.667  14.203  1.00  0.00    -0.036 C 
HETATM   10  C12 UNL     1      15.155  -7.587  13.092  1.00  0.00     0.016 C 
HETATM   11  C13 UNL     1      15.252  -5.243  13.722  1.00  0.00     0.001 C 
HETATM   12  C14 UNL     1      15.225  -4.288  14.873  1.00  0.00     0.008 C 
HETATM   13  C15 UNL     1      15.213  -2.887  14.229  1.00  0.00     0.025 C 
HETATM   14  C16 UNL     1      13.982  -2.771  13.416  1.00  0.00     0.084 C 
HETATM   15  C20 UNL     1      13.600  -3.911  12.522  1.00  0.00     0.032 C 
HETATM   16  C21 UNL     1      13.847  -5.253  13.146  1.00  0.00     0.021 C 
HETATM   17  C22 UNL     1      12.821  -5.595  14.167  1.00  0.00     0.123 C 
HETATM   18  C23 UNL     1      13.206  -6.715  15.089  1.00  0.00     0.038 C 
HETATM   19  C24 UNL     1      14.644  -6.810  15.428  1.00  0.00     0.001 C 
HETATM   20  C25 UNL     1      16.785  -9.312  17.339  1.00  0.00     0.018 C 
ENDROOT
BRANCH  14  21
HETATM   21  N1  UNL     1      13.881  -1.520  12.627  1.00  0.00    -0.361 N 
ATOM     22  H1  UNL     1      14.658  -0.859  12.636  1.00  0.00     0.162 HD
BRANCH  21  23
HETATM   23  C17 UNL     1      12.739  -1.228  11.870  1.00  0.00     0.192 C 
HETATM   24  S1  UNL     1      12.899  -1.191  10.172  1.00  0.00    -0.039 SA
HETATM   25  N2  UNL     1      11.449  -1.038  12.233  1.00  0.00    -0.241 N 
ATOM     26  H2  UNL     1      10.839  -0.818  11.446  1.00  0.00     0.197 HD
BRANCH  25  27
HETATM   27  O1  UNL     1      10.807  -1.077  13.399  1.00  0.00    -0.279 OA
BRANCH  27  28
HETATM   28  C18 UNL     1       9.899   0.058  13.262  1.00  0.00     0.197 C 
HETATM   29  C19 UNL     1       8.595  -0.612  13.714  1.00  0.00     0.036 C 
ENDBRANCH  27  28
ENDBRANCH  25  27
ENDBRANCH  21  23
ENDBRANCH  14  21
BRANCH  17  30
HETATM   30  O2  UNL     1      11.664  -6.005  13.494  1.00  0.00    -0.395 OA
ATOM     31  H2  UNL     1      11.656  -6.954  13.477  1.00  0.00     0.210 HD
ENDBRANCH  17  30
BRANCH   1  32
HETATM   32  C2  UNL     1      17.627  -8.064  19.279  1.00  0.00    -0.028 C 
HETATM   33  C1  UNL     1      18.644  -8.652  19.784  1.00  0.00     0.007 C 
ENDBRANCH   1  32
TORSDOF 6
ENDMDL
MODEL 4
REMARK VINA RESULT: -7.463169441      1.791      2.211
REMARK  6 active torsions:
REMARK  status: ('A' for Active; 'I' for Inactive)
REMARK    1  A    between atoms: C2_2  and  C3_3 
REMARK    2  A    between atoms: C16_16  and  N1_17 
REMARK    3  A    between atoms: N1_17  and  C17_19 
REMARK    4  A    between atoms: N2_21  and  O1_23 
REMARK    5  A    between atoms: O1_23  and  C18_24 
REMARK    6  A    between atoms: C22_28  and  O2_29 
ROOT
HETATM    1  C3  UNL     1      15.518  -9.208  17.390  1.00  0.00    -0.027 C 
HETATM    2  C4  UNL     1      15.395  -9.454  18.910  1.00  0.00     0.019 C 
HETATM    3  C5  UNL     1      16.522  -8.113  17.188  1.00  0.00     0.013 C 
HETATM    4  C6  UNL     1      15.871  -6.780  17.261  1.00  0.00     0.006 C 
HETATM    5  C7  UNL     1      14.801  -6.567  16.211  1.00  0.00    -0.005 C 
HETATM    6  C8  UNL     1      14.104  -7.828  15.840  1.00  0.00    -0.009 C 
HETATM    7  C9  UNL     1      14.532  -8.364  14.484  1.00  0.00     0.006 C 
HETATM    8  C10 UNL     1      14.144  -7.369  13.427  1.00  0.00     0.010 C 
HETATM    9  C11 UNL     1      14.469  -5.953  13.791  1.00  0.00    -0.036 C 
HETATM   10  C12 UNL     1      13.218  -5.161  13.924  1.00  0.00     0.016 C 
HETATM   11  C13 UNL     1      15.274  -5.349  12.645  1.00  0.00     0.001 C 
HETATM   12  C14 UNL     1      16.690  -5.830  12.677  1.00  0.00     0.008 C 
HETATM   13  C15 UNL     1      17.303  -5.357  11.342  1.00  0.00     0.025 C 
HETATM   14  C16 UNL     1      17.246  -3.879  11.315  1.00  0.00     0.084 C 
HETATM   15  C20 UNL     1      15.979  -3.199  11.736  1.00  0.00     0.032 C 
HETATM   16  C21 UNL     1      15.326  -3.857  12.917  1.00  0.00     0.021 C 
HETATM   17  C22 UNL     1      16.023  -3.539  14.191  1.00  0.00     0.123 C 
HETATM   18  C23 UNL     1      15.676  -4.446  15.336  1.00  0.00     0.038 C 
HETATM   19  C24 UNL     1      15.391  -5.855  14.983  1.00  0.00     0.001 C 
HETATM   20  C25 UNL     1      14.140  -8.897  16.901  1.00  0.00     0.018 C 
ENDROOT
BRANCH  14  21
HETATM   21  N1  UNL     1      17.686  -3.270  10.037  1.00  0.00    -0.361 N 
ATOM     22  H1  UNL     1      17.174  -3.481   9.180  1.00  0.00     0.162 HD
BRANCH  21  23
HETATM   23  C17 UNL     1      18.791  -2.410   9.984  1.00  0.00     0.192 C 
HETATM   24  S1  UNL     1      20.207  -2.883  10.808  1.00  0.00    -0.039 SA
HETATM   25  N2  UNL     1      18.994  -1.256   9.306  1.00  0.00    -0.241 N 
ATOM     26  H2  UNL     1      19.908  -0.841   9.486  1.00  0.00     0.197 HD
BRANCH  25  27
HETATM   27  O1  UNL     1      18.254  -0.547   8.456  1.00  0.00    -0.279 OA
BRANCH  27  28
HETATM   28  C18 UNL     1      17.457   0.259   9.377  1.00  0.00     0.197 C 
HETATM   29  C19 UNL     1      16.054  -0.112   8.879  1.00  0.00     0.036 C 
ENDBRANCH  27  28
ENDBRANCH  25  27
ENDBRANCH  21  23
ENDBRANCH  14  21
BRANCH  17  30
HETATM   30  O2  UNL     1      15.653  -2.244  14.575  1.00  0.00    -0.395 OA
ATOM     31  H2  UNL     1      16.430  -1.798  14.888  1.00  0.00     0.210 HD
ENDBRANCH  17  30
BRANCH   1  32
HETATM   32  C2  UNL     1      16.000 -10.496  16.822  1.00  0.00    -0.028 C 
HETATM   33  C1  UNL     1      17.177 -10.786  16.413  1.00  0.00     0.007 C 
ENDBRANCH   1  32
TORSDOF 6
ENDMDL
MODEL 5
REMARK VINA RESULT: -7.430732912      4.873      8.472
REMARK  6 active torsions:
REMARK  status: ('A' for Active; 'I' for Inactive)
REMARK    1  A    between atoms: C2_2  and  C3_3 
REMARK    2  A    between atoms: C16_16  and  N1_17 
REMARK    3  A    between atoms: N1_17  and  C17_19 
REMARK    4  A    between atoms: N2_21  and  O1_23 
REMARK    5  A    between atoms: O1_23  and  C18_24 
REMARK    6  A    between atoms: C22_28  and  O2_29 
ROOT
HETATM    1  C3  UNL     1      17.617  -2.252  10.297  1.00  0.00    -0.027 C 
HETATM    2  C4  UNL     1      17.742  -0.906   9.551  1.00  0.00     0.019 C 
HETATM    3  C5  UNL     1      16.312  -2.873   9.896  1.00  0.00     0.013 C 
HETATM    4  C6  UNL     1      15.209  -2.390  10.766  1.00  0.00     0.006 C 
HETATM    5  C7  UNL     1      15.399  -2.722  12.232  1.00  0.00    -0.005 C 
HETATM    6  C8  UNL     1      16.832  -2.761  12.628  1.00  0.00    -0.009 C 
HETATM    7  C9  UNL     1      17.356  -4.174  12.821  1.00  0.00     0.006 C 
HETATM    8  C10 UNL     1      16.611  -4.814  13.959  1.00  0.00     0.010 C 
HETATM    9  C11 UNL     1      15.132  -4.580  13.911  1.00  0.00    -0.036 C 
HETATM   10  C12 UNL     1      14.705  -3.771  15.083  1.00  0.00     0.016 C 
HETATM   11  C13 UNL     1      14.442  -5.936  14.015  1.00  0.00     0.001 C 
HETATM   12  C14 UNL     1      14.509  -6.670  12.713  1.00  0.00     0.008 C 
HETATM   13  C15 UNL     1      14.015  -8.096  13.031  1.00  0.00     0.025 C 
HETATM   14  C16 UNL     1      12.619  -7.995  13.511  1.00  0.00     0.084 C 
HETATM   15  C20 UNL     1      12.277  -6.940  14.517  1.00  0.00     0.032 C 
HETATM   16  C21 UNL     1      12.973  -5.636  14.257  1.00  0.00     0.021 C 
HETATM   17  C22 UNL     1      12.357  -4.886  13.130  1.00  0.00     0.123 C 
HETATM   18  C23 UNL     1      13.212  -3.786  12.570  1.00  0.00     0.038 C 
HETATM   19  C24 UNL     1      14.672  -4.031  12.582  1.00  0.00     0.001 C 
HETATM   20  C25 UNL     1      17.744  -1.940  11.754  1.00  0.00     0.018 C 
ENDROOT
BRANCH  14  21
HETATM   21  N1  UNL     1      12.036  -9.276  13.979  1.00  0.00    -0.361 N 
ATOM     22  H1  UNL     1      11.868 -10.024  13.306  1.00  0.00     0.162 HD
BRANCH  21  23
HETATM   23  C17 UNL     1      11.712  -9.478  15.327  1.00  0.00     0.192 C 
HETATM   24  S1  UNL     1      12.962  -9.963  16.381  1.00  0.00    -0.039 SA
HETATM   25  N2  UNL     1      10.561  -9.277  16.010  1.00  0.00    -0.241 N 
ATOM     26  H2  UNL     1      10.626  -9.538  16.993  1.00  0.00     0.197 HD
BRANCH  25  27
HETATM   27  O1  UNL     1       9.360  -8.811  15.670  1.00  0.00    -0.279 OA
BRANCH  27  28
HETATM   28  C18 UNL     1       9.072  -7.923  16.794  1.00  0.00     0.197 C 
HETATM   29  C19 UNL     1       7.579  -8.227  16.973  1.00  0.00     0.036 C 
ENDBRANCH  27  28
ENDBRANCH  25  27
ENDBRANCH  21  23
ENDBRANCH  14  21
BRANCH  17  30
HETATM   30  O2  UNL     1      11.184  -4.285  13.603  1.00  0.00    -0.395 OA
ATOM     31  H2  UNL     1      11.294  -3.343  13.545  1.00  0.00     0.210 HD
ENDBRANCH  17  30
BRANCH   1  32
HETATM   32  C2  UNL     1      18.770  -3.068   9.830  1.00  0.00    -0.028 C 
HETATM   33  C1  UNL     1      19.993  -2.712   9.713  1.00  0.00     0.007 C 
ENDBRANCH   1  32
TORSDOF 6
ENDMDL
