MODEL 1
REMARK VINA RESULT: -7.332926487      0.000      0.000
REMARK  6 active torsions:
REMARK  status: ('A' for Active; 'I' for Inactive)
REMARK    1  A    between atoms: C2_2  and  C3_3 
REMARK    2  A    between atoms: C2_2  and  C4_6 
REMARK    3  A    between atoms: C3_3  and  O1_4 
REMARK    4  A    between atoms: C5_7  and  O2_8 
REMARK    5  A    between atoms: C16_20  and  N1_21 
REMARK    6  A    between atoms: N1_21  and  C17_23 
ROOT
HETATM    1  C4  UNL     1      16.026  -7.512  16.576  1.00  0.00     0.049 C 
HETATM    2  C5  UNL     1      16.280  -8.412  15.444  1.00  0.00     0.127 C 
HETATM    3  C6  UNL     1      14.935  -8.450  14.754  1.00  0.00     0.042 C 
HETATM    4  C7  UNL     1      14.198  -7.191  14.977  1.00  0.00    -0.030 C 
HETATM    5  C8  UNL     1      12.730  -7.634  15.222  1.00  0.00     0.016 C 
HETATM    6  C9  UNL     1      14.732  -6.734  16.265  1.00  0.00     0.005 C 
HETATM    7  C10 UNL     1      15.050  -5.322  16.498  1.00  0.00     0.006 C 
HETATM    8  C11 UNL     1      14.340  -4.510  15.454  1.00  0.00     0.006 C 
HETATM    9  C12 UNL     1      14.902  -4.985  14.110  1.00  0.00     0.003 C 
HETATM   10  C13 UNL     1      14.922  -3.880  13.120  1.00  0.00    -0.034 C 
HETATM   11  C14 UNL     1      15.352  -2.628  13.881  1.00  0.00     0.016 C 
HETATM   12  C15 UNL     1      16.049  -4.011  12.062  1.00  0.00     0.035 C 
HETATM   13  C16 UNL     1      15.735  -3.333  10.796  1.00  0.00     0.082 C 
HETATM   14  C19 UNL     1      14.749  -2.181  10.841  1.00  0.00     0.034 C 
HETATM   15  C20 UNL     1      13.478  -2.475  11.599  1.00  0.00    -0.042 C 
HETATM   16  C21 UNL     1      12.959  -1.308  12.365  1.00  0.00     0.015 C 
HETATM   17  C22 UNL     1      12.375  -2.731  10.541  1.00  0.00     0.015 C 
HETATM   18  C23 UNL     1      13.690  -3.749  12.313  1.00  0.00     0.002 C 
HETATM   19  C24 UNL     1      12.546  -4.334  13.051  1.00  0.00     0.007 C 
HETATM   20  C25 UNL     1      12.706  -5.727  13.525  1.00  0.00     0.011 C 
HETATM   21  C26 UNL     1      14.105  -6.209  13.817  1.00  0.00    -0.032 C 
HETATM   22  C27 UNL     1      14.539  -7.038  12.640  1.00  0.00     0.016 C 
ENDROOT
BRANCH   1  23
HETATM   23  C2  UNL     1      16.044  -8.047  17.943  1.00  0.00    -0.059 C 
HETATM   24  C1  UNL     1      17.156  -7.856  18.695  1.00  0.00     0.017 C 
BRANCH  23  25
HETATM   25  C3  UNL     1      14.946  -8.748  18.627  1.00  0.00     0.198 C 
BRANCH  25  26
HETATM   26  O1  UNL     1      14.467  -9.883  18.018  1.00  0.00    -0.397 OA
ATOM     27  H1  UNL     1      13.982  -9.760  17.210  1.00  0.00     0.209 HD
ENDBRANCH  25  26
ENDBRANCH  23  25
ENDBRANCH   1  23
BRANCH   2  28
HETATM   28  O2  UNL     1      16.666  -9.669  15.857  1.00  0.00    -0.395 OA
ATOM     29  H2  UNL     1      17.581  -9.842  15.670  1.00  0.00     0.210 HD
ENDBRANCH   2  28
BRANCH  13  30
HETATM   30  N1  UNL     1      16.872  -2.835  10.103  1.00  0.00    -0.398 N 
ATOM     31  H1  UNL     1      17.745  -3.361  10.131  1.00  0.00     0.159 HD
BRANCH  30  32
HETATM   32  C17 UNL     1      16.812  -1.630   9.379  1.00  0.00     0.051 C 
HETATM   33  C18 UNL     1      18.106  -0.902   9.159  1.00  0.00     0.054 C 
ENDBRANCH  30  32
ENDBRANCH  13  30
TORSDOF 6
ENDMDL
MODEL 2
REMARK VINA RESULT: -7.332724588      1.872      2.374
REMARK  6 active torsions:
REMARK  status: ('A' for Active; 'I' for Inactive)
REMARK    1  A    between atoms: C2_2  and  C3_3 
REMARK    2  A    between atoms: C2_2  and  C4_6 
REMARK    3  A    between atoms: C3_3  and  O1_4 
REMARK    4  A    between atoms: C5_7  and  O2_8 
REMARK    5  A    between atoms: C16_20  and  N1_21 
REMARK    6  A    between atoms: N1_21  and  C17_23 
ROOT
HETATM    1  C4  UNL     1      18.296  -7.125  15.367  1.00  0.00     0.049 C 
HETATM    2  C5  UNL     1      18.509  -7.729  14.044  1.00  0.00     0.127 C 
HETATM    3  C6  UNL     1      17.118  -8.190  13.673  1.00  0.00     0.042 C 
HETATM    4  C7  UNL     1      16.097  -7.334  14.307  1.00  0.00    -0.030 C 
HETATM    5  C8  UNL     1      14.990  -8.321  14.770  1.00  0.00     0.016 C 
HETATM    6  C9  UNL     1      16.785  -6.860  15.514  1.00  0.00     0.005 C 
HETATM    7  C10 UNL     1      16.666  -5.468  15.959  1.00  0.00     0.006 C 
HETATM    8  C11 UNL     1      15.465  -4.869  15.287  1.00  0.00     0.006 C 
HETATM    9  C12 UNL     1      15.755  -4.941  13.784  1.00  0.00     0.003 C 
HETATM   10  C13 UNL     1      15.128  -3.805  13.064  1.00  0.00    -0.034 C 
HETATM   11  C14 UNL     1      15.311  -2.579  13.956  1.00  0.00     0.016 C 
HETATM   12  C15 UNL     1      15.892  -3.382  11.783  1.00  0.00     0.035 C 
HETATM   13  C16 UNL     1      15.030  -2.732  10.784  1.00  0.00     0.082 C 
HETATM   14  C19 UNL     1      13.772  -2.048  11.281  1.00  0.00     0.034 C 
HETATM   15  C20 UNL     1      12.936  -2.881  12.221  1.00  0.00    -0.042 C 
HETATM   16  C21 UNL     1      12.293  -2.090  13.307  1.00  0.00     0.015 C 
HETATM   17  C22 UNL     1      11.732  -3.410  11.401  1.00  0.00     0.015 C 
HETATM   18  C23 UNL     1      13.750  -4.055  12.592  1.00  0.00     0.002 C 
HETATM   19  C24 UNL     1      13.121  -5.107  13.423  1.00  0.00     0.007 C 
HETATM   20  C25 UNL     1      13.861  -6.382  13.552  1.00  0.00     0.011 C 
HETATM   21  C26 UNL     1      15.363  -6.333  13.425  1.00  0.00    -0.032 C 
HETATM   22  C27 UNL     1      15.701  -6.799  12.036  1.00  0.00     0.016 C 
ENDROOT
BRANCH   1  23
HETATM   23  C2  UNL     1      18.872  -7.766  16.555  1.00  0.00    -0.059 C 
HETATM   24  C1  UNL     1      18.082  -8.582  17.295  1.00  0.00     0.017 C 
BRANCH  23  25
HETATM   25  C3  UNL     1      20.263  -7.659  17.024  1.00  0.00     0.198 C 
BRANCH  25  26
HETATM   26  O1  UNL     1      21.177  -7.160  16.127  1.00  0.00    -0.397 OA
ATOM     27  H1  UNL     1      20.826  -6.740  15.350  1.00  0.00     0.209 HD
ENDBRANCH  25  26
ENDBRANCH  23  25
ENDBRANCH   1  23
BRANCH   2  28
HETATM   28  O2  UNL     1      19.390  -8.787  14.093  1.00  0.00    -0.395 OA
ATOM     29  H2  UNL     1      19.563  -9.149  13.232  1.00  0.00     0.210 HD
ENDBRANCH   2  28
BRANCH  13  30
HETATM   30  N1  UNL     1      15.696  -1.769   9.978  1.00  0.00    -0.398 N 
ATOM     31  H1  UNL     1      15.175  -0.967   9.623  1.00  0.00     0.159 HD
BRANCH  30  32
HETATM   32  C17 UNL     1      17.061  -1.902   9.664  1.00  0.00     0.051 C 
HETATM   33  C18 UNL     1      17.749  -0.699   9.088  1.00  0.00     0.054 C 
ENDBRANCH  30  32
ENDBRANCH  13  30
TORSDOF 6
ENDMDL
MODEL 3
REMARK VINA RESULT: -7.287983801      0.656      1.049
REMARK  6 active torsions:
REMARK  status: ('A' for Active; 'I' for Inactive)
REMARK    1  A    between atoms: C2_2  and  C3_3 
REMARK    2  A    between atoms: C2_2  and  C4_6 
REMARK    3  A    between atoms: C3_3  and  O1_4 
REMARK    4  A    between atoms: C5_7  and  O2_8 
REMARK    5  A    between atoms: C16_20  and  N1_21 
REMARK    6  A    between atoms: N1_21  and  C17_23 
ROOT
HETATM    1  C4  UNL     1      16.243  -7.328  16.493  1.00  0.00     0.049 C 
HETATM    2  C5  UNL     1      16.511  -8.227  15.363  1.00  0.00     0.127 C 
HETATM    3  C6  UNL     1      15.157  -8.315  14.695  1.00  0.00     0.042 C 
HETATM    4  C7  UNL     1      14.381  -7.081  14.921  1.00  0.00    -0.030 C 
HETATM    5  C8  UNL     1      12.933  -7.572  15.192  1.00  0.00     0.016 C 
HETATM    6  C9  UNL     1      14.919  -6.598  16.198  1.00  0.00     0.005 C 
HETATM    7  C10 UNL     1      15.191  -5.173  16.417  1.00  0.00     0.006 C 
HETATM    8  C11 UNL     1      14.438  -4.393  15.379  1.00  0.00     0.006 C 
HETATM    9  C12 UNL     1      14.996  -4.858  14.029  1.00  0.00     0.003 C 
HETATM   10  C13 UNL     1      14.961  -3.760  13.032  1.00  0.00    -0.034 C 
HETATM   11  C14 UNL     1      15.360  -2.489  13.779  1.00  0.00     0.016 C 
HETATM   12  C15 UNL     1      16.076  -3.859  11.957  1.00  0.00     0.035 C 
HETATM   13  C16 UNL     1      15.719  -3.201  10.692  1.00  0.00     0.082 C 
HETATM   14  C19 UNL     1      14.695  -2.084  10.745  1.00  0.00     0.034 C 
HETATM   15  C20 UNL     1      13.447  -2.415  11.525  1.00  0.00    -0.042 C 
HETATM   16  C21 UNL     1      12.900  -1.261  12.292  1.00  0.00     0.015 C 
HETATM   17  C22 UNL     1      12.337  -2.716  10.487  1.00  0.00     0.015 C 
HETATM   18  C23 UNL     1      13.713  -3.677  12.244  1.00  0.00     0.002 C 
HETATM   19  C24 UNL     1      12.602  -4.296  13.003  1.00  0.00     0.007 C 
HETATM   20  C25 UNL     1      12.817  -5.679  13.484  1.00  0.00     0.011 C 
HETATM   21  C26 UNL     1      14.236  -6.110  13.757  1.00  0.00    -0.032 C 
HETATM   22  C27 UNL     1      14.680  -6.933  12.578  1.00  0.00     0.016 C 
ENDROOT
BRANCH   1  23
HETATM   23  C2  UNL     1      16.302  -7.853  17.863  1.00  0.00    -0.059 C 
HETATM   24  C1  UNL     1      15.166  -8.349  18.412  1.00  0.00     0.017 C 
BRANCH  23  25
HETATM   25  C3  UNL     1      17.496  -7.948  18.717  1.00  0.00     0.198 C 
BRANCH  25  26
HETATM   26  O1  UNL     1      18.678  -8.258  18.089  1.00  0.00    -0.397 OA
ATOM     27  H1  UNL     1      19.079  -9.088  18.321  1.00  0.00     0.209 HD
ENDBRANCH  25  26
ENDBRANCH  23  25
ENDBRANCH   1  23
BRANCH   2  28
HETATM   28  O2  UNL     1      16.946  -9.467  15.777  1.00  0.00    -0.395 OA
ATOM     29  H2  UNL     1      17.881  -9.577  15.655  1.00  0.00     0.210 HD
ENDBRANCH   2  28
BRANCH  13  30
HETATM   30  N1  UNL     1      16.827  -2.670   9.978  1.00  0.00    -0.398 N 
ATOM     31  H1  UNL     1      17.716  -3.169   9.989  1.00  0.00     0.159 HD
BRANCH  30  32
HETATM   32  C17 UNL     1      16.718  -1.466   9.257  1.00  0.00     0.051 C 
HETATM   33  C18 UNL     1      17.991  -0.723   8.973  1.00  0.00     0.054 C 
ENDBRANCH  30  32
ENDBRANCH  13  30
TORSDOF 6
ENDMDL
MODEL 4
REMARK VINA RESULT: -7.041839675      1.373      1.538
REMARK  6 active torsions:
REMARK  status: ('A' for Active; 'I' for Inactive)
REMARK    1  A    between atoms: C2_2  and  C3_3 
REMARK    2  A    between atoms: C2_2  and  C4_6 
REMARK    3  A    between atoms: C3_3  and  O1_4 
REMARK    4  A    between atoms: C5_7  and  O2_8 
REMARK    5  A    between atoms: C16_20  and  N1_21 
REMARK    6  A    between atoms: N1_21  and  C17_23 
ROOT
HETATM    1  C4  UNL     1      17.814  -7.303  15.877  1.00  0.00     0.049 C 
HETATM    2  C5  UNL     1      18.057  -8.046  14.633  1.00  0.00     0.127 C 
HETATM    3  C6  UNL     1      16.654  -8.352  14.162  1.00  0.00     0.042 C 
HETATM    4  C7  UNL     1      15.710  -7.316  14.623  1.00  0.00    -0.030 C 
HETATM    5  C8  UNL     1      14.440  -8.104  15.047  1.00  0.00     0.016 C 
HETATM    6  C9  UNL     1      16.347  -6.830  15.851  1.00  0.00     0.005 C 
HETATM    7  C10 UNL     1      16.383  -5.400  16.174  1.00  0.00     0.006 C 
HETATM    8  C11 UNL     1      15.342  -4.711  15.341  1.00  0.00     0.006 C 
HETATM    9  C12 UNL     1      15.751  -4.957  13.885  1.00  0.00     0.003 C 
HETATM   10  C13 UNL     1      15.354  -3.817  13.020  1.00  0.00    -0.034 C 
HETATM   11  C14 UNL     1      15.626  -2.551  13.829  1.00  0.00     0.016 C 
HETATM   12  C15 UNL     1      16.280  -3.615  11.792  1.00  0.00     0.035 C 
HETATM   13  C16 UNL     1      15.608  -2.950  10.666  1.00  0.00     0.082 C 
HETATM   14  C19 UNL     1      14.418  -2.066  10.980  1.00  0.00     0.034 C 
HETATM   15  C20 UNL     1      13.395  -2.694  11.893  1.00  0.00    -0.042 C 
HETATM   16  C21 UNL     1      12.774  -1.731  12.846  1.00  0.00     0.015 C 
HETATM   17  C22 UNL     1      12.207  -3.133  11.000  1.00  0.00     0.015 C 
HETATM   18  C23 UNL     1      14.002  -3.927  12.433  1.00  0.00     0.002 C 
HETATM   19  C24 UNL     1      13.161  -4.808  13.277  1.00  0.00     0.007 C 
HETATM   20  C25 UNL     1      13.703  -6.152  13.577  1.00  0.00     0.011 C 
HETATM   21  C26 UNL     1      15.203  -6.312  13.597  1.00  0.00    -0.032 C 
HETATM   22  C27 UNL     1      15.594  -6.941  12.289  1.00  0.00     0.016 C 
ENDROOT
BRANCH   1  23
HETATM   23  C2  UNL     1      18.188  -7.904  17.163  1.00  0.00    -0.059 C 
HETATM   24  C1  UNL     1      19.504  -7.981  17.480  1.00  0.00     0.017 C 
BRANCH  23  25
HETATM   25  C3  UNL     1      17.271  -8.406  18.198  1.00  0.00     0.198 C 
BRANCH  25  26
HETATM   26  O1  UNL     1      17.191  -7.672  19.358  1.00  0.00    -0.397 OA
ATOM     27  H1  UNL     1      17.089  -8.163  20.165  1.00  0.00     0.209 HD
ENDBRANCH  25  26
ENDBRANCH  23  25
ENDBRANCH   1  23
BRANCH   2  28
HETATM   28  O2  UNL     1      18.775  -9.202  14.852  1.00  0.00    -0.395 OA
ATOM     29  H2  UNL     1      18.793  -9.762  14.085  1.00  0.00     0.210 HD
ENDBRANCH   2  28
BRANCH  13  30
HETATM   30  N1  UNL     1      16.470  -2.159   9.858  1.00  0.00    -0.398 N 
ATOM     31  H1  UNL     1      17.416  -2.487   9.664  1.00  0.00     0.159 HD
BRANCH  30  32
HETATM   32  C17 UNL     1      16.038  -0.931   9.322  1.00  0.00     0.051 C 
HETATM   33  C18 UNL     1      17.081  -0.067   8.674  1.00  0.00     0.054 C 
ENDBRANCH  30  32
ENDBRANCH  13  30
TORSDOF 6
ENDMDL
MODEL 5
REMARK VINA RESULT: -6.708502691      5.116      8.384
REMARK  6 active torsions:
REMARK  status: ('A' for Active; 'I' for Inactive)
REMARK    1  A    between atoms: C2_2  and  C3_3 
REMARK    2  A    between atoms: C2_2  and  C4_6 
REMARK    3  A    between atoms: C3_3  and  O1_4 
REMARK    4  A    between atoms: C5_7  and  O2_8 
REMARK    5  A    between atoms: C16_20  and  N1_21 
REMARK    6  A    between atoms: N1_21  and  C17_23 
ROOT
HETATM    1  C4  UNL     1      14.825  -7.636  16.616  1.00  0.00     0.049 C 
HETATM    2  C5  UNL     1      14.602  -8.154  15.260  1.00  0.00     0.127 C 
HETATM    3  C6  UNL     1      14.314  -9.616  15.518  1.00  0.00     0.042 C 
HETATM    4  C7  UNL     1      13.706  -9.802  16.849  1.00  0.00    -0.030 C 
HETATM    5  C8  UNL     1      14.381 -11.083  17.413  1.00  0.00     0.016 C 
HETATM    6  C9  UNL     1      14.241  -8.664  17.604  1.00  0.00     0.005 C 
HETATM    7  C10 UNL     1      13.395  -7.897  18.524  1.00  0.00     0.006 C 
HETATM    8  C11 UNL     1      12.185  -8.728  18.841  1.00  0.00     0.006 C 
HETATM    9  C12 UNL     1      11.477  -8.953  17.501  1.00  0.00     0.003 C 
HETATM   10  C13 UNL     1      10.008  -9.053  17.685  1.00  0.00    -0.034 C 
HETATM   11  C14 UNL     1       9.635  -8.007  18.733  1.00  0.00     0.016 C 
HETATM   12  C15 UNL     1       9.193  -8.574  16.455  1.00  0.00     0.035 C 
HETATM   13  C16 UNL     1       7.864  -9.198  16.364  1.00  0.00     0.082 C 
HETATM   14  C19 UNL     1       7.236  -9.704  17.648  1.00  0.00     0.034 C 
HETATM   15  C20 UNL     1       8.148 -10.553  18.498  1.00  0.00    -0.042 C 
HETATM   16  C21 UNL     1       7.963 -10.345  19.962  1.00  0.00     0.015 C 
HETATM   17  C22 UNL     1       7.716 -12.026  18.287  1.00  0.00     0.015 C 
HETATM   18  C23 UNL     1       9.506 -10.421  17.935  1.00  0.00     0.002 C 
HETATM   19  C24 UNL     1      10.587 -11.250  18.515  1.00  0.00     0.007 C 
HETATM   20  C25 UNL     1      11.862 -11.298  17.765  1.00  0.00     0.011 C 
HETATM   21  C26 UNL     1      12.216 -10.105  16.912  1.00  0.00    -0.032 C 
HETATM   22  C27 UNL     1      11.887 -10.470  15.490  1.00  0.00     0.016 C 
ENDROOT
BRANCH   1  23
HETATM   23  C2  UNL     1      16.167  -7.183  17.004  1.00  0.00    -0.059 C 
HETATM   24  C1  UNL     1      17.028  -8.091  17.526  1.00  0.00     0.017 C 
BRANCH  23  25
HETATM   25  C3  UNL     1      16.717  -5.828  16.845  1.00  0.00     0.198 C 
BRANCH  25  26
HETATM   26  O1  UNL     1      17.291  -5.536  15.630  1.00  0.00    -0.397 OA
ATOM     27  H1  UNL     1      17.207  -4.640  15.324  1.00  0.00     0.209 HD
ENDBRANCH  25  26
ENDBRANCH  23  25
ENDBRANCH   1  23
BRANCH   2  28
HETATM   28  O2  UNL     1      15.709  -7.997  14.455  1.00  0.00    -0.395 OA
ATOM     29  H2  UNL     1      15.650  -8.513  13.660  1.00  0.00     0.210 HD
ENDBRANCH   2  28
BRANCH  13  30
HETATM   30  N1  UNL     1       6.876  -8.380  15.753  1.00  0.00    -0.398 N 
ATOM     31  H1  UNL     1       6.696  -7.448  16.127  1.00  0.00     0.159 HD
BRANCH  30  32
HETATM   32  C17 UNL     1       6.143  -8.833  14.640  1.00  0.00     0.051 C 
HETATM   33  C18 UNL     1       4.816  -9.477  14.915  1.00  0.00     0.054 C 
ENDBRANCH  30  32
ENDBRANCH  13  30
TORSDOF 6
ENDMDL
