MODEL 1
REMARK VINA RESULT: -8.322568345      0.000      0.000
REMARK  7 active torsions:
REMARK  status: ('A' for Active; 'I' for Inactive)
REMARK    1  A    between atoms: C5_5  and  C6_6 
REMARK    2  A    between atoms: C6_6  and  C8_8 
REMARK    3  A    between atoms: C8_8  and  C9_9 
REMARK    4  A    between atoms: C9_9  and  O1_10 
REMARK    5  A    between atoms: C9_9  and  C10_12 
REMARK    6  A    between atoms: C16_18  and  O2_19 
REMARK    7  A    between atoms: C23_27  and  O3_28 
ROOT
HETATM    1  C1  UNL     1      12.669  -0.465  11.917  1.00  0.00     0.012 C 
HETATM    2  C2  UNL     1      13.109  -1.455  11.399  1.00  0.00    -0.112 C 
HETATM    3  C3  UNL     1      13.609  -2.633  10.765  1.00  0.00     0.073 C 
HETATM    4  C4  UNL     1      14.594  -2.156   9.665  1.00  0.00     0.053 C 
HETATM    5  C5  UNL     1      15.724  -1.729  10.585  1.00  0.00    -0.064 C 
HETATM    6  C13 UNL     1      15.842  -2.747  11.647  1.00  0.00    -0.013 C 
HETATM    7  C14 UNL     1      16.058  -2.046  12.956  1.00  0.00     0.021 C 
HETATM    8  C15 UNL     1      16.893  -3.805  11.553  1.00  0.00     0.046 C 
HETATM    9  C16 UNL     1      16.517  -5.096  12.257  1.00  0.00     0.124 C 
HETATM   10  C17 UNL     1      15.382  -4.993  13.206  1.00  0.00     0.027 C 
HETATM   11  C18 UNL     1      14.122  -4.375  12.582  1.00  0.00    -0.001 C 
HETATM   12  C19 UNL     1      13.162  -3.938  13.611  1.00  0.00     0.006 C 
HETATM   13  C20 UNL     1      13.573  -4.567  14.949  1.00  0.00     0.006 C 
HETATM   14  C21 UNL     1      13.890  -6.033  14.805  1.00  0.00    -0.004 C 
HETATM   15  C22 UNL     1      12.619  -6.735  14.446  1.00  0.00     0.037 C 
HETATM   16  C23 UNL     1      12.783  -8.202  14.203  1.00  0.00     0.118 C 
HETATM   17  C24 UNL     1      14.129  -8.589  13.712  1.00  0.00     0.032 C 
HETATM   18  C25 UNL     1      14.878  -7.470  12.994  1.00  0.00     0.012 C 
HETATM   19  C26 UNL     1      15.054  -6.302  13.886  1.00  0.00    -0.034 C 
HETATM   20  C27 UNL     1      16.274  -6.612  14.776  1.00  0.00     0.016 C 
HETATM   21  C28 UNL     1      14.536  -3.498  11.499  1.00  0.00     0.018 C 
ENDROOT
BRANCH   5  22
HETATM   22  C6  UNL     1      16.876  -1.061  10.000  1.00  0.00    -0.060 C 
HETATM   23  C7  UNL     1      16.376   0.161   9.165  1.00  0.00     0.048 C 
BRANCH  22  24
HETATM   24  C8  UNL     1      17.973  -1.743   9.345  1.00  0.00     0.016 C 
BRANCH  24  25
HETATM   25  C9  UNL     1      19.376  -1.332   9.412  1.00  0.00     0.169 C 
BRANCH  25  26
HETATM   26  O1  UNL     1      19.653  -0.860   8.081  1.00  0.00    -0.387 OA
ATOM     27  H1  UNL     1      20.071  -0.020   8.225  1.00  0.00     0.210 HD
ENDBRANCH  25  26
BRANCH  25  28
HETATM   28  C10 UNL     1      20.395  -2.358   9.627  1.00  0.00    -0.061 C 
HETATM   29  C11 UNL     1      20.554  -2.910  10.811  1.00  0.00     0.017 C 
HETATM   30  C12 UNL     1      21.289  -2.796   8.534  1.00  0.00     0.045 C 
ENDBRANCH  25  28
ENDBRANCH  24  25
ENDBRANCH  22  24
ENDBRANCH   5  22
BRANCH   9  31
HETATM   31  O2  UNL     1      16.331  -6.118  11.301  1.00  0.00    -0.395 OA
ATOM     32  H2  UNL     1      15.467  -6.498  11.406  1.00  0.00     0.210 HD
ENDBRANCH   9  31
BRANCH  16  33
HETATM   33  O3  UNL     1      11.777  -8.644  13.318  1.00  0.00    -0.396 OA
ATOM     34  H3  UNL     1      12.105  -9.378  12.812  1.00  0.00     0.210 HD
ENDBRANCH  16  33
TORSDOF 7
ENDMDL
MODEL 2
REMARK VINA RESULT: -8.172036074      2.920      6.091
REMARK  7 active torsions:
REMARK  status: ('A' for Active; 'I' for Inactive)
REMARK    1  A    between atoms: C5_5  and  C6_6 
REMARK    2  A    between atoms: C6_6  and  C8_8 
REMARK    3  A    between atoms: C8_8  and  C9_9 
REMARK    4  A    between atoms: C9_9  and  O1_10 
REMARK    5  A    between atoms: C9_9  and  C10_12 
REMARK    6  A    between atoms: C16_18  and  O2_19 
REMARK    7  A    between atoms: C23_27  and  O3_28 
ROOT
HETATM    1  C1  UNL     1      17.930  -6.558  16.090  1.00  0.00     0.012 C 
HETATM    2  C2  UNL     1      16.803  -6.142  16.083  1.00  0.00    -0.112 C 
HETATM    3  C3  UNL     1      15.470  -5.630  16.098  1.00  0.00     0.073 C 
HETATM    4  C4  UNL     1      15.447  -4.434  15.110  1.00  0.00     0.053 C 
HETATM    5  C5  UNL     1      15.514  -5.239  13.824  1.00  0.00    -0.064 C 
HETATM    6  C13 UNL     1      14.629  -6.409  13.984  1.00  0.00    -0.013 C 
HETATM    7  C14 UNL     1      15.323  -7.611  13.415  1.00  0.00     0.021 C 
HETATM    8  C15 UNL     1      13.256  -6.391  13.395  1.00  0.00     0.046 C 
HETATM    9  C16 UNL     1      12.265  -7.263  14.145  1.00  0.00     0.124 C 
HETATM   10  C17 UNL     1      12.866  -8.248  15.077  1.00  0.00     0.027 C 
HETATM   11  C18 UNL     1      13.841  -7.617  16.082  1.00  0.00    -0.001 C 
HETATM   12  C19 UNL     1      14.694  -8.632  16.725  1.00  0.00     0.006 C 
HETATM   13  C20 UNL     1      14.088 -10.014  16.449  1.00  0.00     0.006 C 
HETATM   14  C21 UNL     1      12.601 -10.032  16.693  1.00  0.00    -0.004 C 
HETATM   15  C22 UNL     1      12.383  -9.823  18.158  1.00  0.00     0.037 C 
HETATM   16  C23 UNL     1      10.942  -9.752  18.553  1.00  0.00     0.118 C 
HETATM   17  C24 UNL     1      10.045  -9.245  17.486  1.00  0.00     0.032 C 
HETATM   18  C25 UNL     1      10.738  -8.362  16.454  1.00  0.00     0.012 C 
HETATM   19  C26 UNL     1      11.839  -9.096  15.790  1.00  0.00    -0.034 C 
HETATM   20  C27 UNL     1      11.189  -9.956  14.689  1.00  0.00     0.016 C 
HETATM   21  C28 UNL     1      14.398  -6.417  15.481  1.00  0.00     0.018 C 
ENDROOT
BRANCH   5  22
HETATM   22  C6  UNL     1      15.656  -4.522  12.566  1.00  0.00    -0.060 C 
HETATM   23  C7  UNL     1      17.146  -4.607  12.105  1.00  0.00     0.048 C 
BRANCH  22  24
HETATM   24  C8  UNL     1      15.088  -3.216  12.301  1.00  0.00     0.016 C 
BRANCH  24  25
HETATM   25  C9  UNL     1      13.875  -2.973  11.518  1.00  0.00     0.169 C 
BRANCH  25  26
HETATM   26  O1  UNL     1      13.961  -1.574  11.191  1.00  0.00    -0.387 OA
ATOM     27  H1  UNL     1      14.308  -1.573  10.307  1.00  0.00     0.210 HD
ENDBRANCH  25  26
BRANCH  25  28
HETATM   28  C10 UNL     1      12.579  -3.086  12.185  1.00  0.00    -0.061 C 
HETATM   29  C11 UNL     1      11.516  -3.486  11.521  1.00  0.00     0.017 C 
HETATM   30  C12 UNL     1      12.414  -2.740  13.612  1.00  0.00     0.045 C 
ENDBRANCH  25  28
ENDBRANCH  24  25
ENDBRANCH  22  24
ENDBRANCH   5  22
BRANCH   9  31
HETATM   31  O2  UNL     1      11.298  -6.448  14.770  1.00  0.00    -0.395 OA
ATOM     32  H2  UNL     1      10.533  -6.970  14.985  1.00  0.00     0.210 HD
ENDBRANCH   9  31
BRANCH  16  33
HETATM   33  O3  UNL     1      10.818  -8.977  19.726  1.00  0.00    -0.396 OA
ATOM     34  H3  UNL     1       9.986  -9.169  20.143  1.00  0.00     0.210 HD
ENDBRANCH  16  33
TORSDOF 7
ENDMDL
MODEL 3
REMARK VINA RESULT: -7.993675189      3.269      6.058
REMARK  7 active torsions:
REMARK  status: ('A' for Active; 'I' for Inactive)
REMARK    1  A    between atoms: C5_5  and  C6_6 
REMARK    2  A    between atoms: C6_6  and  C8_8 
REMARK    3  A    between atoms: C8_8  and  C9_9 
REMARK    4  A    between atoms: C9_9  and  O1_10 
REMARK    5  A    between atoms: C9_9  and  C10_12 
REMARK    6  A    between atoms: C16_18  and  O2_19 
REMARK    7  A    between atoms: C23_27  and  O3_28 
ROOT
HETATM    1  C1  UNL     1      13.548  -8.402  11.906  1.00  0.00     0.012 C 
HETATM    2  C2  UNL     1      14.608  -8.020  12.321  1.00  0.00    -0.112 C 
HETATM    3  C3  UNL     1      15.882  -7.584  12.795  1.00  0.00     0.073 C 
HETATM    4  C4  UNL     1      16.207  -6.270  12.036  1.00  0.00     0.053 C 
HETATM    5  C5  UNL     1      15.221  -5.374  12.763  1.00  0.00    -0.064 C 
HETATM    6  C13 UNL     1      15.269  -5.728  14.195  1.00  0.00    -0.013 C 
HETATM    7  C14 UNL     1      13.865  -5.754  14.725  1.00  0.00     0.021 C 
HETATM    8  C15 UNL     1      16.066  -4.895  15.144  1.00  0.00     0.046 C 
HETATM    9  C16 UNL     1      16.581  -5.669  16.344  1.00  0.00     0.124 C 
HETATM   10  C17 UNL     1      15.931  -6.982  16.578  1.00  0.00     0.027 C 
HETATM   11  C18 UNL     1      15.947  -7.897  15.344  1.00  0.00    -0.001 C 
HETATM   12  C19 UNL     1      14.987  -9.006  15.475  1.00  0.00     0.006 C 
HETATM   13  C20 UNL     1      14.546  -9.090  16.942  1.00  0.00     0.006 C 
HETATM   14  C21 UNL     1      15.719  -9.009  17.884  1.00  0.00    -0.004 C 
HETATM   15  C22 UNL     1      16.545 -10.239  17.680  1.00  0.00     0.037 C 
HETATM   16  C23 UNL     1      17.792 -10.277  18.506  1.00  0.00     0.118 C 
HETATM   17  C24 UNL     1      18.339  -8.940  18.841  1.00  0.00     0.032 C 
HETATM   18  C25 UNL     1      17.944  -7.839  17.861  1.00  0.00     0.012 C 
HETATM   19  C26 UNL     1      16.471  -7.707  17.788  1.00  0.00    -0.034 C 
HETATM   20  C27 UNL     1      16.049  -6.848  18.996  1.00  0.00     0.016 C 
HETATM   21  C28 UNL     1      15.993  -7.057  14.158  1.00  0.00     0.018 C 
ENDROOT
BRANCH   5  22
HETATM   22  C6  UNL     1      15.053  -4.007  12.293  1.00  0.00    -0.060 C 
HETATM   23  C7  UNL     1      16.366  -3.559  11.576  1.00  0.00     0.048 C 
BRANCH  22  24
HETATM   24  C8  UNL     1      14.482  -2.935  13.082  1.00  0.00     0.016 C 
BRANCH  24  25
HETATM   25  C9  UNL     1      13.324  -2.130  12.689  1.00  0.00     0.169 C 
BRANCH  25  26
HETATM   26  O1  UNL     1      12.453  -2.213  13.833  1.00  0.00    -0.387 OA
ATOM     27  H1  UNL     1      11.626  -2.496  13.462  1.00  0.00     0.210 HD
ENDBRANCH  25  26
BRANCH  25  28
HETATM   28  C10 UNL     1      12.484  -2.604  11.590  1.00  0.00    -0.061 C 
HETATM   29  C11 UNL     1      12.573  -2.060  10.395  1.00  0.00     0.017 C 
HETATM   30  C12 UNL     1      11.501  -3.689  11.784  1.00  0.00     0.045 C 
ENDBRANCH  25  28
ENDBRANCH  24  25
ENDBRANCH  22  24
ENDBRANCH   5  22
BRANCH   9  31
HETATM   31  O2  UNL     1      17.987  -5.768  16.275  1.00  0.00    -0.395 OA
ATOM     32  H2  UNL     1      18.369  -5.416  17.071  1.00  0.00     0.210 HD
ENDBRANCH   9  31
BRANCH  16  33
HETATM   33  O3  UNL     1      18.761 -11.068  17.853  1.00  0.00    -0.396 OA
ATOM     34  H3  UNL     1      19.184 -11.633  18.487  1.00  0.00     0.210 HD
ENDBRANCH  16  33
TORSDOF 7
ENDMDL
MODEL 4
REMARK VINA RESULT: -7.872398123      2.751      5.882
REMARK  7 active torsions:
REMARK  status: ('A' for Active; 'I' for Inactive)
REMARK    1  A    between atoms: C5_5  and  C6_6 
REMARK    2  A    between atoms: C6_6  and  C8_8 
REMARK    3  A    between atoms: C8_8  and  C9_9 
REMARK    4  A    between atoms: C9_9  and  O1_10 
REMARK    5  A    between atoms: C9_9  and  C10_12 
REMARK    6  A    between atoms: C16_18  and  O2_19 
REMARK    7  A    between atoms: C23_27  and  O3_28 
ROOT
HETATM    1  C1  UNL     1      17.949  -6.634  15.963  1.00  0.00     0.012 C 
HETATM    2  C2  UNL     1      16.821  -6.224  16.003  1.00  0.00    -0.112 C 
HETATM    3  C3  UNL     1      15.487  -5.720  16.075  1.00  0.00     0.073 C 
HETATM    4  C4  UNL     1      15.425  -4.503  15.114  1.00  0.00     0.053 C 
HETATM    5  C5  UNL     1      15.452  -5.280  13.810  1.00  0.00    -0.064 C 
HETATM    6  C13 UNL     1      14.577  -6.458  13.975  1.00  0.00    -0.013 C 
HETATM    7  C14 UNL     1      15.256  -7.645  13.357  1.00  0.00     0.021 C 
HETATM    8  C15 UNL     1      13.185  -6.435  13.434  1.00  0.00     0.046 C 
HETATM    9  C16 UNL     1      12.224  -7.327  14.199  1.00  0.00     0.124 C 
HETATM   10  C17 UNL     1      12.861  -8.328  15.089  1.00  0.00     0.027 C 
HETATM   11  C18 UNL     1      13.867  -7.714  16.073  1.00  0.00    -0.001 C 
HETATM   12  C19 UNL     1      14.746  -8.738  16.665  1.00  0.00     0.006 C 
HETATM   13  C20 UNL     1      14.137 -10.117  16.380  1.00  0.00     0.006 C 
HETATM   14  C21 UNL     1      12.660 -10.147  16.674  1.00  0.00    -0.004 C 
HETATM   15  C22 UNL     1      12.490  -9.971  18.150  1.00  0.00     0.037 C 
HETATM   16  C23 UNL     1      11.064  -9.915  18.596  1.00  0.00     0.118 C 
HETATM   17  C24 UNL     1      10.128  -9.390  17.571  1.00  0.00     0.032 C 
HETATM   18  C25 UNL     1      10.782  -8.482  16.534  1.00  0.00     0.012 C 
HETATM   19  C26 UNL     1      11.862  -9.197  15.818  1.00  0.00    -0.034 C 
HETATM   20  C27 UNL     1      11.179 -10.036  14.721  1.00  0.00     0.016 C 
HETATM   21  C28 UNL     1      14.398  -6.499  15.478  1.00  0.00     0.018 C 
ENDROOT
BRANCH   5  22
HETATM   22  C6  UNL     1      15.547  -4.536  12.563  1.00  0.00    -0.060 C 
HETATM   23  C7  UNL     1      16.777  -5.062  11.758  1.00  0.00     0.048 C 
BRANCH  22  24
HETATM   24  C8  UNL     1      15.413  -3.098  12.457  1.00  0.00     0.016 C 
BRANCH  24  25
HETATM   25  C9  UNL     1      14.198  -2.396  12.041  1.00  0.00     0.169 C 
BRANCH  25  26
HETATM   26  O1  UNL     1      13.218  -3.447  11.949  1.00  0.00    -0.387 OA
ATOM     27  H1  UNL     1      13.340  -3.788  11.071  1.00  0.00     0.210 HD
ENDBRANCH  25  26
BRANCH  25  28
HETATM   28  C10 UNL     1      14.164  -1.785  10.713  1.00  0.00    -0.061 C 
HETATM   29  C11 UNL     1      15.267  -1.649  10.009  1.00  0.00     0.017 C 
HETATM   30  C12 UNL     1      12.903  -1.285  10.127  1.00  0.00     0.045 C 
ENDBRANCH  25  28
ENDBRANCH  24  25
ENDBRANCH  22  24
ENDBRANCH   5  22
BRANCH   9  31
HETATM   31  O2  UNL     1      11.275  -6.531  14.874  1.00  0.00    -0.395 OA
ATOM     32  H2  UNL     1      10.777  -7.071  15.476  1.00  0.00     0.210 HD
ENDBRANCH   9  31
BRANCH  16  33
HETATM   33  O3  UNL     1      10.977  -9.165  19.788  1.00  0.00    -0.396 OA
ATOM     34  H3  UNL     1      10.407  -8.419  19.649  1.00  0.00     0.210 HD
ENDBRANCH  16  33
TORSDOF 7
ENDMDL
MODEL 5
REMARK VINA RESULT: -7.700399851      3.793      6.414
REMARK  7 active torsions:
REMARK  status: ('A' for Active; 'I' for Inactive)
REMARK    1  A    between atoms: C5_5  and  C6_6 
REMARK    2  A    between atoms: C6_6  and  C8_8 
REMARK    3  A    between atoms: C8_8  and  C9_9 
REMARK    4  A    between atoms: C9_9  and  O1_10 
REMARK    5  A    between atoms: C9_9  and  C10_12 
REMARK    6  A    between atoms: C16_18  and  O2_19 
REMARK    7  A    between atoms: C23_27  and  O3_28 
ROOT
HETATM    1  C1  UNL     1      16.742  -3.103  14.005  1.00  0.00     0.012 C 
HETATM    2  C2  UNL     1      15.709  -3.436  14.520  1.00  0.00    -0.112 C 
HETATM    3  C3  UNL     1      14.485  -3.809  15.152  1.00  0.00     0.073 C 
HETATM    4  C4  UNL     1      13.351  -3.090  14.375  1.00  0.00     0.053 C 
HETATM    5  C5  UNL     1      13.393  -3.951  13.124  1.00  0.00    -0.064 C 
HETATM    6  C13 UNL     1      13.565  -5.352  13.554  1.00  0.00    -0.013 C 
HETATM    7  C14 UNL     1      14.560  -6.009  12.643  1.00  0.00     0.021 C 
HETATM    8  C15 UNL     1      12.383  -6.262  13.620  1.00  0.00     0.046 C 
HETATM    9  C16 UNL     1      12.528  -7.369  14.649  1.00  0.00     0.124 C 
HETATM   10  C17 UNL     1      13.907  -7.596  15.145  1.00  0.00     0.027 C 
HETATM   11  C18 UNL     1      14.580  -6.322  15.678  1.00  0.00    -0.001 C 
HETATM   12  C19 UNL     1      16.039  -6.487  15.802  1.00  0.00     0.006 C 
HETATM   13  C20 UNL     1      16.364  -7.983  15.702  1.00  0.00     0.006 C 
HETATM   14  C21 UNL     1      15.448  -8.814  16.562  1.00  0.00    -0.004 C 
HETATM   15  C22 UNL     1      15.737  -8.472  17.989  1.00  0.00     0.037 C 
HETATM   16  C23 UNL     1      14.857  -9.174  18.973  1.00  0.00     0.118 C 
HETATM   17  C24 UNL     1      13.515  -9.523  18.445  1.00  0.00     0.032 C 
HETATM   18  C25 UNL     1      13.048  -8.641  17.291  1.00  0.00     0.012 C 
HETATM   19  C26 UNL     1      13.999  -8.713  16.159  1.00  0.00    -0.034 C 
HETATM   20  C27 UNL     1      13.653  -9.996  15.379  1.00  0.00     0.016 C 
HETATM   21  C28 UNL     1      13.992  -5.181  14.996  1.00  0.00     0.018 C 
ENDROOT
BRANCH   5  22
HETATM   22  C6  UNL     1      12.562  -3.567  11.993  1.00  0.00    -0.060 C 
HETATM   23  C7  UNL     1      13.352  -2.547  11.113  1.00  0.00     0.048 C 
BRANCH  22  24
HETATM   24  C8  UNL     1      11.160  -3.217  12.089  1.00  0.00     0.016 C 
BRANCH  24  25
HETATM   25  C9  UNL     1      10.534  -2.575  13.246  1.00  0.00     0.169 C 
BRANCH  25  26
HETATM   26  O1  UNL     1       9.289  -3.284  13.391  1.00  0.00    -0.387 OA
ATOM     27  H1  UNL     1       8.725  -2.876  12.745  1.00  0.00     0.210 HD
ENDBRANCH  25  26
BRANCH  25  28
HETATM   28  C10 UNL     1      10.117  -1.179  13.129  1.00  0.00    -0.061 C 
HETATM   29  C11 UNL     1      10.927  -0.277  12.616  1.00  0.00     0.017 C 
HETATM   30  C12 UNL     1       8.789  -0.730  13.596  1.00  0.00     0.045 C 
ENDBRANCH  25  28
ENDBRANCH  24  25
ENDBRANCH  22  24
ENDBRANCH   5  22
BRANCH   9  31
HETATM   31  O2  UNL     1      11.605  -7.164  15.696  1.00  0.00    -0.395 OA
ATOM     32  H2  UNL     1      11.141  -7.974  15.874  1.00  0.00     0.210 HD
ENDBRANCH   9  31
BRANCH  16  33
HETATM   33  O3  UNL     1      14.750  -8.394  20.144  1.00  0.00    -0.396 OA
ATOM     34  H3  UNL     1      14.101  -8.780  20.720  1.00  0.00     0.210 HD
ENDBRANCH  16  33
TORSDOF 7
ENDMDL
