MODEL 1
REMARK VINA RESULT: -5.575018567      0.000      0.000
REMARK  11 active torsions:
REMARK  status: ('A' for Active; 'I' for Inactive)
REMARK    1  A    between atoms: C1_4  and  N2_5 
REMARK    2  A    between atoms: C1_4  and  C2_10 
REMARK    3  A    between atoms: N2_5  and  N3_7 
REMARK    4  A    between atoms: N5_13  and  C3_14 
REMARK    5  A    between atoms: C3_14  and  C4_15 
REMARK    6  A    between atoms: C4_15  and  O1_16 
REMARK    7  A    between atoms: C4_15  and  C5_18 
REMARK    8  A    between atoms: C5_18  and  O2_19 
REMARK    9  A    between atoms: C6_21  and  N6_22 
REMARK       I    between atoms: N6_22  and  C7_24 
REMARK       I    between atoms: C7_24  and  N7_26 
REMARK   10  A    between atoms: N7_26  and  C8_28 
REMARK   11  A    between atoms: N12_37  and  N13_38 
ROOT
HETATM    1  C2  UNL     1     -68.428  -1.462  -0.450  1.00  0.00     0.205 A 
HETATM    2  N4  UNL     1     -67.274  -1.948   0.025  1.00  0.00    -0.264 N 
ATOM      3  H4  UNL     1     -66.368  -1.485  -0.046  1.00  0.00     0.189 HD
HETATM    4  N5  UNL     1     -67.491  -3.134   0.606  1.00  0.00    -0.117 N 
HETATM    5  C6  UNL     1     -68.816  -3.355   0.471  1.00  0.00     0.726 A 
HETATM    6  N12 UNL     1     -69.409  -2.339  -0.175  1.00  0.00    -0.069 N 
ENDROOT
BRANCH   5   7
HETATM    7  N6  UNL     1     -69.369  -4.436   0.934  1.00  0.00    -0.137 N 
HETATM    8  C7  UNL     1     -70.211  -4.442   2.077  1.00  0.00     0.353 C 
HETATM    9  O3  UNL     1     -71.443  -4.119   1.972  1.00  0.00    -0.246 OA
HETATM   10  N7  UNL     1     -69.669  -4.810   3.339  1.00  0.00    -0.138 N 
ATOM     11  H7  UNL     1     -68.748  -5.247   3.383  1.00  0.00     0.189 HD
ATOM     12  H6  UNL     1     -69.191  -5.319   0.455  1.00  0.00     0.189 HD
BRANCH  10  13
HETATM   13  C8  UNL     1     -70.320  -4.600   4.416  1.00  0.00     0.717 A 
HETATM   14  N8  UNL     1     -71.130  -3.573   4.688  1.00  0.00    -0.115 N 
HETATM   15  N9  UNL     1     -71.595  -3.747   5.909  1.00  0.00    -0.213 N 
ATOM     16  H8  UNL     1     -71.349  -2.797   4.064  1.00  0.00     0.207 HD
HETATM   17  N10 UNL     1     -71.098  -4.857   6.415  1.00  0.00    -0.213 N 
ATOM     18  H9  UNL     1     -72.240  -3.118   6.388  1.00  0.00     0.210 HD
HETATM   19  N11 UNL     1     -70.308  -5.391   5.497  1.00  0.00    -0.115 N 
ATOM     20  H10 UNL     1     -71.288  -5.235   7.343  1.00  0.00     0.210 HD
ATOM     21  H11 UNL     1     -69.780  -6.258   5.596  1.00  0.00     0.207 HD
ENDBRANCH  10  13
ENDBRANCH   5   7
BRANCH   4  22
HETATM   22  C3  UNL     1     -66.519  -3.998   1.245  1.00  0.00     0.202 C 
BRANCH  22  23
HETATM   23  C4  UNL     1     -65.163  -3.874   0.558  1.00  0.00     0.162 C 
BRANCH  23  24
HETATM   24  O1  UNL     1     -64.113  -4.028   1.458  1.00  0.00    -0.392 OA
ATOM     25  H1  UNL     1     -63.869  -3.202   1.859  1.00  0.00     0.210 HD
ENDBRANCH  23  24
BRANCH  23  26
HETATM   26  C5  UNL     1     -65.057  -4.828  -0.609  1.00  0.00     0.197 C 
BRANCH  26  27
HETATM   27  O2  UNL     1     -65.487  -4.152  -1.747  1.00  0.00    -0.398 OA
ATOM     28  H2  UNL     1     -66.300  -4.553  -2.031  1.00  0.00     0.209 HD
ENDBRANCH  26  27
ENDBRANCH  23  26
ENDBRANCH  22  23
ENDBRANCH   4  22
BRANCH   6  29
HETATM   29  N13 UNL     1     -70.767  -2.217  -0.497  1.00  0.00    -0.322 N 
ATOM     30 2H13 UNL     1     -71.397  -2.959  -0.801  1.00  0.00     0.178 HD
ATOM     31 1H13 UNL     1     -71.331  -1.367  -0.477  1.00  0.00     0.178 HD
ENDBRANCH   6  29
BRANCH   1  32
HETATM   32  C1  UNL     1     -68.611  -0.197  -1.149  1.00  0.00     0.162 C 
HETATM   33  N1  UNL     1     -68.726  -0.152  -2.438  1.00  0.00    -0.381 N 
ATOM     34  H12 UNL     1     -68.854   0.734  -2.927  1.00  0.00     0.157 HD
ATOM     35  H11 UNL     1     -68.684  -1.035  -2.946  1.00  0.00     0.157 HD
BRANCH  32  36
HETATM   36  N2  UNL     1     -68.670   1.033  -0.443  1.00  0.00    -0.289 N 
ATOM     37  H2  UNL     1     -69.529   1.347   0.008  1.00  0.00     0.188 HD
BRANCH  36  38
HETATM   38  N3  UNL     1     -67.484   1.803  -0.391  1.00  0.00    -0.344 N 
ATOM     39  H32 UNL     1     -66.736   1.650  -1.068  1.00  0.00     0.176 HD
ATOM     40  H31 UNL     1     -67.418   2.506   0.345  1.00  0.00     0.176 HD
ENDBRANCH  36  38
ENDBRANCH  32  36
ENDBRANCH   1  32
TORSDOF 11
ENDMDL
MODEL 2
REMARK VINA RESULT: -5.528474405      0.554      1.177
REMARK  11 active torsions:
REMARK  status: ('A' for Active; 'I' for Inactive)
REMARK    1  A    between atoms: C1_4  and  N2_5 
REMARK    2  A    between atoms: C1_4  and  C2_10 
REMARK    3  A    between atoms: N2_5  and  N3_7 
REMARK    4  A    between atoms: N5_13  and  C3_14 
REMARK    5  A    between atoms: C3_14  and  C4_15 
REMARK    6  A    between atoms: C4_15  and  O1_16 
REMARK    7  A    between atoms: C4_15  and  C5_18 
REMARK    8  A    between atoms: C5_18  and  O2_19 
REMARK    9  A    between atoms: C6_21  and  N6_22 
REMARK       I    between atoms: N6_22  and  C7_24 
REMARK       I    between atoms: C7_24  and  N7_26 
REMARK   10  A    between atoms: N7_26  and  C8_28 
REMARK   11  A    between atoms: N12_37  and  N13_38 
ROOT
HETATM    1  C2  UNL     1     -68.540  -1.087  -0.525  1.00  0.00     0.205 A 
HETATM    2  N4  UNL     1     -67.433  -1.705  -0.092  1.00  0.00    -0.264 N 
ATOM      3  H4  UNL     1     -66.485  -1.335  -0.168  1.00  0.00     0.189 HD
HETATM    4  N5  UNL     1     -67.761  -2.882   0.455  1.00  0.00    -0.117 N 
HETATM    5  C6  UNL     1     -69.103  -2.961   0.343  1.00  0.00     0.726 A 
HETATM    6  N12 UNL     1     -69.600  -1.868  -0.257  1.00  0.00    -0.069 N 
ENDROOT
BRANCH   5   7
HETATM    7  N6  UNL     1     -69.756  -3.995   0.782  1.00  0.00    -0.137 N 
HETATM    8  C7  UNL     1     -70.544  -3.964   1.963  1.00  0.00     0.353 C 
HETATM    9  O3  UNL     1     -71.734  -3.500   1.932  1.00  0.00    -0.246 OA
HETATM   10  N7  UNL     1     -69.995  -4.453   3.180  1.00  0.00    -0.138 N 
ATOM     11  H7  UNL     1     -69.129  -4.992   3.161  1.00  0.00     0.189 HD
ATOM     12  H6  UNL     1     -69.700  -4.867   0.256  1.00  0.00     0.189 HD
BRANCH  10  13
HETATM   13  C8  UNL     1     -70.571  -4.225   4.295  1.00  0.00     0.717 A 
HETATM   14  N8  UNL     1     -71.374  -3.202   4.600  1.00  0.00    -0.115 N 
HETATM   15  N9  UNL     1     -71.750  -3.352   5.854  1.00  0.00    -0.213 N 
ATOM     16  H8  UNL     1     -71.645  -2.442   3.976  1.00  0.00     0.207 HD
HETATM   17  N10 UNL     1     -71.204  -4.445   6.349  1.00  0.00    -0.213 N 
ATOM     18  H9  UNL     1     -72.368  -2.720   6.363  1.00  0.00     0.210 HD
HETATM   19  N11 UNL     1     -70.473  -4.991   5.390  1.00  0.00    -0.115 N 
ATOM     20  H10 UNL     1     -71.323  -4.804   7.296  1.00  0.00     0.210 HD
ATOM     21  H11 UNL     1     -69.928  -5.849   5.471  1.00  0.00     0.207 HD
ENDBRANCH  10  13
ENDBRANCH   5   7
BRANCH   4  22
HETATM   22  C3  UNL     1     -66.870  -3.863   1.044  1.00  0.00     0.202 C 
BRANCH  22  23
HETATM   23  C4  UNL     1     -65.818  -4.304   0.031  1.00  0.00     0.162 C 
BRANCH  23  24
HETATM   24  O1  UNL     1     -66.253  -4.120  -1.277  1.00  0.00    -0.392 OA
ATOM     25  H1  UNL     1     -65.554  -4.264  -1.904  1.00  0.00     0.210 HD
ENDBRANCH  23  24
BRANCH  23  26
HETATM   26  C5  UNL     1     -64.495  -3.623   0.294  1.00  0.00     0.197 C 
BRANCH  26  27
HETATM   27  O2  UNL     1     -64.085  -3.977   1.575  1.00  0.00    -0.398 OA
ATOM     28  H2  UNL     1     -63.139  -3.907   1.605  1.00  0.00     0.209 HD
ENDBRANCH  26  27
ENDBRANCH  23  26
ENDBRANCH  22  23
ENDBRANCH   4  22
BRANCH   6  29
HETATM   29  N13 UNL     1     -70.944  -1.596  -0.544  1.00  0.00    -0.322 N 
ATOM     30 2H13 UNL     1     -71.311  -1.074  -1.339  1.00  0.00     0.178 HD
ATOM     31 1H13 UNL     1     -71.760  -1.881  -0.001  1.00  0.00     0.178 HD
ENDBRANCH   6  29
BRANCH   1  32
HETATM   32  C1  UNL     1     -68.604   0.213  -1.178  1.00  0.00     0.162 C 
HETATM   33  N1  UNL     1     -68.604   0.318  -2.469  1.00  0.00    -0.381 N 
ATOM     34  H12 UNL     1     -68.648   1.229  -2.926  1.00  0.00     0.157 HD
ATOM     35  H11 UNL     1     -68.556  -0.544  -3.011  1.00  0.00     0.157 HD
BRANCH  32  36
HETATM   36  N2  UNL     1     -68.670   1.414  -0.424  1.00  0.00    -0.289 N 
ATOM     37  H2  UNL     1     -69.519   1.684   0.073  1.00  0.00     0.188 HD
BRANCH  36  38
HETATM   38  N3  UNL     1     -67.507   2.219  -0.390  1.00  0.00    -0.344 N 
ATOM     39  H32 UNL     1     -66.804   2.144  -1.125  1.00  0.00     0.176 HD
ATOM     40  H31 UNL     1     -67.412   2.865   0.393  1.00  0.00     0.176 HD
ENDBRANCH  36  38
ENDBRANCH  32  36
ENDBRANCH   1  32
TORSDOF 11
ENDMDL
MODEL 3
REMARK VINA RESULT: -5.486689205      2.990      5.203
REMARK  11 active torsions:
REMARK  status: ('A' for Active; 'I' for Inactive)
REMARK    1  A    between atoms: C1_4  and  N2_5 
REMARK    2  A    between atoms: C1_4  and  C2_10 
REMARK    3  A    between atoms: N2_5  and  N3_7 
REMARK    4  A    between atoms: N5_13  and  C3_14 
REMARK    5  A    between atoms: C3_14  and  C4_15 
REMARK    6  A    between atoms: C4_15  and  O1_16 
REMARK    7  A    between atoms: C4_15  and  C5_18 
REMARK    8  A    between atoms: C5_18  and  O2_19 
REMARK    9  A    between atoms: C6_21  and  N6_22 
REMARK       I    between atoms: N6_22  and  C7_24 
REMARK       I    between atoms: C7_24  and  N7_26 
REMARK   10  A    between atoms: N7_26  and  C8_28 
REMARK   11  A    between atoms: N12_37  and  N13_38 
ROOT
HETATM    1  C2  UNL     1     -67.681  -7.353   1.351  1.00  0.00     0.205 A 
HETATM    2  N4  UNL     1     -66.850  -6.527   0.702  1.00  0.00    -0.264 N 
ATOM      3  H4  UNL     1     -65.861  -6.707   0.527  1.00  0.00     0.189 HD
HETATM    4  N5  UNL     1     -67.514  -5.430   0.319  1.00  0.00    -0.117 N 
HETATM    5  C6  UNL     1     -68.778  -5.614   0.755  1.00  0.00     0.726 A 
HETATM    6  N12 UNL     1     -68.900  -6.790   1.391  1.00  0.00    -0.069 N 
ENDROOT
BRANCH   5   7
HETATM    7  N6  UNL     1     -69.699  -4.722   0.546  1.00  0.00    -0.137 N 
HETATM    8  C7  UNL     1     -70.050  -3.738   1.506  1.00  0.00     0.353 C 
HETATM    9  O3  UNL     1     -69.353  -2.672   1.621  1.00  0.00    -0.246 OA
HETATM   10  N7  UNL     1     -71.183  -3.948   2.338  1.00  0.00    -0.138 N 
ATOM     11  H7  UNL     1     -71.840  -4.696   2.115  1.00  0.00     0.189 HD
ATOM     12  H6  UNL     1     -70.192  -4.730  -0.348  1.00  0.00     0.189 HD
BRANCH  10  13
HETATM   13  C8  UNL     1     -71.389  -3.213   3.360  1.00  0.00     0.717 A 
HETATM   14  N8  UNL     1     -71.493  -3.603   4.633  1.00  0.00    -0.115 N 
HETATM   15  N9  UNL     1     -71.704  -2.526   5.363  1.00  0.00    -0.213 N 
ATOM     16  H8  UNL     1     -71.421  -4.561   4.977  1.00  0.00     0.207 HD
HETATM   17  N10 UNL     1     -71.737  -1.466   4.583  1.00  0.00    -0.213 N 
ATOM     18  H9  UNL     1     -71.824  -2.516   6.376  1.00  0.00     0.210 HD
HETATM   19  N11 UNL     1     -71.543  -1.882   3.341  1.00  0.00    -0.115 N 
ATOM     20  H10 UNL     1     -71.885  -0.502   4.880  1.00  0.00     0.210 HD
ATOM     21  H11 UNL     1     -71.515  -1.290   2.511  1.00  0.00     0.207 HD
ENDBRANCH  10  13
ENDBRANCH   5   7
BRANCH   4  22
HETATM   22  C3  UNL     1     -66.994  -4.289  -0.407  1.00  0.00     0.202 C 
BRANCH  22  23
HETATM   23  C4  UNL     1     -66.128  -3.426   0.504  1.00  0.00     0.162 C 
BRANCH  23  24
HETATM   24  O1  UNL     1     -66.475  -3.580   1.842  1.00  0.00    -0.392 OA
ATOM     25  H1  UNL     1     -65.846  -4.117   2.309  1.00  0.00     0.210 HD
ENDBRANCH  23  24
BRANCH  23  26
HETATM   26  C5  UNL     1     -64.659  -3.687   0.262  1.00  0.00     0.197 C 
BRANCH  26  27
HETATM   27  O2  UNL     1     -64.071  -3.962   1.492  1.00  0.00    -0.398 OA
ATOM     28  H2  UNL     1     -63.310  -3.400   1.581  1.00  0.00     0.209 HD
ENDBRANCH  26  27
ENDBRANCH  23  26
ENDBRANCH  22  23
ENDBRANCH   4  22
BRANCH   6  29
HETATM   29  N13 UNL     1     -70.058  -7.320   1.976  1.00  0.00    -0.322 N 
ATOM     30 2H13 UNL     1     -70.606  -6.915   2.735  1.00  0.00     0.178 HD
ATOM     31 1H13 UNL     1     -70.527  -8.192   1.732  1.00  0.00     0.178 HD
ENDBRANCH   6  29
BRANCH   1  32
HETATM   32  C1  UNL     1     -67.340  -8.648   1.924  1.00  0.00     0.162 C 
HETATM   33  N1  UNL     1     -66.784  -8.743   3.089  1.00  0.00    -0.381 N 
ATOM     34  H12 UNL     1     -66.545  -9.650   3.490  1.00  0.00     0.157 HD
ATOM     35  H11 UNL     1     -66.593  -7.876   3.591  1.00  0.00     0.157 HD
BRANCH  32  36
HETATM   36  N2  UNL     1     -67.606  -9.855   1.225  1.00  0.00    -0.289 N 
ATOM     37  H2  UNL     1     -67.769 -10.732   1.719  1.00  0.00     0.188 HD
BRANCH  36  38
HETATM   38  N3  UNL     1     -67.635  -9.788  -0.188  1.00  0.00    -0.344 N 
ATOM     39  H32 UNL     1     -67.184  -9.016  -0.680  1.00  0.00     0.176 HD
ATOM     40  H31 UNL     1     -68.122 -10.538  -0.679  1.00  0.00     0.176 HD
ENDBRANCH  36  38
ENDBRANCH  32  36
ENDBRANCH   1  32
TORSDOF 11
ENDMDL
MODEL 4
REMARK VINA RESULT: -5.413201710      2.979      5.163
REMARK  11 active torsions:
REMARK  status: ('A' for Active; 'I' for Inactive)
REMARK    1  A    between atoms: C1_4  and  N2_5 
REMARK    2  A    between atoms: C1_4  and  C2_10 
REMARK    3  A    between atoms: N2_5  and  N3_7 
REMARK    4  A    between atoms: N5_13  and  C3_14 
REMARK    5  A    between atoms: C3_14  and  C4_15 
REMARK    6  A    between atoms: C4_15  and  O1_16 
REMARK    7  A    between atoms: C4_15  and  C5_18 
REMARK    8  A    between atoms: C5_18  and  O2_19 
REMARK    9  A    between atoms: C6_21  and  N6_22 
REMARK       I    between atoms: N6_22  and  C7_24 
REMARK       I    between atoms: C7_24  and  N7_26 
REMARK   10  A    between atoms: N7_26  and  C8_28 
REMARK   11  A    between atoms: N12_37  and  N13_38 
ROOT
HETATM    1  C2  UNL     1     -67.725  -7.315   1.318  1.00  0.00     0.205 A 
HETATM    2  N4  UNL     1     -66.886  -6.494   0.673  1.00  0.00    -0.264 N 
ATOM      3  H4  UNL     1     -65.898  -6.681   0.500  1.00  0.00     0.189 HD
HETATM    4  N5  UNL     1     -67.541  -5.392   0.291  1.00  0.00    -0.117 N 
HETATM    5  C6  UNL     1     -68.808  -5.567   0.722  1.00  0.00     0.726 A 
HETATM    6  N12 UNL     1     -68.940  -6.743   1.356  1.00  0.00    -0.069 N 
ENDROOT
BRANCH   5   7
HETATM    7  N6  UNL     1     -69.721  -4.668   0.512  1.00  0.00    -0.137 N 
HETATM    8  C7  UNL     1     -70.065  -3.681   1.472  1.00  0.00     0.353 C 
HETATM    9  O3  UNL     1     -69.361  -2.621   1.589  1.00  0.00    -0.246 OA
HETATM   10  N7  UNL     1     -71.202  -3.883   2.303  1.00  0.00    -0.138 N 
ATOM     11  H7  UNL     1     -71.864  -4.626   2.078  1.00  0.00     0.189 HD
ATOM     12  H6  UNL     1     -70.213  -4.671  -0.382  1.00  0.00     0.189 HD
BRANCH  10  13
HETATM   13  C8  UNL     1     -71.404  -3.147   3.325  1.00  0.00     0.717 A 
HETATM   14  N8  UNL     1     -71.563  -1.821   3.353  1.00  0.00    -0.115 N 
HETATM   15  N9  UNL     1     -71.746  -1.469   4.609  1.00  0.00    -0.213 N 
ATOM     16  H8  UNL     1     -71.547  -1.196   2.547  1.00  0.00     0.207 HD
HETATM   17  N10 UNL     1     -71.705  -2.539   5.377  1.00  0.00    -0.213 N 
ATOM     18  H9  UNL     1     -71.896  -0.515   4.938  1.00  0.00     0.210 HD
HETATM   19  N11 UNL     1     -71.493  -3.582   4.589  1.00  0.00    -0.115 N 
ATOM     20  H10 UNL     1     -71.815  -2.561   6.390  1.00  0.00     0.210 HD
ATOM     21  H11 UNL     1     -71.412  -4.552   4.893  1.00  0.00     0.207 HD
ENDBRANCH  10  13
ENDBRANCH   5   7
BRANCH   4  22
HETATM   22  C3  UNL     1     -67.010  -4.253  -0.433  1.00  0.00     0.202 C 
BRANCH  22  23
HETATM   23  C4  UNL     1     -66.130  -3.405   0.480  1.00  0.00     0.162 C 
BRANCH  23  24
HETATM   24  O1  UNL     1     -66.489  -3.543   1.816  1.00  0.00    -0.392 OA
ATOM     25  H1  UNL     1     -66.214  -2.796   2.334  1.00  0.00     0.210 HD
ENDBRANCH  23  24
BRANCH  23  26
HETATM   26  C5  UNL     1     -64.667  -3.702   0.249  1.00  0.00     0.197 C 
BRANCH  26  27
HETATM   27  O2  UNL     1     -64.089  -3.965   1.487  1.00  0.00    -0.398 OA
ATOM     28  H2  UNL     1     -63.499  -3.248   1.688  1.00  0.00     0.209 HD
ENDBRANCH  26  27
ENDBRANCH  23  26
ENDBRANCH  22  23
ENDBRANCH   4  22
BRANCH   6  29
HETATM   29  N13 UNL     1     -70.103  -7.265   1.937  1.00  0.00    -0.322 N 
ATOM     30 2H13 UNL     1     -70.199  -8.149   2.437  1.00  0.00     0.178 HD
ATOM     31 1H13 UNL     1     -71.031  -6.841   1.946  1.00  0.00     0.178 HD
ENDBRANCH   6  29
BRANCH   1  32
HETATM   32  C1  UNL     1     -67.396  -8.614   1.889  1.00  0.00     0.162 C 
HETATM   33  N1  UNL     1     -67.572  -9.707   1.219  1.00  0.00    -0.381 N 
ATOM     34  H12 UNL     1     -67.342 -10.617   1.619  1.00  0.00     0.157 HD
ATOM     35  H11 UNL     1     -67.951  -9.625   0.276  1.00  0.00     0.157 HD
BRANCH  32  36
HETATM   36  N2  UNL     1     -66.869  -8.729   3.203  1.00  0.00    -0.289 N 
ATOM     37  H2  UNL     1     -67.137  -8.079   3.943  1.00  0.00     0.188 HD
BRANCH  36  38
HETATM   38  N3  UNL     1     -65.956  -9.784   3.441  1.00  0.00    -0.344 N 
ATOM     39  H32 UNL     1     -66.167 -10.732   3.128  1.00  0.00     0.176 HD
ATOM     40  H31 UNL     1     -65.094  -9.550   3.933  1.00  0.00     0.176 HD
ENDBRANCH  36  38
ENDBRANCH  32  36
ENDBRANCH   1  32
TORSDOF 11
ENDMDL
MODEL 5
REMARK VINA RESULT: -5.277882489      3.383      5.910
REMARK  11 active torsions:
REMARK  status: ('A' for Active; 'I' for Inactive)
REMARK    1  A    between atoms: C1_4  and  N2_5 
REMARK    2  A    between atoms: C1_4  and  C2_10 
REMARK    3  A    between atoms: N2_5  and  N3_7 
REMARK    4  A    between atoms: N5_13  and  C3_14 
REMARK    5  A    between atoms: C3_14  and  C4_15 
REMARK    6  A    between atoms: C4_15  and  O1_16 
REMARK    7  A    between atoms: C4_15  and  C5_18 
REMARK    8  A    between atoms: C5_18  and  O2_19 
REMARK    9  A    between atoms: C6_21  and  N6_22 
REMARK       I    between atoms: N6_22  and  C7_24 
REMARK       I    between atoms: C7_24  and  N7_26 
REMARK   10  A    between atoms: N7_26  and  C8_28 
REMARK   11  A    between atoms: N12_37  and  N13_38 
ROOT
HETATM    1  C2  UNL     1     -71.931   0.145   1.743  1.00  0.00     0.205 A 
HETATM    2  N4  UNL     1     -71.458   1.118   0.954  1.00  0.00    -0.264 N 
ATOM      3  H4  UNL     1     -71.573   2.118   1.120  1.00  0.00     0.189 HD
HETATM    4  N5  UNL     1     -70.811   0.579  -0.086  1.00  0.00    -0.117 N 
HETATM    5  C6  UNL     1     -70.903  -0.756   0.096  1.00  0.00     0.726 A 
HETATM    6  N12 UNL     1     -71.588  -1.041   1.214  1.00  0.00    -0.069 N 
ENDROOT
BRANCH   5   7
HETATM    7  N6  UNL     1     -70.372  -1.589  -0.748  1.00  0.00    -0.137 N 
HETATM    8  C7  UNL     1     -69.370  -2.523  -0.380  1.00  0.00     0.353 C 
HETATM    9  O3  UNL     1     -69.691  -3.630   0.173  1.00  0.00    -0.246 OA
HETATM   10  N7  UNL     1     -68.004  -2.217  -0.632  1.00  0.00    -0.138 N 
ATOM     11  H7  UNL     1     -67.769  -1.432  -1.239  1.00  0.00     0.189 HD
ATOM     12  H6  UNL     1     -70.689  -1.570  -1.717  1.00  0.00     0.189 HD
BRANCH  10  13
HETATM   13  C8  UNL     1     -67.071  -2.910  -0.108  1.00  0.00     0.717 A 
HETATM   14  N8  UNL     1     -66.162  -3.658  -0.740  1.00  0.00    -0.115 N 
HETATM   15  N9  UNL     1     -65.388  -4.203   0.178  1.00  0.00    -0.213 N 
ATOM     16  H8  UNL     1     -66.081  -3.784  -1.748  1.00  0.00     0.207 HD
HETATM   17  N10 UNL     1     -65.786  -3.818   1.374  1.00  0.00    -0.213 N 
ATOM     18  H9  UNL     1     -64.602  -4.826  -0.009  1.00  0.00     0.210 HD
HETATM   19  N11 UNL     1     -66.827  -3.019   1.205  1.00  0.00    -0.115 N 
ATOM     20  H10 UNL     1     -65.369  -4.088   2.264  1.00  0.00     0.210 HD
ATOM     21  H11 UNL     1     -67.355  -2.562   1.949  1.00  0.00     0.207 HD
ENDBRANCH  10  13
ENDBRANCH   5   7
BRANCH   4  22
HETATM   22  C3  UNL     1     -70.149   1.272  -1.174  1.00  0.00     0.202 C 
BRANCH  22  23
HETATM   23  C4  UNL     1     -68.967   2.080  -0.650  1.00  0.00     0.162 C 
BRANCH  23  24
HETATM   24  O1  UNL     1     -69.318   2.852   0.452  1.00  0.00    -0.392 OA
ATOM     25  H1  UNL     1     -70.026   3.452   0.251  1.00  0.00     0.210 HD
ENDBRANCH  23  24
BRANCH  23  26
HETATM   26  C5  UNL     1     -67.783   1.186  -0.366  1.00  0.00     0.197 C 
BRANCH  26  27
HETATM   27  O2  UNL     1     -66.918   1.883   0.471  1.00  0.00    -0.398 OA
ATOM     28  H2  UNL     1     -67.077   1.588   1.360  1.00  0.00     0.209 HD
ENDBRANCH  26  27
ENDBRANCH  23  26
ENDBRANCH  22  23
ENDBRANCH   4  22
BRANCH   6  29
HETATM   29  N13 UNL     1     -71.885  -2.312   1.724  1.00  0.00    -0.322 N 
ATOM     30 2H13 UNL     1     -71.238  -2.966   2.164  1.00  0.00     0.178 HD
ATOM     31 1H13 UNL     1     -72.793  -2.776   1.733  1.00  0.00     0.178 HD
ENDBRANCH   6  29
BRANCH   1  32
HETATM   32  C1  UNL     1     -72.691   0.322   2.974  1.00  0.00     0.162 C 
HETATM   33  N1  UNL     1     -73.985   0.293   2.975  1.00  0.00    -0.381 N 
ATOM     34  H12 UNL     1     -74.517   0.418   3.836  1.00  0.00     0.157 HD
ATOM     35  H11 UNL     1     -74.453   0.141   2.081  1.00  0.00     0.157 HD
BRANCH  32  36
HETATM   36  N2  UNL     1     -72.039   0.534   4.217  1.00  0.00    -0.289 N 
ATOM     37  H2  UNL     1     -71.934   1.469   4.610  1.00  0.00     0.188 HD
BRANCH  36  38
HETATM   38  N3  UNL     1     -71.544  -0.609   4.888  1.00  0.00    -0.344 N 
ATOM     39  H32 UNL     1     -72.181  -1.242   5.372  1.00  0.00     0.176 HD
ATOM     40  H31 UNL     1     -70.536  -0.762   4.862  1.00  0.00     0.176 HD
ENDBRANCH  36  38
ENDBRANCH  32  36
ENDBRANCH   1  32
TORSDOF 11
ENDMDL
