MODEL 1
REMARK VINA RESULT: -4.559437190      0.000      0.000
REMARK  13 active torsions:
REMARK  status: ('A' for Active; 'I' for Inactive)
REMARK    1  A    between atoms: N1_1  and  C1_5 
REMARK    2  A    between atoms: C1_5  and  C2_6 
REMARK    3  A    between atoms: C2_6  and  C3_7 
REMARK    4  A    between atoms: C4_8  and  C5_9 
REMARK    5  A    between atoms: C5_9  and  O1_10 
REMARK    6  A    between atoms: C6_12  and  O2_13 
REMARK    7  A    between atoms: C6_12  and  O3_15 
REMARK    8  A    between atoms: O3_15  and  C7_16 
REMARK       I    between atoms: C7_16  and  N2_18 
REMARK    9  A    between atoms: N2_18  and  N3_20 
REMARK   10  A    between atoms: C9_25  and  O6_26 
REMARK   11  A    between atoms: C9_25  and  C10_28 
REMARK   12  A    between atoms: C10_28  and  O7_29 
REMARK   13  A    between atoms: C10_28  and  O8_31 
ROOT
HETATM    1  C5  UNL     1     -67.484  -4.339   1.576  1.00  0.00     0.223 C 
HETATM    2  C6  UNL     1     -68.621  -3.471   1.110  1.00  0.00     0.284 C 
HETATM    3  C8  UNL     1     -68.861  -3.925  -0.279  1.00  0.00     0.235 C 
HETATM    4  O5  UNL     1     -69.895  -4.023  -0.871  1.00  0.00    -0.288 OA
HETATM    5  C9  UNL     1     -67.508  -4.242  -0.785  1.00  0.00     0.210 C 
HETATM    6  C11 UNL     1     -66.902  -5.010   0.337  1.00  0.00     0.173 A 
HETATM    7  C12 UNL     1     -66.541  -6.332   0.356  1.00  0.00     0.215 A 
HETATM    8  O9  UNL     1     -65.532  -5.251   0.358  1.00  0.00    -0.366 OA
ENDROOT
BRANCH   1   9
HETATM    9  C4  UNL     1     -68.050  -5.343   2.482  1.00  0.00    -0.059 C 
HETATM   10  C3  UNL     1     -68.504  -6.181   3.252  1.00  0.00    -0.102 C 
BRANCH  10  11
HETATM   11  C2  UNL     1     -69.048  -7.163   4.190  1.00  0.00     0.121 C 
BRANCH  11  12
HETATM   12  C1  UNL     1     -68.076  -7.387   5.357  1.00  0.00     0.241 C 
BRANCH  12  13
HETATM   13  N1  UNL     1     -67.915  -6.171   6.107  1.00  0.00    -0.079 N 
ATOM     14  H13 UNL     1     -67.152  -5.598   5.747  1.00  0.00     0.274 HD
ATOM     15  H12 UNL     1     -68.682  -5.519   5.946  1.00  0.00     0.274 HD
ATOM     16  H11 UNL     1     -67.796  -6.383   7.098  1.00  0.00     0.274 HD
ENDBRANCH  12  13
ENDBRANCH  11  12
ENDBRANCH  10  11
ENDBRANCH   1   9
BRANCH   1  17
HETATM   17  O1  UNL     1     -66.456  -3.619   2.182  1.00  0.00    -0.369 OA
ATOM     18  H1  UNL     1     -65.785  -3.371   1.557  1.00  0.00     0.212 HD
ENDBRANCH   1  17
BRANCH   2  19
HETATM   19  O2  UNL     1     -68.051  -2.172   0.975  1.00  0.00    -0.356 OA
ATOM     20  H2  UNL     1     -68.782  -1.612   0.740  1.00  0.00     0.213 HD
ENDBRANCH   2  19
BRANCH   2  21
HETATM   21  O3  UNL     1     -69.747  -3.455   1.909  1.00  0.00    -0.253 OA
BRANCH  21  22
HETATM   22  C7  UNL     1     -70.671  -2.443   2.041  1.00  0.00     0.382 C 
HETATM   23  O4  UNL     1     -71.093  -2.218   3.225  1.00  0.00    -0.237 OA
HETATM   24  N2  UNL     1     -71.144  -1.678   0.937  1.00  0.00    -0.252 N 
ATOM     25  H2  UNL     1     -70.781  -1.889   0.008  1.00  0.00     0.191 HD
BRANCH  24  26
HETATM   26  N3  UNL     1     -72.073  -0.659   1.067  1.00  0.00    -0.341 N 
ATOM     27  H32 UNL     1     -71.795   0.164   1.600  1.00  0.00     0.177 HD
ATOM     28  H31 UNL     1     -73.007  -0.702   0.659  1.00  0.00     0.177 HD
ENDBRANCH  24  26
ENDBRANCH  21  22
ENDBRANCH   2  21
BRANCH   5  29
HETATM   29  O6  UNL     1     -66.808  -3.040  -0.871  1.00  0.00    -0.374 OA
ATOM     30  H6  UNL     1     -66.144  -3.148  -1.541  1.00  0.00     0.211 HD
ENDBRANCH   5  29
BRANCH   5  31
HETATM   31  C10 UNL     1     -67.535  -4.976  -2.099  1.00  0.00     0.299 C 
BRANCH  31  32
HETATM   32  O7  UNL     1     -66.249  -5.245  -2.493  1.00  0.00    -0.368 OA
ATOM     33  H7  UNL     1     -66.172  -5.101  -3.429  1.00  0.00     0.212 HD
ENDBRANCH  31  32
BRANCH  31  34
HETATM   34  O8  UNL     1     -68.213  -4.173  -3.012  1.00  0.00    -0.368 OA
ATOM     35  H8  UNL     1     -67.569  -3.616  -3.434  1.00  0.00     0.212 HD
ENDBRANCH  31  34
ENDBRANCH   5  31
TORSDOF 13
ENDMDL
MODEL 2
REMARK VINA RESULT: -4.458381198      3.966      6.051
REMARK  13 active torsions:
REMARK  status: ('A' for Active; 'I' for Inactive)
REMARK    1  A    between atoms: N1_1  and  C1_5 
REMARK    2  A    between atoms: C1_5  and  C2_6 
REMARK    3  A    between atoms: C2_6  and  C3_7 
REMARK    4  A    between atoms: C4_8  and  C5_9 
REMARK    5  A    between atoms: C5_9  and  O1_10 
REMARK    6  A    between atoms: C6_12  and  O2_13 
REMARK    7  A    between atoms: C6_12  and  O3_15 
REMARK    8  A    between atoms: O3_15  and  C7_16 
REMARK       I    between atoms: C7_16  and  N2_18 
REMARK    9  A    between atoms: N2_18  and  N3_20 
REMARK   10  A    between atoms: C9_25  and  O6_26 
REMARK   11  A    between atoms: C9_25  and  C10_28 
REMARK   12  A    between atoms: C10_28  and  O7_29 
REMARK   13  A    between atoms: C10_28  and  O8_31 
ROOT
HETATM    1  C5  UNL     1     -67.861  -5.916  -1.515  1.00  0.00     0.223 C 
HETATM    2  C6  UNL     1     -66.504  -5.693  -2.126  1.00  0.00     0.284 C 
HETATM    3  C8  UNL     1     -65.683  -5.217  -0.988  1.00  0.00     0.235 C 
HETATM    4  O5  UNL     1     -64.532  -5.433  -0.748  1.00  0.00    -0.288 OA
HETATM    5  C9  UNL     1     -66.623  -4.397  -0.194  1.00  0.00     0.210 C 
HETATM    6  C11 UNL     1     -67.847  -5.243  -0.147  1.00  0.00     0.173 A 
HETATM    7  C12 UNL     1     -68.411  -5.851   0.944  1.00  0.00     0.215 A 
HETATM    8  O9  UNL     1     -69.055  -4.698   0.278  1.00  0.00    -0.366 OA
ENDROOT
BRANCH   1   9
HETATM    9  C4  UNL     1     -68.035  -7.365  -1.368  1.00  0.00    -0.059 C 
HETATM   10  C3  UNL     1     -68.202  -8.573  -1.256  1.00  0.00    -0.102 C 
BRANCH  10  11
HETATM   11  C2  UNL     1     -68.402 -10.019  -1.146  1.00  0.00     0.121 C 
BRANCH  11  12
HETATM   12  C1  UNL     1     -67.886 -10.532   0.204  1.00  0.00     0.241 C 
BRANCH  12  13
HETATM   13  N1  UNL     1     -66.852 -11.510   0.000  1.00  0.00    -0.079 N 
ATOM     14  H13 UNL     1     -67.233 -12.419  -0.264  1.00  0.00     0.274 HD
ATOM     15  H12 UNL     1     -66.311 -11.323  -0.844  1.00  0.00     0.274 HD
ATOM     16  H11 UNL     1     -66.259 -11.573   0.828  1.00  0.00     0.274 HD
ENDBRANCH  12  13
ENDBRANCH  11  12
ENDBRANCH  10  11
ENDBRANCH   1   9
BRANCH   1  17
HETATM   17  O1  UNL     1     -68.895  -5.344  -2.252  1.00  0.00    -0.369 OA
ATOM     18  H1  UNL     1     -69.737  -5.725  -2.030  1.00  0.00     0.212 HD
ENDBRANCH   1  17
BRANCH   2  19
HETATM   19  O2  UNL     1     -66.668  -4.550  -2.960  1.00  0.00    -0.356 OA
ATOM     20  H2  UNL     1     -67.281  -4.828  -3.631  1.00  0.00     0.213 HD
ENDBRANCH   2  19
BRANCH   2  21
HETATM   21  O3  UNL     1     -65.960  -6.757  -2.817  1.00  0.00    -0.253 OA
BRANCH  21  22
HETATM   22  C7  UNL     1     -65.067  -6.713  -3.863  1.00  0.00     0.382 C 
HETATM   23  O4  UNL     1     -64.067  -7.503  -3.782  1.00  0.00    -0.237 OA
HETATM   24  N2  UNL     1     -65.227  -5.847  -4.982  1.00  0.00    -0.252 N 
ATOM     25  H2  UNL     1     -66.040  -5.232  -5.009  1.00  0.00     0.191 HD
BRANCH  24  26
HETATM   26  N3  UNL     1     -64.330  -5.802  -6.036  1.00  0.00    -0.341 N 
ATOM     27  H32 UNL     1     -64.702  -5.937  -6.975  1.00  0.00     0.177 HD
ATOM     28  H31 UNL     1     -63.330  -5.641  -5.909  1.00  0.00     0.177 HD
ENDBRANCH  24  26
ENDBRANCH  21  22
ENDBRANCH   2  21
BRANCH   5  29
HETATM   29  O6  UNL     1     -66.939  -3.275  -0.958  1.00  0.00    -0.374 OA
ATOM     30  H6  UNL     1     -67.268  -3.587  -1.793  1.00  0.00     0.211 HD
ENDBRANCH   5  29
BRANCH   5  31
HETATM   31  C10 UNL     1     -66.072  -4.025   1.156  1.00  0.00     0.299 C 
BRANCH  31  32
HETATM   32  O7  UNL     1     -66.935  -3.155   1.773  1.00  0.00    -0.368 OA
ATOM     33  H7  UNL     1     -66.612  -2.959   2.645  1.00  0.00     0.212 HD
ENDBRANCH  31  32
BRANCH  31  34
HETATM   34  O8  UNL     1     -64.812  -3.468   0.954  1.00  0.00    -0.368 OA
ATOM     35  H8  UNL     1     -64.831  -2.586   1.307  1.00  0.00     0.212 HD
ENDBRANCH  31  34
ENDBRANCH   5  31
TORSDOF 13
ENDMDL
MODEL 3
REMARK VINA RESULT: -4.323200132      2.900      5.119
REMARK  13 active torsions:
REMARK  status: ('A' for Active; 'I' for Inactive)
REMARK    1  A    between atoms: N1_1  and  C1_5 
REMARK    2  A    between atoms: C1_5  and  C2_6 
REMARK    3  A    between atoms: C2_6  and  C3_7 
REMARK    4  A    between atoms: C4_8  and  C5_9 
REMARK    5  A    between atoms: C5_9  and  O1_10 
REMARK    6  A    between atoms: C6_12  and  O2_13 
REMARK    7  A    between atoms: C6_12  and  O3_15 
REMARK    8  A    between atoms: O3_15  and  C7_16 
REMARK       I    between atoms: C7_16  and  N2_18 
REMARK    9  A    between atoms: N2_18  and  N3_20 
REMARK   10  A    between atoms: C9_25  and  O6_26 
REMARK   11  A    between atoms: C9_25  and  C10_28 
REMARK   12  A    between atoms: C10_28  and  O7_29 
REMARK   13  A    between atoms: C10_28  and  O8_31 
ROOT
HETATM    1  C5  UNL     1     -68.627  -4.695  -1.056  1.00  0.00     0.223 C 
HETATM    2  C6  UNL     1     -67.875  -5.996  -0.989  1.00  0.00     0.284 C 
HETATM    3  C8  UNL     1     -66.731  -5.693  -0.098  1.00  0.00     0.235 C 
HETATM    4  O5  UNL     1     -66.200  -6.394   0.712  1.00  0.00    -0.288 OA
HETATM    5  C9  UNL     1     -66.381  -4.296  -0.436  1.00  0.00     0.210 C 
HETATM    6  C11 UNL     1     -67.707  -3.622  -0.484  1.00  0.00     0.173 A 
HETATM    7  C12 UNL     1     -68.192  -2.653   0.357  1.00  0.00     0.215 A 
HETATM    8  O9  UNL     1     -67.825  -2.353  -1.044  1.00  0.00    -0.366 OA
ENDROOT
BRANCH   1   9
HETATM    9  C4  UNL     1     -69.821  -4.842  -0.219  1.00  0.00    -0.059 C 
HETATM   10  C3  UNL     1     -70.806  -4.962   0.500  1.00  0.00    -0.102 C 
BRANCH  10  11
HETATM   11  C2  UNL     1     -71.979  -5.081   1.366  1.00  0.00     0.121 C 
BRANCH  11  12
HETATM   12  C1  UNL     1     -71.552  -5.235   2.832  1.00  0.00     0.241 C 
BRANCH  12  13
HETATM   13  N1  UNL     1     -70.765  -4.104   3.240  1.00  0.00    -0.079 N 
ATOM     14  H13 UNL     1     -70.184  -4.315   4.052  1.00  0.00     0.274 HD
ATOM     15  H12 UNL     1     -70.021  -3.897   2.574  1.00  0.00     0.274 HD
ATOM     16  H11 UNL     1     -71.367  -3.297   3.403  1.00  0.00     0.274 HD
ENDBRANCH  12  13
ENDBRANCH  11  12
ENDBRANCH  10  11
ENDBRANCH   1   9
BRANCH   1  17
HETATM   17  O1  UNL     1     -68.952  -4.316  -2.356  1.00  0.00    -0.369 OA
ATOM     18  H1  UNL     1     -68.182  -4.265  -2.911  1.00  0.00     0.212 HD
ENDBRANCH   1  17
BRANCH   2  19
HETATM   19  O2  UNL     1     -67.299  -6.147  -2.282  1.00  0.00    -0.356 OA
ATOM     20  H2  UNL     1     -67.682  -6.947  -2.624  1.00  0.00     0.213 HD
ENDBRANCH   2  19
BRANCH   2  21
HETATM   21  O3  UNL     1     -68.606  -7.108  -0.621  1.00  0.00    -0.253 OA
BRANCH  21  22
HETATM   22  C7  UNL     1     -68.294  -8.431  -0.840  1.00  0.00     0.382 C 
HETATM   23  O4  UNL     1     -68.596  -8.896  -1.991  1.00  0.00    -0.237 OA
HETATM   24  N2  UNL     1     -67.672  -9.253   0.142  1.00  0.00    -0.252 N 
ATOM     25  H2  UNL     1     -67.447  -8.843   1.048  1.00  0.00     0.191 HD
BRANCH  24  26
HETATM   26  N3  UNL     1     -67.357 -10.583  -0.077  1.00  0.00    -0.341 N 
ATOM     27  H32 UNL     1     -66.454 -10.788  -0.504  1.00  0.00     0.177 HD
ATOM     28  H31 UNL     1     -67.983 -11.351   0.167  1.00  0.00     0.177 HD
ENDBRANCH  24  26
ENDBRANCH  21  22
ENDBRANCH   2  21
BRANCH   5  29
HETATM   29  O6  UNL     1     -65.886  -4.299  -1.739  1.00  0.00    -0.374 OA
ATOM     30  H6  UNL     1     -65.334  -3.532  -1.832  1.00  0.00     0.211 HD
ENDBRANCH   5  29
BRANCH   5  31
HETATM   31  C10 UNL     1     -65.408  -3.688   0.537  1.00  0.00     0.299 C 
BRANCH  31  32
HETATM   32  O7  UNL     1     -64.215  -4.361   0.466  1.00  0.00    -0.368 OA
ATOM     33  H7  UNL     1     -63.863  -4.468   1.342  1.00  0.00     0.212 HD
ENDBRANCH  31  32
BRANCH  31  34
HETATM   34  O8  UNL     1     -65.983  -3.760   1.802  1.00  0.00    -0.368 OA
ATOM     35  H8  UNL     1     -65.894  -2.904   2.206  1.00  0.00     0.212 HD
ENDBRANCH  31  34
ENDBRANCH   5  31
TORSDOF 13
ENDMDL
MODEL 4
REMARK VINA RESULT: -4.285718719      4.121      6.457
REMARK  13 active torsions:
REMARK  status: ('A' for Active; 'I' for Inactive)
REMARK    1  A    between atoms: N1_1  and  C1_5 
REMARK    2  A    between atoms: C1_5  and  C2_6 
REMARK    3  A    between atoms: C2_6  and  C3_7 
REMARK    4  A    between atoms: C4_8  and  C5_9 
REMARK    5  A    between atoms: C5_9  and  O1_10 
REMARK    6  A    between atoms: C6_12  and  O2_13 
REMARK    7  A    between atoms: C6_12  and  O3_15 
REMARK    8  A    between atoms: O3_15  and  C7_16 
REMARK       I    between atoms: C7_16  and  N2_18 
REMARK    9  A    between atoms: N2_18  and  N3_20 
REMARK   10  A    between atoms: C9_25  and  O6_26 
REMARK   11  A    between atoms: C9_25  and  C10_28 
REMARK   12  A    between atoms: C10_28  and  O7_29 
REMARK   13  A    between atoms: C10_28  and  O8_31 
ROOT
HETATM    1  C5  UNL     1     -67.706  -4.992  -2.261  1.00  0.00     0.223 C 
HETATM    2  C6  UNL     1     -66.299  -5.309  -1.834  1.00  0.00     0.284 C 
HETATM    3  C8  UNL     1     -66.341  -5.170  -0.359  1.00  0.00     0.235 C 
HETATM    4  O5  UNL     1     -65.767  -5.807   0.474  1.00  0.00    -0.288 OA
HETATM    5  C9  UNL     1     -67.276  -4.046  -0.138  1.00  0.00     0.210 C 
HETATM    6  C11 UNL     1     -68.402  -4.360  -1.061  1.00  0.00     0.173 A 
HETATM    7  C12 UNL     1     -69.690  -4.696  -0.735  1.00  0.00     0.215 A 
HETATM    8  O9  UNL     1     -69.359  -3.392  -1.348  1.00  0.00    -0.366 OA
ENDROOT
BRANCH   1   9
HETATM    9  C4  UNL     1     -68.348  -6.263  -2.612  1.00  0.00    -0.059 C 
HETATM   10  C3  UNL     1     -68.863  -7.335  -2.905  1.00  0.00    -0.102 C 
BRANCH  10  11
HETATM   11  C2  UNL     1     -69.469  -8.625  -3.235  1.00  0.00     0.121 C 
BRANCH  11  12
HETATM   12  C1  UNL     1     -68.695  -9.769  -2.566  1.00  0.00     0.241 C 
BRANCH  12  13
HETATM   13  N1  UNL     1     -67.282  -9.507  -2.617  1.00  0.00    -0.079 N 
ATOM     14  H13 UNL     1     -67.076  -8.609  -3.054  1.00  0.00     0.274 HD
ATOM     15  H12 UNL     1     -66.896  -9.316  -1.693  1.00  0.00     0.274 HD
ATOM     16  H11 UNL     1     -66.799 -10.277  -3.081  1.00  0.00     0.274 HD
ENDBRANCH  12  13
ENDBRANCH  11  12
ENDBRANCH  10  11
ENDBRANCH   1   9
BRANCH   1  17
HETATM   17  O1  UNL     1     -67.768  -4.076  -3.309  1.00  0.00    -0.369 OA
ATOM     18  H1  UNL     1     -68.654  -3.764  -3.451  1.00  0.00     0.212 HD
ENDBRANCH   1  17
BRANCH   2  19
HETATM   19  O2  UNL     1     -65.527  -4.199  -2.282  1.00  0.00    -0.356 OA
ATOM     20  H2  UNL     1     -65.217  -4.454  -3.143  1.00  0.00     0.213 HD
ENDBRANCH   2  19
BRANCH   2  21
HETATM   21  O3  UNL     1     -65.778  -6.508  -2.280  1.00  0.00    -0.253 OA
BRANCH  21  22
HETATM   22  C7  UNL     1     -65.114  -6.749  -3.461  1.00  0.00     0.382 C 
HETATM   23  O4  UNL     1     -65.299  -5.897  -4.395  1.00  0.00    -0.237 OA
HETATM   24  N2  UNL     1     -64.264  -7.875  -3.656  1.00  0.00    -0.252 N 
ATOM     25  H2  UNL     1     -64.143  -8.532  -2.885  1.00  0.00     0.191 HD
BRANCH  24  26
HETATM   26  N3  UNL     1     -63.595  -8.120  -4.843  1.00  0.00    -0.341 N 
ATOM     27  H32 UNL     1     -63.867  -8.947  -5.373  1.00  0.00     0.177 HD
ATOM     28  H31 UNL     1     -62.855  -7.515  -5.199  1.00  0.00     0.177 HD
ENDBRANCH  24  26
ENDBRANCH  21  22
ENDBRANCH   2  21
BRANCH   5  29
HETATM   29  O6  UNL     1     -66.662  -2.896  -0.632  1.00  0.00    -0.374 OA
ATOM     30  H6  UNL     1     -66.430  -3.068  -1.537  1.00  0.00     0.211 HD
ENDBRANCH   5  29
BRANCH   5  31
HETATM   31  C10 UNL     1     -67.677  -3.897   1.305  1.00  0.00     0.299 C 
BRANCH  31  32
HETATM   32  O7  UNL     1     -68.594  -2.883   1.418  1.00  0.00    -0.368 OA
ATOM     33  H7  UNL     1     -69.216  -3.099   2.103  1.00  0.00     0.212 HD
ENDBRANCH  31  32
BRANCH  31  34
HETATM   34  O8  UNL     1     -66.519  -3.649   2.036  1.00  0.00    -0.368 OA
ATOM     35  H8  UNL     1     -66.780  -3.475   2.933  1.00  0.00     0.212 HD
ENDBRANCH  31  34
ENDBRANCH   5  31
TORSDOF 13
ENDMDL
MODEL 5
REMARK VINA RESULT: -4.264873033      1.712      1.795
REMARK  13 active torsions:
REMARK  status: ('A' for Active; 'I' for Inactive)
REMARK    1  A    between atoms: N1_1  and  C1_5 
REMARK    2  A    between atoms: C1_5  and  C2_6 
REMARK    3  A    between atoms: C2_6  and  C3_7 
REMARK    4  A    between atoms: C4_8  and  C5_9 
REMARK    5  A    between atoms: C5_9  and  O1_10 
REMARK    6  A    between atoms: C6_12  and  O2_13 
REMARK    7  A    between atoms: C6_12  and  O3_15 
REMARK    8  A    between atoms: O3_15  and  C7_16 
REMARK       I    between atoms: C7_16  and  N2_18 
REMARK    9  A    between atoms: N2_18  and  N3_20 
REMARK   10  A    between atoms: C9_25  and  O6_26 
REMARK   11  A    between atoms: C9_25  and  C10_28 
REMARK   12  A    between atoms: C10_28  and  O7_29 
REMARK   13  A    between atoms: C10_28  and  O8_31 
ROOT
HETATM    1  C5  UNL     1     -67.619  -4.666   1.447  1.00  0.00     0.223 C 
HETATM    2  C6  UNL     1     -68.895  -3.963   1.072  1.00  0.00     0.284 C 
HETATM    3  C8  UNL     1     -69.005  -4.193  -0.388  1.00  0.00     0.235 C 
HETATM    4  O5  UNL     1     -69.983  -4.379  -1.050  1.00  0.00    -0.288 OA
HETATM    5  C9  UNL     1     -67.603  -4.144  -0.858  1.00  0.00     0.210 C 
HETATM    6  C11 UNL     1     -66.884  -4.974   0.147  1.00  0.00     0.173 A 
HETATM    7  C12 UNL     1     -66.264  -6.182  -0.044  1.00  0.00     0.215 A 
HETATM    8  O9  UNL     1     -65.494  -4.945   0.209  1.00  0.00    -0.366 OA
ENDROOT
BRANCH   1   9
HETATM    9  C4  UNL     1     -67.994  -5.910   2.127  1.00  0.00    -0.059 C 
HETATM   10  C3  UNL     1     -68.288  -6.947   2.708  1.00  0.00    -0.102 C 
BRANCH  10  11
HETATM   11  C2  UNL     1     -68.642  -8.174   3.424  1.00  0.00     0.121 C 
BRANCH  11  12
HETATM   12  C1  UNL     1     -67.412  -8.755   4.134  1.00  0.00     0.241 C 
BRANCH  12  13
HETATM   13  N1  UNL     1     -66.465  -9.239   3.166  1.00  0.00    -0.079 N 
ATOM     14  H13 UNL     1     -66.327 -10.248   3.238  1.00  0.00     0.274 HD
ATOM     15  H12 UNL     1     -66.838  -9.206   2.217  1.00  0.00     0.274 HD
ATOM     16  H11 UNL     1     -65.586  -8.729   3.249  1.00  0.00     0.274 HD
ENDBRANCH  12  13
ENDBRANCH  11  12
ENDBRANCH  10  11
ENDBRANCH   1   9
BRANCH   1  17
HETATM   17  O1  UNL     1     -66.772  -3.885   2.230  1.00  0.00    -0.369 OA
ATOM     18  H1  UNL     1     -67.253  -3.394   2.886  1.00  0.00     0.212 HD
ENDBRANCH   1  17
BRANCH   2  19
HETATM   19  O2  UNL     1     -68.595  -2.577   1.200  1.00  0.00    -0.356 OA
ATOM     20  H2  UNL     1     -68.064  -2.519   1.986  1.00  0.00     0.213 HD
ENDBRANCH   2  19
BRANCH   2  21
HETATM   21  O3  UNL     1     -70.021  -4.312   1.791  1.00  0.00    -0.253 OA
BRANCH  21  22
HETATM   22  C7  UNL     1     -70.562  -3.660   2.875  1.00  0.00     0.382 C 
HETATM   23  O4  UNL     1     -70.869  -2.433   2.698  1.00  0.00    -0.237 OA
HETATM   24  N2  UNL     1     -70.779  -4.295   4.132  1.00  0.00    -0.252 N 
ATOM     25  H2  UNL     1     -70.521  -5.276   4.232  1.00  0.00     0.191 HD
BRANCH  24  26
HETATM   26  N3  UNL     1     -71.324  -3.641   5.224  1.00  0.00    -0.341 N 
ATOM     27  H32 UNL     1     -72.303  -3.825   5.441  1.00  0.00     0.177 HD
ATOM     28  H31 UNL     1     -70.792  -2.994   5.807  1.00  0.00     0.177 HD
ENDBRANCH  24  26
ENDBRANCH  21  22
ENDBRANCH   2  21
BRANCH   5  29
HETATM   29  O6  UNL     1     -67.158  -2.834  -0.690  1.00  0.00    -0.374 OA
ATOM     30  H6  UNL     1     -66.611  -2.625  -1.438  1.00  0.00     0.211 HD
ENDBRANCH   5  29
BRANCH   5  31
HETATM   31  C10 UNL     1     -67.450  -4.616  -2.279  1.00  0.00     0.299 C 
BRANCH  31  32
HETATM   32  O7  UNL     1     -66.132  -4.519  -2.648  1.00  0.00    -0.368 OA
ATOM     33  H7  UNL     1     -66.055  -3.915  -3.378  1.00  0.00     0.212 HD
ENDBRANCH  31  32
BRANCH  31  34
HETATM   34  O8  UNL     1     -68.282  -3.831  -3.072  1.00  0.00    -0.368 OA
ATOM     35  H8  UNL     1     -67.848  -2.996  -3.200  1.00  0.00     0.212 HD
ENDBRANCH  31  34
ENDBRANCH   5  31
TORSDOF 13
ENDMDL
