MODEL 1
REMARK VINA RESULT: -5.465339027      0.000      0.000
REMARK  7 active torsions:
REMARK  status: ('A' for Active; 'I' for Inactive)
REMARK    1  A    between atoms: N1_1  and  C1_4 
REMARK    2  A    between atoms: C1_4  and  C2_6 
REMARK    3  A    between atoms: C3_8  and  N3_9 
REMARK    4  A    between atoms: N3_9  and  C4_11 
REMARK    5  A    between atoms: C5_16  and  C6_17 
REMARK       I    between atoms: C6_17  and  N6_19 
REMARK    6  A    between atoms: N6_19  and  C7_21 
REMARK    7  A    between atoms: C8_24  and  O3_25 
ROOT
HETATM    1  C4  UNL     1     -68.361  -6.747   4.368  1.00  0.00     0.164 A 
HETATM    2  N4  UNL     1     -68.342  -5.967   5.452  1.00  0.00    -0.279 N 
ATOM      3  H4  UNL     1     -68.868  -5.093   5.475  1.00  0.00     0.189 HD
HETATM    4  N5  UNL     1     -67.656  -6.338   6.453  1.00  0.00    -0.287 N 
ATOM      5  H5  UNL     1     -67.628  -5.757   7.291  1.00  0.00     0.188 HD
HETATM    6  C5  UNL     1     -66.977  -7.473   6.418  1.00  0.00     0.160 A 
HETATM    7  S1  UNL     1     -67.349  -8.038   4.851  1.00  0.00    -0.028 SA
ENDROOT
BRANCH   1   8
HETATM    8  N3  UNL     1     -69.001  -6.547   3.241  1.00  0.00    -0.326 N 
ATOM      9  H3  UNL     1     -69.247  -7.342   2.652  1.00  0.00     0.166 HD
BRANCH   8  10
HETATM   10  C3  UNL     1     -69.360  -5.206   2.824  1.00  0.00     0.335 C 
HETATM   11  O1  UNL     1     -68.194  -4.457   2.706  1.00  0.00    -0.327 OA
HETATM   12  C2  UNL     1     -67.557  -4.979   1.584  1.00  0.00     0.281 C 
HETATM   13  C9  UNL     1     -68.679  -5.230   0.652  1.00  0.00     0.257 C 
HETATM   14  N9  UNL     1     -69.855  -5.195   1.466  1.00  0.00    -0.315 N 
HETATM   15  O4  UNL     1     -68.642  -5.432  -0.582  1.00  0.00    -0.270 OA
ATOM     16  H9  UNL     1     -70.827  -5.168   1.157  1.00  0.00     0.166 HD
BRANCH  12  17
HETATM   17  C1  UNL     1     -66.556  -4.062   1.022  1.00  0.00     0.125 C 
HETATM   18  N2  UNL     1     -65.193  -4.448   1.006  1.00  0.00    -0.085 NA
BRANCH  17  19
HETATM   19  N1  UNL     1     -66.882  -2.915   0.540  1.00  0.00    -0.389 N 
ATOM     20  H12 UNL     1     -66.529  -2.589  -0.359  1.00  0.00     0.157 HD
ATOM     21  H11 UNL     1     -67.511  -2.316   1.076  1.00  0.00     0.157 HD
ENDBRANCH  17  19
ENDBRANCH  12  17
ENDBRANCH   8  10
ENDBRANCH   1   8
BRANCH   6  22
HETATM   22  C6  UNL     1     -66.134  -8.063   7.470  1.00  0.00     0.278 C 
HETATM   23  O2  UNL     1     -66.613  -9.019   8.118  1.00  0.00    -0.265 OA
HETATM   24  N6  UNL     1     -64.854  -7.578   7.733  1.00  0.00    -0.332 N 
ATOM     25  H6  UNL     1     -64.483  -6.798   7.191  1.00  0.00     0.164 HD
BRANCH  24  26
HETATM   26  C7  UNL     1     -64.047  -8.187   8.781  1.00  0.00     0.241 C 
HETATM   27  N7  UNL     1     -63.154  -7.259   9.451  1.00  0.00    -0.116 NA
HETATM   28  N8  UNL     1     -62.220  -7.501   8.438  1.00  0.00    -0.111 NA
HETATM   29  C8  UNL     1     -62.770  -8.837   8.323  1.00  0.00     0.267 C 
BRANCH  29  30
HETATM   30  O3  UNL     1     -62.781  -9.358   7.038  1.00  0.00    -0.375 OA
ATOM     31  H3  UNL     1     -62.337 -10.191   6.923  1.00  0.00     0.211 HD
ENDBRANCH  29  30
ENDBRANCH  24  26
ENDBRANCH   6  22
TORSDOF 7
ENDMDL
MODEL 2
REMARK VINA RESULT: -5.462153399      4.222      6.574
REMARK  7 active torsions:
REMARK  status: ('A' for Active; 'I' for Inactive)
REMARK    1  A    between atoms: N1_1  and  C1_4 
REMARK    2  A    between atoms: C1_4  and  C2_6 
REMARK    3  A    between atoms: C3_8  and  N3_9 
REMARK    4  A    between atoms: N3_9  and  C4_11 
REMARK    5  A    between atoms: C5_16  and  C6_17 
REMARK       I    between atoms: C6_17  and  N6_19 
REMARK    6  A    between atoms: N6_19  and  C7_21 
REMARK    7  A    between atoms: C8_24  and  O3_25 
ROOT
HETATM    1  C4  UNL     1     -67.611  -2.556   0.221  1.00  0.00     0.164 A 
HETATM    2  N4  UNL     1     -66.554  -2.949   0.936  1.00  0.00    -0.279 N 
ATOM      3  H4  UNL     1     -65.664  -2.454   0.868  1.00  0.00     0.189 HD
HETATM    4  N5  UNL     1     -66.680  -3.953   1.703  1.00  0.00    -0.287 N 
ATOM      5  H5  UNL     1     -65.885  -4.269   2.257  1.00  0.00     0.188 HD
HETATM    6  C5  UNL     1     -67.836  -4.590   1.789  1.00  0.00     0.160 A 
HETATM    7  S1  UNL     1     -68.796  -3.692   0.700  1.00  0.00    -0.028 SA
ENDROOT
BRANCH   1   8
HETATM    8  N3  UNL     1     -67.689  -1.553  -0.621  1.00  0.00    -0.326 N 
ATOM      9  H3  UNL     1     -66.844  -1.207  -1.074  1.00  0.00     0.166 HD
BRANCH   8  10
HETATM   10  C3  UNL     1     -68.966  -0.933  -0.912  1.00  0.00     0.335 C 
HETATM   11  O1  UNL     1     -69.083   0.214  -0.134  1.00  0.00    -0.327 OA
HETATM   12  C2  UNL     1     -68.164   1.103  -0.682  1.00  0.00     0.281 C 
HETATM   13  C9  UNL     1     -68.303   0.867  -2.137  1.00  0.00     0.257 C 
HETATM   14  N9  UNL     1     -68.988  -0.384  -2.249  1.00  0.00    -0.315 N 
HETATM   15  O4  UNL     1     -67.917   1.585  -3.088  1.00  0.00    -0.270 OA
ATOM     16  H9  UNL     1     -69.400  -0.796  -3.086  1.00  0.00     0.166 HD
BRANCH  12  17
HETATM   17  C1  UNL     1     -68.435   2.499  -0.314  1.00  0.00     0.125 C 
HETATM   18  N2  UNL     1     -69.629   2.814   0.380  1.00  0.00    -0.085 NA
BRANCH  17  19
HETATM   19  N1  UNL     1     -67.616   3.448  -0.602  1.00  0.00    -0.389 N 
ATOM     20  H12 UNL     1     -67.718   4.385  -0.211  1.00  0.00     0.157 HD
ATOM     21  H11 UNL     1     -66.844   3.255  -1.241  1.00  0.00     0.157 HD
ENDBRANCH  17  19
ENDBRANCH  12  17
ENDBRANCH   8  10
ENDBRANCH   1   8
BRANCH   6  22
HETATM   22  C6  UNL     1     -68.172  -5.762   2.614  1.00  0.00     0.278 C 
HETATM   23  O2  UNL     1     -67.779  -6.877   2.210  1.00  0.00    -0.265 OA
HETATM   24  N6  UNL     1     -68.896  -5.633   3.798  1.00  0.00    -0.332 N 
ATOM     25  H6  UNL     1     -69.207  -4.712   4.109  1.00  0.00     0.164 HD
BRANCH  24  26
HETATM   26  C7  UNL     1     -69.210  -6.814   4.590  1.00  0.00     0.241 C 
HETATM   27  N7  UNL     1     -70.550  -6.811   5.148  1.00  0.00    -0.116 NA
HETATM   28  N8  UNL     1     -70.047  -6.081   6.230  1.00  0.00    -0.111 NA
HETATM   29  C8  UNL     1     -68.782  -6.761   6.031  1.00  0.00     0.267 C 
BRANCH  29  30
HETATM   30  O3  UNL     1     -67.657  -5.998   6.304  1.00  0.00    -0.375 OA
ATOM     31  H3  UNL     1     -66.888  -6.477   6.589  1.00  0.00     0.211 HD
ENDBRANCH  29  30
ENDBRANCH  24  26
ENDBRANCH   6  22
TORSDOF 7
ENDMDL
MODEL 3
REMARK VINA RESULT: -5.261318785      2.243      7.923
REMARK  7 active torsions:
REMARK  status: ('A' for Active; 'I' for Inactive)
REMARK    1  A    between atoms: N1_1  and  C1_4 
REMARK    2  A    between atoms: C1_4  and  C2_6 
REMARK    3  A    between atoms: C3_8  and  N3_9 
REMARK    4  A    between atoms: N3_9  and  C4_11 
REMARK    5  A    between atoms: C5_16  and  C6_17 
REMARK       I    between atoms: C6_17  and  N6_19 
REMARK    6  A    between atoms: N6_19  and  C7_21 
REMARK    7  A    between atoms: C8_24  and  O3_25 
ROOT
HETATM    1  C4  UNL     1     -67.101  -9.091   4.377  1.00  0.00     0.164 A 
HETATM    2  N4  UNL     1     -66.564  -9.241   3.163  1.00  0.00    -0.279 N 
ATOM      3  H4  UNL     1     -65.909 -10.000   2.973  1.00  0.00     0.189 HD
HETATM    4  N5  UNL     1     -66.887  -8.419   2.252  1.00  0.00    -0.287 N 
ATOM      5  H5  UNL     1     -66.488  -8.517   1.318  1.00  0.00     0.188 HD
HETATM    6  C5  UNL     1     -67.738  -7.438   2.503  1.00  0.00     0.160 A 
HETATM    7  S1  UNL     1     -68.091  -7.715   4.150  1.00  0.00    -0.028 SA
ENDROOT
BRANCH   1   8
HETATM    8  N3  UNL     1     -66.901  -9.825   5.445  1.00  0.00    -0.326 N 
ATOM      9  H3  UNL     1     -67.690 -10.079   6.039  1.00  0.00     0.166 HD
BRANCH   8  10
HETATM   10  C3  UNL     1     -65.568 -10.277   5.789  1.00  0.00     0.335 C 
HETATM   11  O1  UNL     1     -64.746  -9.163   5.916  1.00  0.00    -0.327 OA
HETATM   12  C2  UNL     1     -65.181  -8.539   7.081  1.00  0.00     0.281 C 
HETATM   13  C9  UNL     1     -65.461  -9.679   7.983  1.00  0.00     0.257 C 
HETATM   14  N9  UNL     1     -65.530 -10.823   7.127  1.00  0.00    -0.315 N 
HETATM   15  O4  UNL     1     -65.609  -9.677   9.226  1.00  0.00    -0.270 OA
ATOM     16  H9  UNL     1     -65.549 -11.806   7.401  1.00  0.00     0.166 HD
BRANCH  12  17
HETATM   17  C1  UNL     1     -64.183  -7.616   7.638  1.00  0.00     0.125 C 
HETATM   18  N2  UNL     1     -62.838  -7.705   7.204  1.00  0.00    -0.085 NA
BRANCH  17  19
HETATM   19  N1  UNL     1     -64.496  -6.725   8.512  1.00  0.00    -0.389 N 
ATOM     20  H12 UNL     1     -64.103  -6.732   9.453  1.00  0.00     0.157 HD
ATOM     21  H11 UNL     1     -65.156  -5.991   8.252  1.00  0.00     0.157 HD
ENDBRANCH  17  19
ENDBRANCH  12  17
ENDBRANCH   8  10
ENDBRANCH   1   8
BRANCH   6  22
HETATM   22  C6  UNL     1     -68.228  -6.398   1.584  1.00  0.00     0.278 C 
HETATM   23  O2  UNL     1     -69.466  -6.283   1.459  1.00  0.00    -0.265 OA
HETATM   24  N6  UNL     1     -67.349  -5.575   0.883  1.00  0.00    -0.332 N 
ATOM     25  H6  UNL     1     -66.341  -5.686   1.001  1.00  0.00     0.164 HD
BRANCH  24  26
HETATM   26  C7  UNL     1     -67.869  -4.557  -0.019  1.00  0.00     0.241 C 
HETATM   27  N7  UNL     1     -67.129  -4.436  -1.262  1.00  0.00    -0.116 NA
HETATM   28  N8  UNL     1     -66.255  -3.566  -0.602  1.00  0.00    -0.111 NA
HETATM   29  C8  UNL     1     -67.372  -3.158   0.227  1.00  0.00     0.267 C 
BRANCH  29  30
HETATM   30  O3  UNL     1     -67.047  -2.850   1.539  1.00  0.00    -0.375 OA
ATOM     31  H3  UNL     1     -67.251  -1.966   1.822  1.00  0.00     0.211 HD
ENDBRANCH  29  30
ENDBRANCH  24  26
ENDBRANCH   6  22
TORSDOF 7
ENDMDL
MODEL 4
REMARK VINA RESULT: -5.109259373      6.942      7.765
REMARK  7 active torsions:
REMARK  status: ('A' for Active; 'I' for Inactive)
REMARK    1  A    between atoms: N1_1  and  C1_4 
REMARK    2  A    between atoms: C1_4  and  C2_6 
REMARK    3  A    between atoms: C3_8  and  N3_9 
REMARK    4  A    between atoms: N3_9  and  C4_11 
REMARK    5  A    between atoms: C5_16  and  C6_17 
REMARK       I    between atoms: C6_17  and  N6_19 
REMARK    6  A    between atoms: N6_19  and  C7_21 
REMARK    7  A    between atoms: C8_24  and  O3_25 
ROOT
HETATM    1  C4  UNL     1     -62.460 -12.473   1.853  1.00  0.00     0.164 A 
HETATM    2  N4  UNL     1     -63.774 -12.247   1.922  1.00  0.00    -0.279 N 
ATOM      3  H4  UNL     1     -64.381 -12.451   1.127  1.00  0.00     0.189 HD
HETATM    4  N5  UNL     1     -64.252 -11.774   2.998  1.00  0.00    -0.287 N 
ATOM      5  H5  UNL     1     -65.253 -11.593   3.071  1.00  0.00     0.188 HD
HETATM    6  C5  UNL     1     -63.460 -11.512   4.026  1.00  0.00     0.160 A 
HETATM    7  S1  UNL     1     -61.940 -11.975   3.404  1.00  0.00    -0.028 SA
ENDROOT
BRANCH   1   8
HETATM    8  N3  UNL     1     -61.775 -12.954   0.843  1.00  0.00    -0.326 N 
ATOM      9  H3  UNL     1     -60.924 -13.488   1.018  1.00  0.00     0.166 HD
BRANCH   8  10
HETATM   10  C3  UNL     1     -62.218 -12.734  -0.520  1.00  0.00     0.335 C 
HETATM   11  O1  UNL     1     -62.137 -11.373  -0.791  1.00  0.00    -0.327 OA
HETATM   12  C2  UNL     1     -60.772 -11.110  -0.854  1.00  0.00     0.281 C 
HETATM   13  C9  UNL     1     -60.237 -12.299  -1.553  1.00  0.00     0.257 C 
HETATM   14  N9  UNL     1     -61.275 -13.280  -1.470  1.00  0.00    -0.315 N 
HETATM   15  O4  UNL     1     -59.124 -12.448  -2.107  1.00  0.00    -0.270 OA
ATOM     16  H9  UNL     1     -61.337 -14.166  -1.971  1.00  0.00     0.166 HD
BRANCH  12  17
HETATM   17  C1  UNL     1     -60.466  -9.860  -1.561  1.00  0.00     0.125 C 
HETATM   18  N2  UNL     1     -61.144  -9.562  -2.769  1.00  0.00    -0.085 NA
BRANCH  17  19
HETATM   19  N1  UNL     1     -59.597  -9.022  -1.115  1.00  0.00    -0.389 N 
ATOM     20  H12 UNL     1     -58.606  -9.257  -1.051  1.00  0.00     0.157 HD
ATOM     21  H11 UNL     1     -59.911  -8.098  -0.818  1.00  0.00     0.157 HD
ENDBRANCH  17  19
ENDBRANCH  12  17
ENDBRANCH   8  10
ENDBRANCH   1   8
BRANCH   6  22
HETATM   22  C6  UNL     1     -63.827 -10.967   5.342  1.00  0.00     0.278 C 
HETATM   23  O2  UNL     1     -64.496 -11.702   6.100  1.00  0.00    -0.265 OA
HETATM   24  N6  UNL     1     -63.444  -9.684   5.730  1.00  0.00    -0.332 N 
ATOM     25  H6  UNL     1     -62.897  -9.101   5.096  1.00  0.00     0.164 HD
BRANCH  24  26
HETATM   26  C7  UNL     1     -63.824  -9.176   7.041  1.00  0.00     0.241 C 
HETATM   27  N7  UNL     1     -63.889  -7.729   7.116  1.00  0.00    -0.116 NA
HETATM   28  N8  UNL     1     -62.517  -7.729   7.390  1.00  0.00    -0.111 NA
HETATM   29  C8  UNL     1     -62.699  -9.018   8.027  1.00  0.00     0.267 C 
BRANCH  29  30
HETATM   30  O3  UNL     1     -61.637  -9.898   7.883  1.00  0.00    -0.375 OA
ATOM     31  H3  UNL     1     -61.855 -10.766   7.565  1.00  0.00     0.211 HD
ENDBRANCH  29  30
ENDBRANCH  24  26
ENDBRANCH   6  22
TORSDOF 7
ENDMDL
MODEL 5
REMARK VINA RESULT: -5.066430961      1.692      8.007
REMARK  7 active torsions:
REMARK  status: ('A' for Active; 'I' for Inactive)
REMARK    1  A    between atoms: N1_1  and  C1_4 
REMARK    2  A    between atoms: C1_4  and  C2_6 
REMARK    3  A    between atoms: C3_8  and  N3_9 
REMARK    4  A    between atoms: N3_9  and  C4_11 
REMARK    5  A    between atoms: C5_16  and  C6_17 
REMARK       I    between atoms: C6_17  and  N6_19 
REMARK    6  A    between atoms: N6_19  and  C7_21 
REMARK    7  A    between atoms: C8_24  and  O3_25 
ROOT
HETATM    1  C4  UNL     1     -66.951  -7.926   6.827  1.00  0.00     0.164 A 
HETATM    2  N4  UNL     1     -67.440  -6.706   7.065  1.00  0.00    -0.279 N 
ATOM      3  H4  UNL     1     -67.346  -6.277   7.986  1.00  0.00     0.189 HD
HETATM    4  N5  UNL     1     -68.025  -6.093   6.120  1.00  0.00    -0.287 N 
ATOM      5  H5  UNL     1     -68.406  -5.161   6.281  1.00  0.00     0.188 HD
HETATM    6  C5  UNL     1     -68.143  -6.654   4.927  1.00  0.00     0.160 A 
HETATM    7  S1  UNL     1     -67.368  -8.153   5.184  1.00  0.00    -0.028 SA
ENDROOT
BRANCH   1   8
HETATM    8  N3  UNL     1     -66.319  -8.719   7.658  1.00  0.00    -0.326 N 
ATOM      9  H3  UNL     1     -66.407  -9.730   7.558  1.00  0.00     0.166 HD
BRANCH   8  10
HETATM   10  C3  UNL     1     -65.497  -8.170   8.719  1.00  0.00     0.335 C 
HETATM   11  O1  UNL     1     -64.614  -9.157   9.143  1.00  0.00    -0.327 OA
HETATM   12  C2  UNL     1     -63.718  -9.302   8.088  1.00  0.00     0.281 C 
HETATM   13  C9  UNL     1     -63.512  -7.908   7.635  1.00  0.00     0.257 C 
HETATM   14  N9  UNL     1     -64.591  -7.165   8.211  1.00  0.00    -0.315 N 
HETATM   15  O4  UNL     1     -62.603  -7.446   6.909  1.00  0.00    -0.270 OA
ATOM     16  H9  UNL     1     -64.697  -6.151   8.254  1.00  0.00     0.166 HD
BRANCH  12  17
HETATM   17  C1  UNL     1     -62.464  -9.951   8.492  1.00  0.00     0.125 C 
HETATM   18  N2  UNL     1     -62.457 -11.343   8.757  1.00  0.00    -0.085 NA
BRANCH  17  19
HETATM   19  N1  UNL     1     -61.367  -9.291   8.613  1.00  0.00    -0.389 N 
ATOM     20  H12 UNL     1     -60.525  -9.545   8.096  1.00  0.00     0.157 HD
ATOM     21  H11 UNL     1     -61.340  -8.491   9.246  1.00  0.00     0.157 HD
ENDBRANCH  17  19
ENDBRANCH  12  17
ENDBRANCH   8  10
ENDBRANCH   1   8
BRANCH   6  22
HETATM   22  C6  UNL     1     -68.781  -6.104   3.721  1.00  0.00     0.278 C 
HETATM   23  O2  UNL     1     -69.979  -6.400   3.522  1.00  0.00    -0.265 OA
HETATM   24  N6  UNL     1     -68.080  -5.285   2.837  1.00  0.00    -0.332 N 
ATOM     25  H6  UNL     1     -67.103  -5.056   3.020  1.00  0.00     0.164 HD
BRANCH  24  26
HETATM   26  C7  UNL     1     -68.743  -4.757   1.653  1.00  0.00     0.241 C 
HETATM   27  N7  UNL     1     -68.570  -5.575   0.466  1.00  0.00    -0.116 NA
HETATM   28  N8  UNL     1     -67.369  -4.897   0.233  1.00  0.00    -0.111 NA
HETATM   29  C8  UNL     1     -67.961  -3.738   0.871  1.00  0.00     0.267 C 
BRANCH  29  30
HETATM   30  O3  UNL     1     -67.079  -2.957   1.602  1.00  0.00    -0.375 OA
ATOM     31  H3  UNL     1     -67.302  -2.821   2.516  1.00  0.00     0.211 HD
ENDBRANCH  29  30
ENDBRANCH  24  26
ENDBRANCH   6  22
TORSDOF 7
ENDMDL
