MODEL 1
REMARK VINA RESULT: -5.380524461      0.000      0.000
REMARK  7 active torsions:
REMARK  status: ('A' for Active; 'I' for Inactive)
REMARK    1  A    between atoms: N1_1  and  C1_5 
REMARK    2  A    between atoms: N6_11  and  C3_12 
REMARK    3  A    between atoms: C3_12  and  C4_13 
REMARK    4  A    between atoms: C4_13  and  O1_14 
REMARK    5  A    between atoms: C4_13  and  C5_16 
REMARK    6  A    between atoms: C6_17  and  C7_18 
REMARK    7  A    between atoms: C10_25  and  O5_26 
ROOT
HETATM    1  C5  UNL     1     -69.381  -2.253  -0.472  1.00  0.00     0.095 C 
HETATM    2  C6  UNL     1     -69.478  -2.939   0.653  1.00  0.00     0.145 C 
HETATM    3  N7  UNL     1     -68.214  -3.602   0.927  1.00  0.00    -0.285 N 
HETATM    4  C8  UNL     1     -67.494  -4.643   1.559  1.00  0.00     0.229 C 
HETATM    5  O4  UNL     1     -67.833  -5.094   2.699  1.00  0.00    -0.273 OA
HETATM    6  C9  UNL     1     -66.372  -5.043   0.673  1.00  0.00     0.139 C 
HETATM    7  C10 UNL     1     -66.100  -3.770  -0.099  1.00  0.00     0.169 C 
HETATM    8  C11 UNL     1     -67.214  -2.811   0.190  1.00  0.00     0.222 C 
HETATM    9  N8  UNL     1     -68.004  -2.423  -0.929  1.00  0.00    -0.362 N 
ATOM     10  H8  UNL     1     -67.667  -2.287  -1.882  1.00  0.00     0.162 HD
ENDROOT
BRANCH   1  11
HETATM   11  C4  UNL     1     -70.369  -1.421  -1.191  1.00  0.00     0.100 C 
BRANCH  11  12
HETATM   12  C3  UNL     1     -70.525  -0.054  -0.591  1.00  0.00     0.345 C 
BRANCH  12  13
HETATM   13  N6  UNL     1     -70.093   1.046  -1.382  1.00  0.00     0.157 N 
HETATM   14  C1  UNL     1     -70.651   2.249  -0.720  1.00  0.00     0.530 C 
HETATM   15  N2  UNL     1     -69.880   2.589   0.430  1.00  0.00    -0.065 NA
HETATM   16  N3  UNL     1     -68.776   3.397   0.145  1.00  0.00    -0.018 NA
HETATM   17  N4  UNL     1     -67.646   2.573   0.288  1.00  0.00    -0.020 NA
HETATM   18  N5  UNL     1     -68.014   1.298  -0.149  1.00  0.00    -0.098 NA
HETATM   19  C2  UNL     1     -68.674   1.271  -1.402  1.00  0.00     0.408 C 
BRANCH  14  20
HETATM   20  N1  UNL     1     -70.755   3.352  -1.634  1.00  0.00    -0.032 N 
ATOM     21  H13 UNL     1     -71.672   3.380  -2.080  1.00  0.00     0.278 HD
ATOM     22  H12 UNL     1     -70.791   4.243  -1.140  1.00  0.00     0.278 HD
ATOM     23  H11 UNL     1     -70.006   3.341  -2.326  1.00  0.00     0.278 HD
ENDBRANCH  14  20
ENDBRANCH  12  13
ENDBRANCH  11  12
BRANCH  11  24
HETATM   24  O1  UNL     1     -71.484  -2.016  -1.670  1.00  0.00    -0.361 OA
ATOM     25  H1  UNL     1     -71.510  -2.205  -2.600  1.00  0.00     0.217 HD
ENDBRANCH  11  24
ENDBRANCH   1  11
BRANCH   2  26
HETATM   26  C7  UNL     1     -70.581  -3.108   1.566  1.00  0.00     0.229 C 
HETATM   27  O2  UNL     1     -70.464  -2.977   2.786  1.00  0.00    -0.643 OA
HETATM   28  O3  UNL     1     -71.877  -3.437   1.125  1.00  0.00    -0.643 OA
ENDBRANCH   2  26
BRANCH   7  29
HETATM   29  O5  UNL     1     -65.930  -3.994  -1.449  1.00  0.00    -0.391 OA
ATOM     30  H5  UNL     1     -65.382  -3.338  -1.863  1.00  0.00     0.210 HD
ENDBRANCH   7  29
TORSDOF 7
ENDMDL
MODEL 2
REMARK VINA RESULT: -5.216167689      3.149      6.418
REMARK  7 active torsions:
REMARK  status: ('A' for Active; 'I' for Inactive)
REMARK    1  A    between atoms: N1_1  and  C1_5 
REMARK    2  A    between atoms: N6_11  and  C3_12 
REMARK    3  A    between atoms: C3_12  and  C4_13 
REMARK    4  A    between atoms: C4_13  and  O1_14 
REMARK    5  A    between atoms: C4_13  and  C5_16 
REMARK    6  A    between atoms: C6_17  and  C7_18 
REMARK    7  A    between atoms: C10_25  and  O5_26 
ROOT
HETATM    1  C5  UNL     1     -68.940  -0.880  -1.234  1.00  0.00     0.095 C 
HETATM    2  C6  UNL     1     -68.774   0.424  -1.364  1.00  0.00     0.145 C 
HETATM    3  N7  UNL     1     -68.793   0.777  -2.773  1.00  0.00    -0.285 N 
HETATM    4  C8  UNL     1     -68.435   1.667  -3.813  1.00  0.00     0.229 C 
HETATM    5  O4  UNL     1     -68.384   2.925  -3.629  1.00  0.00    -0.273 OA
HETATM    6  C9  UNL     1     -68.161   0.874  -5.037  1.00  0.00     0.139 C 
HETATM    7  C10 UNL     1     -69.023  -0.351  -4.829  1.00  0.00     0.169 C 
HETATM    8  C11 UNL     1     -69.533  -0.320  -3.421  1.00  0.00     0.222 C 
HETATM    9  N8  UNL     1     -69.123  -1.399  -2.588  1.00  0.00    -0.362 N 
ATOM     10  H8  UNL     1     -68.983  -2.365  -2.884  1.00  0.00     0.162 HD
ENDROOT
BRANCH   1  11
HETATM   11  C4  UNL     1     -68.988  -1.739  -0.032  1.00  0.00     0.100 C 
BRANCH  11  12
HETATM   12  C3  UNL     1     -67.667  -2.380   0.278  1.00  0.00     0.345 C 
BRANCH  12  13
HETATM   13  N6  UNL     1     -67.634  -3.802   0.298  1.00  0.00     0.157 N 
HETATM   14  C1  UNL     1     -67.277  -4.206  -1.083  1.00  0.00     0.530 C 
HETATM   15  N2  UNL     1     -65.881  -4.034  -1.309  1.00  0.00    -0.065 NA
HETATM   16  N3  UNL     1     -65.110  -5.129  -0.912  1.00  0.00    -0.018 NA
HETATM   17  N4  UNL     1     -64.431  -4.723   0.250  1.00  0.00    -0.020 NA
HETATM   18  N5  UNL     1     -65.294  -3.878   0.952  1.00  0.00    -0.098 NA
HETATM   19  C2  UNL     1     -66.607  -4.382   1.119  1.00  0.00     0.408 C 
BRANCH  14  20
HETATM   20  N1  UNL     1     -67.699  -5.550  -1.363  1.00  0.00    -0.032 N 
ATOM     21  H13 UNL     1     -67.016  -6.231  -1.030  1.00  0.00     0.278 HD
ATOM     22  H12 UNL     1     -68.490  -5.821  -0.780  1.00  0.00     0.278 HD
ATOM     23  H11 UNL     1     -67.904  -5.683  -2.353  1.00  0.00     0.278 HD
ENDBRANCH  14  20
ENDBRANCH  12  13
ENDBRANCH  11  12
BRANCH  11  24
HETATM   24  O1  UNL     1     -70.099  -2.476   0.187  1.00  0.00    -0.361 OA
ATOM     25  H1  UNL     1     -70.936  -2.064   0.009  1.00  0.00     0.217 HD
ENDBRANCH  11  24
ENDBRANCH   1  11
BRANCH   2  26
HETATM   26  C7  UNL     1     -68.588   1.457  -0.376  1.00  0.00     0.229 C 
HETATM   27  O2  UNL     1     -67.483   1.748   0.086  1.00  0.00    -0.643 OA
HETATM   28  O3  UNL     1     -69.663   2.211   0.133  1.00  0.00    -0.643 OA
ENDBRANCH   2  26
BRANCH   7  29
HETATM   29  O5  UNL     1     -68.361  -1.524  -5.127  1.00  0.00    -0.391 OA
ATOM     30  H5  UNL     1     -67.456  -1.380  -5.374  1.00  0.00     0.210 HD
ENDBRANCH   7  29
TORSDOF 7
ENDMDL
MODEL 3
REMARK VINA RESULT: -5.195464465     12.656     14.335
REMARK  7 active torsions:
REMARK  status: ('A' for Active; 'I' for Inactive)
REMARK    1  A    between atoms: N1_1  and  C1_5 
REMARK    2  A    between atoms: N6_11  and  C3_12 
REMARK    3  A    between atoms: C3_12  and  C4_13 
REMARK    4  A    between atoms: C4_13  and  O1_14 
REMARK    5  A    between atoms: C4_13  and  C5_16 
REMARK    6  A    between atoms: C6_17  and  C7_18 
REMARK    7  A    between atoms: C10_25  and  O5_26 
ROOT
HETATM    1  C5  UNL     1     -58.531  -9.021  -5.415  1.00  0.00     0.095 C 
HETATM    2  C6  UNL     1     -59.085  -8.460  -6.475  1.00  0.00     0.145 C 
HETATM    3  N7  UNL     1     -58.612  -7.092  -6.603  1.00  0.00    -0.285 N 
HETATM    4  C8  UNL     1     -58.800  -5.776  -7.088  1.00  0.00     0.229 C 
HETATM    5  O4  UNL     1     -59.372  -5.549  -8.201  1.00  0.00    -0.273 OA
HETATM    6  C9  UNL     1     -58.236  -4.826  -6.097  1.00  0.00     0.139 C 
HETATM    7  C10 UNL     1     -57.160  -5.654  -5.430  1.00  0.00     0.169 C 
HETATM    8  C11 UNL     1     -57.330  -7.074  -5.878  1.00  0.00     0.222 C 
HETATM    9  N8  UNL     1     -57.629  -8.016  -4.854  1.00  0.00    -0.362 N 
ATOM     10  H8  UNL     1     -57.276  -7.995  -3.897  1.00  0.00     0.162 HD
ENDROOT
BRANCH   1  11
HETATM   11  C4  UNL     1     -58.681 -10.375  -4.842  1.00  0.00     0.100 C 
BRANCH  11  12
HETATM   12  C3  UNL     1     -58.871 -10.358  -3.353  1.00  0.00     0.345 C 
BRANCH  12  13
HETATM   13  N6  UNL     1     -60.069  -9.765  -2.867  1.00  0.00     0.157 N 
HETATM   14  C1  UNL     1     -61.152 -10.709  -3.235  1.00  0.00     0.530 C 
HETATM   15  N2  UNL     1     -61.171 -11.820  -2.343  1.00  0.00    -0.065 NA
HETATM   16  N3  UNL     1     -61.917 -11.594  -1.183  1.00  0.00    -0.018 NA
HETATM   17  N4  UNL     1     -60.982 -11.455  -0.142  1.00  0.00    -0.020 NA
HETATM   18  N5  UNL     1     -59.866 -10.809  -0.682  1.00  0.00    -0.098 NA
HETATM   19  C2  UNL     1     -60.163  -9.649  -1.437  1.00  0.00     0.408 C 
BRANCH  14  20
HETATM   20  N1  UNL     1     -62.427 -10.050  -3.289  1.00  0.00    -0.032 N 
ATOM     21  H13 UNL     1     -63.114 -10.520  -2.700  1.00  0.00     0.278 HD
ATOM     22  H12 UNL     1     -62.401  -9.148  -2.814  1.00  0.00     0.278 HD
ATOM     23  H11 UNL     1     -62.762  -9.955  -4.248  1.00  0.00     0.278 HD
ENDBRANCH  14  20
ENDBRANCH  12  13
ENDBRANCH  11  12
BRANCH  11  24
HETATM   24  O1  UNL     1     -57.936 -11.377  -5.358  1.00  0.00    -0.361 OA
ATOM     25  H1  UNL     1     -57.577 -12.010  -4.747  1.00  0.00     0.217 HD
ENDBRANCH  11  24
ENDBRANCH   1  11
BRANCH   2  26
HETATM   26  C7  UNL     1     -60.023  -8.980  -7.439  1.00  0.00     0.229 C 
HETATM   27  O2  UNL     1     -59.774  -9.954  -8.153  1.00  0.00    -0.643 OA
HETATM   28  O3  UNL     1     -61.294  -8.408  -7.633  1.00  0.00    -0.643 OA
ENDBRANCH   2  26
BRANCH   7  29
HETATM   29  O5  UNL     1     -57.168  -5.528  -4.056  1.00  0.00    -0.391 OA
ATOM     30  H5  UNL     1     -58.038  -5.621  -3.685  1.00  0.00     0.210 HD
ENDBRANCH   7  29
TORSDOF 7
ENDMDL
MODEL 4
REMARK VINA RESULT: -5.132887513      1.424      3.072
REMARK  7 active torsions:
REMARK  status: ('A' for Active; 'I' for Inactive)
REMARK    1  A    between atoms: N1_1  and  C1_5 
REMARK    2  A    between atoms: N6_11  and  C3_12 
REMARK    3  A    between atoms: C3_12  and  C4_13 
REMARK    4  A    between atoms: C4_13  and  O1_14 
REMARK    5  A    between atoms: C4_13  and  C5_16 
REMARK    6  A    between atoms: C6_17  and  C7_18 
REMARK    7  A    between atoms: C10_25  and  O5_26 
ROOT
HETATM    1  C5  UNL     1     -68.655  -2.831  -0.225  1.00  0.00     0.095 C 
HETATM    2  C6  UNL     1     -67.806  -3.843  -0.173  1.00  0.00     0.145 C 
HETATM    3  N7  UNL     1     -68.177  -4.732   0.915  1.00  0.00    -0.285 N 
HETATM    4  C8  UNL     1     -67.815  -5.720   1.860  1.00  0.00     0.229 C 
HETATM    5  O4  UNL     1     -66.946  -6.611   1.597  1.00  0.00    -0.273 OA
HETATM    6  C9  UNL     1     -68.602  -5.497   3.098  1.00  0.00     0.139 C 
HETATM    7  C10 UNL     1     -69.850  -4.822   2.572  1.00  0.00     0.169 C 
HETATM    8  C11 UNL     1     -69.610  -4.470   1.135  1.00  0.00     0.222 C 
HETATM    9  N8  UNL     1     -69.643  -3.082   0.823  1.00  0.00    -0.362 N 
ATOM     10  H8  UNL     1     -70.250  -2.385   1.254  1.00  0.00     0.162 HD
ENDROOT
BRANCH   1  11
HETATM   11  C4  UNL     1     -68.720  -1.661  -1.126  1.00  0.00     0.100 C 
BRANCH  11  12
HETATM   12  C3  UNL     1     -69.545  -0.541  -0.565  1.00  0.00     0.345 C 
BRANCH  12  13
HETATM   13  N6  UNL     1     -69.627   0.647  -1.343  1.00  0.00     0.157 N 
HETATM   14  C1  UNL     1     -70.598   1.515  -0.634  1.00  0.00     0.530 C 
HETATM   15  N2  UNL     1     -69.986   2.128   0.497  1.00  0.00    -0.065 NA
HETATM   16  N3  UNL     1     -69.316   3.317   0.196  1.00  0.00    -0.018 NA
HETATM   17  N4  UNL     1     -67.945   3.021   0.283  1.00  0.00    -0.020 NA
HETATM   18  N5  UNL     1     -67.782   1.710  -0.172  1.00  0.00    -0.098 NA
HETATM   19  C2  UNL     1     -68.423   1.428  -1.403  1.00  0.00     0.408 C 
BRANCH  14  20
HETATM   20  N1  UNL     1     -71.176   2.489  -1.518  1.00  0.00    -0.032 N 
ATOM     21  H13 UNL     1     -70.741   3.404  -1.399  1.00  0.00     0.278 HD
ATOM     22  H12 UNL     1     -70.914   2.313  -2.488  1.00  0.00     0.278 HD
ATOM     23  H11 UNL     1     -72.189   2.542  -1.411  1.00  0.00     0.278 HD
ENDBRANCH  14  20
ENDBRANCH  12  13
ENDBRANCH  11  12
BRANCH  11  24
HETATM   24  O1  UNL     1     -68.796  -1.879  -2.457  1.00  0.00    -0.361 OA
ATOM     25  H1  UNL     1     -68.139  -1.465  -3.003  1.00  0.00     0.217 HD
ENDBRANCH  11  24
ENDBRANCH   1  11
BRANCH   2  26
HETATM   26  C7  UNL     1     -66.654  -4.153  -0.982  1.00  0.00     0.229 C 
HETATM   27  O2  UNL     1     -66.715  -4.288  -2.206  1.00  0.00    -0.643 OA
HETATM   28  O3  UNL     1     -65.371  -4.323  -0.427  1.00  0.00    -0.643 OA
ENDBRANCH   2  26
BRANCH   7  29
HETATM   29  O5  UNL     1     -70.224  -3.732   3.329  1.00  0.00    -0.391 OA
ATOM     30  H5  UNL     1     -71.111  -3.446   3.146  1.00  0.00     0.210 HD
ENDBRANCH   7  29
TORSDOF 7
ENDMDL
MODEL 5
REMARK VINA RESULT: -5.102201239      7.228     10.846
REMARK  7 active torsions:
REMARK  status: ('A' for Active; 'I' for Inactive)
REMARK    1  A    between atoms: N1_1  and  C1_5 
REMARK    2  A    between atoms: N6_11  and  C3_12 
REMARK    3  A    between atoms: C3_12  and  C4_13 
REMARK    4  A    between atoms: C4_13  and  O1_14 
REMARK    5  A    between atoms: C4_13  and  C5_16 
REMARK    6  A    between atoms: C6_17  and  C7_18 
REMARK    7  A    between atoms: C10_25  and  O5_26 
ROOT
HETATM    1  C5  UNL     1     -67.840  -7.906   5.858  1.00  0.00     0.095 C 
HETATM    2  C6  UNL     1     -68.004  -7.905   4.547  1.00  0.00     0.145 C 
HETATM    3  N7  UNL     1     -68.969  -6.883   4.180  1.00  0.00    -0.285 N 
HETATM    4  C8  UNL     1     -69.924  -6.378   3.265  1.00  0.00     0.229 C 
HETATM    5  O4  UNL     1     -69.787  -6.521   2.009  1.00  0.00    -0.273 OA
HETATM    6  C9  UNL     1     -71.006  -5.714   4.035  1.00  0.00     0.139 C 
HETATM    7  C10 UNL     1     -70.288  -5.279   5.294  1.00  0.00     0.169 C 
HETATM    8  C11 UNL     1     -68.935  -5.923   5.297  1.00  0.00     0.222 C 
HETATM    9  N8  UNL     1     -68.679  -6.823   6.369  1.00  0.00    -0.362 N 
ATOM     10  H8  UNL     1     -69.020  -6.729   7.325  1.00  0.00     0.162 HD
ENDROOT
BRANCH   1  11
HETATM   11  C4  UNL     1     -66.990  -8.743   6.731  1.00  0.00     0.100 C 
BRANCH  11  12
HETATM   12  C3  UNL     1     -65.586  -8.227   6.843  1.00  0.00     0.345 C 
BRANCH  12  13
HETATM   13  N6  UNL     1     -64.661  -9.036   7.558  1.00  0.00     0.157 N 
HETATM   14  C1  UNL     1     -63.354  -8.822   6.892  1.00  0.00     0.530 C 
HETATM   15  N2  UNL     1     -62.789  -7.575   7.288  1.00  0.00    -0.065 NA
HETATM   16  N3  UNL     1     -62.045  -7.647   8.469  1.00  0.00    -0.018 NA
HETATM   17  N4  UNL     1     -62.818  -7.003   9.451  1.00  0.00    -0.020 NA
HETATM   18  N5  UNL     1     -64.157  -7.284   9.166  1.00  0.00    -0.098 NA
HETATM   19  C2  UNL     1     -64.434  -8.652   8.925  1.00  0.00     0.408 C 
BRANCH  14  20
HETATM   20  N1  UNL     1     -62.454  -9.915   7.137  1.00  0.00    -0.032 N 
ATOM     21  H13 UNL     1     -61.480  -9.613   7.086  1.00  0.00     0.278 HD
ATOM     22  H12 UNL     1     -62.479 -10.206   8.113  1.00  0.00     0.278 HD
ATOM     23  H11 UNL     1     -62.633 -10.699   6.510  1.00  0.00     0.278 HD
ENDBRANCH  14  20
ENDBRANCH  12  13
ENDBRANCH  11  12
BRANCH  11  24
HETATM   24  O1  UNL     1     -67.155 -10.084   6.693  1.00  0.00    -0.361 OA
ATOM     25  H1  UNL     1     -67.480 -10.503   7.481  1.00  0.00     0.217 HD
ENDBRANCH  11  24
ENDBRANCH   1  11
BRANCH   2  26
HETATM   26  C7  UNL     1     -67.407  -8.719   3.518  1.00  0.00     0.229 C 
HETATM   27  O2  UNL     1     -67.330  -9.947   3.599  1.00  0.00    -0.643 OA
HETATM   28  O3  UNL     1     -66.867  -8.166   2.342  1.00  0.00    -0.643 OA
ENDBRANCH   2  26
BRANCH   7  29
HETATM   29  O5  UNL     1     -71.009  -5.555   6.438  1.00  0.00    -0.391 OA
ATOM     30  H5  UNL     1     -70.816  -4.952   7.146  1.00  0.00     0.210 HD
ENDBRANCH   7  29
TORSDOF 7
ENDMDL
