MODEL 1
REMARK VINA RESULT: -5.224004289      0.000      0.000
REMARK  6 active torsions:
REMARK  status: ('A' for Active; 'I' for Inactive)
REMARK    1  A    between atoms: N1_2  and  N2_3 
REMARK    2  A    between atoms: N1_2  and  O3_28 
REMARK       I    between atoms: N2_3  and  C2_5 
REMARK    3  A    between atoms: C2_5  and  C3_7 
REMARK    4  A    between atoms: N4_14  and  C7_15 
REMARK    5  A    between atoms: C9_22  and  N7_23 
REMARK    6  A    between atoms: O3_28  and  C10_29 
ROOT
HETATM    1  C3  UNL     1     -67.610  -5.414  -3.317  1.00  0.00     0.221 C 
HETATM    2  C4  UNL     1     -67.790  -6.661  -4.168  1.00  0.00     0.267 C 
HETATM    3  N3  UNL     1     -66.573  -6.868  -4.954  1.00  0.00    -0.071 N 
ATOM      4  H31 UNL     1     -66.316  -6.053  -5.512  1.00  0.00     0.277 HD
ATOM      5  H32 UNL     1     -66.704  -7.521  -5.727  1.00  0.00     0.277 HD
HETATM    6  C5  UNL     1     -65.536  -7.276  -4.039  1.00  0.00     0.252 C 
HETATM    7  C6  UNL     1     -65.219  -6.281  -2.973  1.00  0.00     0.170 C 
HETATM    8  N4  UNL     1     -66.348  -5.455  -2.599  1.00  0.00    -0.200 N 
ENDROOT
BRANCH   8   9
HETATM    9  C7  UNL     1     -66.211  -4.662  -1.457  1.00  0.00     0.699 A 
HETATM   10  N5  UNL     1     -65.176  -4.817  -0.630  1.00  0.00    -0.140 N 
HETATM   11  C8  UNL     1     -65.041  -4.074   0.497  1.00  0.00     0.352 A 
ATOM     12  H5  UNL     1     -64.465  -5.514  -0.852  1.00  0.00     0.189 HD
HETATM   13  O2  UNL     1     -64.090  -4.183   1.298  1.00  0.00    -0.246 OA
HETATM   14  N6  UNL     1     -65.997  -3.144   0.789  1.00  0.00    -0.141 N 
HETATM   15  C9  UNL     1     -67.034  -2.994  -0.043  1.00  0.00     0.694 A 
ATOM     16  H6  UNL     1     -65.922  -2.571   1.630  1.00  0.00     0.189 HD
HETATM   17  N8  UNL     1     -67.142  -3.742  -1.156  1.00  0.00    -0.022 N 
ATOM     18  H8  UNL     1     -67.940  -3.610  -1.777  1.00  0.00     0.203 HD
BRANCH  15  19
HETATM   19  N7  UNL     1     -67.944  -2.095   0.278  1.00  0.00    -0.234 N 
ATOM     20  H72 UNL     1     -68.799  -2.352   0.772  1.00  0.00     0.174 HD
ATOM     21  H71 UNL     1     -67.757  -1.126   0.023  1.00  0.00     0.174 HD
ENDBRANCH  15  19
ENDBRANCH   8   9
BRANCH   1  22
HETATM   22  C2  UNL     1     -67.616  -4.225  -4.226  1.00  0.00     0.259 C 
HETATM   23  N2  UNL     1     -68.720  -3.298  -4.270  1.00  0.00    -0.265 N 
ATOM     24  H2  UNL     1     -69.526  -3.449  -3.664  1.00  0.00     0.186 HD
HETATM   25  O1  UNL     1     -66.600  -4.070  -4.960  1.00  0.00    -0.270 OA
BRANCH  23  26
HETATM   26  N1  UNL     1     -68.702  -2.209  -5.117  1.00  0.00    -0.102 NA
HETATM   27  C1  UNL     1     -69.611  -2.439  -6.209  1.00  0.00     0.171 C 
BRANCH  26  28
HETATM   28  O3  UNL     1     -68.888  -1.067  -4.563  1.00  0.00    -0.232 OA
BRANCH  28  29
HETATM   29  C10 UNL     1     -69.739  -0.872  -3.528  1.00  0.00     0.423 C 
HETATM   30  N9  UNL     1     -69.580   0.469  -2.887  1.00  0.00    -0.057 NA
HETATM   31  N10 UNL     1     -68.429  -0.125  -2.364  1.00  0.00     0.020 NA
HETATM   32  O4  UNL     1     -69.144  -1.302  -2.319  1.00  0.00    -0.217 OA
ENDBRANCH  28  29
ENDBRANCH  26  28
ENDBRANCH  23  26
ENDBRANCH   1  22
TORSDOF 6
ENDMDL
MODEL 2
REMARK VINA RESULT: -5.155603264      4.117      6.013
REMARK  6 active torsions:
REMARK  status: ('A' for Active; 'I' for Inactive)
REMARK    1  A    between atoms: N1_2  and  N2_3 
REMARK    2  A    between atoms: N1_2  and  O3_28 
REMARK       I    between atoms: N2_3  and  C2_5 
REMARK    3  A    between atoms: C2_5  and  C3_7 
REMARK    4  A    between atoms: N4_14  and  C7_15 
REMARK    5  A    between atoms: C9_22  and  N7_23 
REMARK    6  A    between atoms: O3_28  and  C10_29 
ROOT
HETATM    1  C3  UNL     1     -67.768  -7.595   1.059  1.00  0.00     0.221 C 
HETATM    2  C4  UNL     1     -68.182  -8.951   0.509  1.00  0.00     0.267 C 
HETATM    3  N3  UNL     1     -69.527  -8.835  -0.054  1.00  0.00    -0.071 N 
ATOM      4  H31 UNL     1     -70.206  -8.464   0.610  1.00  0.00     0.277 HD
ATOM      5  H32 UNL     1     -69.974  -9.738  -0.210  1.00  0.00     0.277 HD
HETATM    6  C5  UNL     1     -69.421  -8.043  -1.255  1.00  0.00     0.252 C 
HETATM    7  C6  UNL     1     -68.900  -6.660  -1.045  1.00  0.00     0.170 C 
HETATM    8  N4  UNL     1     -67.994  -6.547   0.079  1.00  0.00    -0.200 N 
ENDROOT
BRANCH   8   9
HETATM    9  C7  UNL     1     -67.281  -5.354   0.209  1.00  0.00     0.699 A 
HETATM   10  N5  UNL     1     -65.970  -5.356   0.453  1.00  0.00    -0.140 N 
HETATM   11  C8  UNL     1     -65.266  -4.207   0.608  1.00  0.00     0.352 A 
ATOM     12  H5  UNL     1     -65.482  -6.250   0.525  1.00  0.00     0.189 HD
HETATM   13  O2  UNL     1     -64.040  -4.162   0.836  1.00  0.00    -0.246 OA
HETATM   14  N6  UNL     1     -65.927  -3.016   0.513  1.00  0.00    -0.141 N 
HETATM   15  C9  UNL     1     -67.242  -3.018   0.270  1.00  0.00     0.694 A 
ATOM     16  H6  UNL     1     -65.424  -2.135   0.626  1.00  0.00     0.189 HD
HETATM   17  N8  UNL     1     -67.915  -4.173   0.118  1.00  0.00    -0.022 N 
ATOM     18  H8  UNL     1     -68.917  -4.152  -0.069  1.00  0.00     0.203 HD
BRANCH  15  19
HETATM   19  N7  UNL     1     -67.848  -1.849   0.198  1.00  0.00    -0.234 N 
ATOM     20  H72 UNL     1     -67.569  -1.065   0.787  1.00  0.00     0.174 HD
ATOM     21  H71 UNL     1     -68.604  -1.754  -0.480  1.00  0.00     0.174 HD
ENDBRANCH  15  19
ENDBRANCH   8   9
BRANCH   1  22
HETATM   22  C2  UNL     1     -68.595  -7.314   2.275  1.00  0.00     0.259 C 
HETATM   23  N2  UNL     1     -68.443  -6.105   3.045  1.00  0.00    -0.265 N 
ATOM     24  H2  UNL     1     -67.751  -5.412   2.759  1.00  0.00     0.186 HD
HETATM   25  O1  UNL     1     -69.442  -8.194   2.596  1.00  0.00    -0.270 OA
BRANCH  23  26
HETATM   26  N1  UNL     1     -69.217  -5.869   4.162  1.00  0.00    -0.102 NA
HETATM   27  C1  UNL     1     -68.455  -6.172   5.345  1.00  0.00     0.171 C 
BRANCH  26  28
HETATM   28  O3  UNL     1     -69.772  -4.714   4.224  1.00  0.00    -0.232 OA
BRANCH  28  29
HETATM   29  C10 UNL     1     -70.858  -4.370   3.492  1.00  0.00     0.423 C 
HETATM   30  N9  UNL     1     -70.592  -4.367   2.021  1.00  0.00    -0.057 NA
HETATM   31  N10 UNL     1     -69.919  -3.184   2.334  1.00  0.00     0.020 NA
HETATM   32  O4  UNL     1     -70.888  -2.970   3.290  1.00  0.00    -0.217 OA
ENDBRANCH  28  29
ENDBRANCH  26  28
ENDBRANCH  23  26
ENDBRANCH   1  22
TORSDOF 6
ENDMDL
MODEL 3
REMARK VINA RESULT: -5.036573037      6.122      8.449
REMARK  6 active torsions:
REMARK  status: ('A' for Active; 'I' for Inactive)
REMARK    1  A    between atoms: N1_2  and  N2_3 
REMARK    2  A    between atoms: N1_2  and  O3_28 
REMARK       I    between atoms: N2_3  and  C2_5 
REMARK    3  A    between atoms: C2_5  and  C3_7 
REMARK    4  A    between atoms: N4_14  and  C7_15 
REMARK    5  A    between atoms: C9_22  and  N7_23 
REMARK    6  A    between atoms: O3_28  and  C10_29 
ROOT
HETATM    1  C3  UNL     1     -68.500  -6.162   5.159  1.00  0.00     0.221 C 
HETATM    2  C4  UNL     1     -69.921  -5.652   5.340  1.00  0.00     0.267 C 
HETATM    3  N3  UNL     1     -70.850  -6.733   5.013  1.00  0.00    -0.071 N 
ATOM      4  H31 UNL     1     -70.696  -7.123   4.084  1.00  0.00     0.277 HD
ATOM      5  H32 UNL     1     -71.805  -6.407   4.863  1.00  0.00     0.277 HD
HETATM    6  C5  UNL     1     -70.749  -7.717   6.063  1.00  0.00     0.252 C 
HETATM    7  C6  UNL     1     -69.393  -8.321   6.221  1.00  0.00     0.170 C 
HETATM    8  N4  UNL     1     -68.315  -7.431   5.840  1.00  0.00    -0.200 N 
ENDROOT
BRANCH   8   9
HETATM    9  C7  UNL     1     -67.016  -7.821   6.172  1.00  0.00     0.699 A 
HETATM   10  N5  UNL     1     -66.432  -8.859   5.571  1.00  0.00    -0.140 N 
HETATM   11  C8  UNL     1     -65.180  -9.268   5.900  1.00  0.00     0.352 A 
ATOM     12  H5  UNL     1     -66.942  -9.360   4.843  1.00  0.00     0.189 HD
HETATM   13  O2  UNL     1     -64.595 -10.231   5.364  1.00  0.00    -0.246 OA
HETATM   14  N6  UNL     1     -64.505  -8.593   6.876  1.00  0.00    -0.141 N 
HETATM   15  C9  UNL     1     -65.096  -7.554   7.476  1.00  0.00     0.694 A 
ATOM     16  H6  UNL     1     -63.563  -8.878   7.145  1.00  0.00     0.189 HD
HETATM   17  N8  UNL     1     -66.337  -7.168   7.130  1.00  0.00    -0.022 N 
ATOM     18  H8  UNL     1     -66.768  -6.372   7.599  1.00  0.00     0.203 HD
BRANCH  15  19
HETATM   19  N7  UNL     1     -64.418  -6.935   8.424  1.00  0.00    -0.234 N 
ATOM     20  H72 UNL     1     -63.468  -7.214   8.671  1.00  0.00     0.174 HD
ATOM     21  H71 UNL     1     -64.877  -6.157   8.897  1.00  0.00     0.174 HD
ENDBRANCH  15  19
ENDBRANCH   8   9
BRANCH   1  22
HETATM   22  C2  UNL     1     -68.258  -6.354   3.694  1.00  0.00     0.259 C 
HETATM   23  N2  UNL     1     -67.886  -5.263   2.828  1.00  0.00    -0.265 N 
ATOM     24  H2  UNL     1     -67.781  -4.326   3.219  1.00  0.00     0.186 HD
HETATM   25  O1  UNL     1     -68.395  -7.528   3.248  1.00  0.00    -0.270 OA
BRANCH  23  26
HETATM   26  N1  UNL     1     -67.669  -5.465   1.481  1.00  0.00    -0.102 NA
HETATM   27  C1  UNL     1     -68.571  -4.638   0.722  1.00  0.00     0.171 C 
BRANCH  26  28
HETATM   28  O3  UNL     1     -66.453  -5.345   1.087  1.00  0.00    -0.232 OA
BRANCH  28  29
HETATM   29  C10 UNL     1     -65.841  -4.149   0.915  1.00  0.00     0.423 C 
HETATM   30  N9  UNL     1     -65.420  -3.909  -0.499  1.00  0.00    -0.057 NA
HETATM   31  N10 UNL     1     -64.427  -4.832  -0.164  1.00  0.00     0.020 NA
HETATM   32  O4  UNL     1     -64.445  -4.284   1.100  1.00  0.00    -0.217 OA
ENDBRANCH  28  29
ENDBRANCH  26  28
ENDBRANCH  23  26
ENDBRANCH   1  22
TORSDOF 6
ENDMDL
MODEL 4
REMARK VINA RESULT: -5.008452965      3.907      5.337
REMARK  6 active torsions:
REMARK  status: ('A' for Active; 'I' for Inactive)
REMARK    1  A    between atoms: N1_2  and  N2_3 
REMARK    2  A    between atoms: N1_2  and  O3_28 
REMARK       I    between atoms: N2_3  and  C2_5 
REMARK    3  A    between atoms: C2_5  and  C3_7 
REMARK    4  A    between atoms: N4_14  and  C7_15 
REMARK    5  A    between atoms: C9_22  and  N7_23 
REMARK    6  A    between atoms: O3_28  and  C10_29 
ROOT
HETATM    1  C3  UNL     1     -68.088  -7.471   0.058  1.00  0.00     0.221 C 
HETATM    2  C4  UNL     1     -68.218  -8.827  -0.618  1.00  0.00     0.267 C 
HETATM    3  N3  UNL     1     -69.023  -8.668  -1.829  1.00  0.00    -0.071 N 
ATOM      4  H31 UNL     1     -69.930  -8.237  -1.652  1.00  0.00     0.277 HD
ATOM      5  H32 UNL     1     -69.368  -9.555  -2.198  1.00  0.00     0.277 HD
HETATM    6  C5  UNL     1     -68.225  -7.934  -2.780  1.00  0.00     0.252 C 
HETATM    7  C6  UNL     1     -67.817  -6.571  -2.330  1.00  0.00     0.170 C 
HETATM    8  N4  UNL     1     -67.672  -6.456  -0.893  1.00  0.00    -0.200 N 
ENDROOT
BRANCH   8   9
HETATM    9  C7  UNL     1     -67.072  -5.295  -0.401  1.00  0.00     0.699 A 
HETATM   10  N5  UNL     1     -65.789  -5.282  -0.036  1.00  0.00    -0.140 N 
HETATM   11  C8  UNL     1     -65.197  -4.170   0.468  1.00  0.00     0.352 A 
ATOM     12  H5  UNL     1     -65.237  -6.133  -0.139  1.00  0.00     0.189 HD
HETATM   13  O2  UNL     1     -64.002  -4.112   0.821  1.00  0.00    -0.246 OA
HETATM   14  N6  UNL     1     -65.943  -3.035   0.606  1.00  0.00    -0.141 N 
HETATM   15  C9  UNL     1     -67.230  -3.053   0.239  1.00  0.00     0.694 A 
ATOM     16  H6  UNL     1     -65.526  -2.184   0.982  1.00  0.00     0.189 HD
HETATM   17  N8  UNL     1     -67.791  -4.169  -0.261  1.00  0.00    -0.022 N 
ATOM     18  H8  UNL     1     -68.773  -4.160  -0.535  1.00  0.00     0.203 HD
BRANCH  15  19
HETATM   19  N7  UNL     1     -67.922  -1.941   0.398  1.00  0.00    -0.234 N 
ATOM     20  H72 UNL     1     -67.752  -1.118  -0.178  1.00  0.00     0.174 HD
ATOM     21  H71 UNL     1     -68.645  -1.939   1.118  1.00  0.00     0.174 HD
ENDBRANCH  15  19
ENDBRANCH   8   9
BRANCH   1  22
HETATM   22  C2  UNL     1     -69.427  -7.099   0.615  1.00  0.00     0.259 C 
HETATM   23  N2  UNL     1     -69.691  -7.082   2.033  1.00  0.00    -0.265 N 
ATOM     24  H2  UNL     1     -68.946  -7.330   2.684  1.00  0.00     0.186 HD
HETATM   25  O1  UNL     1     -70.322  -6.797  -0.223  1.00  0.00    -0.270 OA
BRANCH  23  26
HETATM   26  N1  UNL     1     -70.934  -6.736   2.522  1.00  0.00    -0.102 NA
HETATM   27  C1  UNL     1     -71.217  -7.512   3.700  1.00  0.00     0.171 C 
BRANCH  26  28
HETATM   28  O3  UNL     1     -71.132  -5.482   2.707  1.00  0.00    -0.232 OA
BRANCH  28  29
HETATM   29  C10 UNL     1     -70.280  -4.689   3.401  1.00  0.00     0.423 C 
HETATM   30  N9  UNL     1     -70.680  -3.249   3.384  1.00  0.00    -0.057 NA
HETATM   31  N10 UNL     1     -70.195  -3.324   2.076  1.00  0.00     0.020 NA
HETATM   32  O4  UNL     1     -69.256  -4.211   2.551  1.00  0.00    -0.217 OA
ENDBRANCH  28  29
ENDBRANCH  26  28
ENDBRANCH  23  26
ENDBRANCH   1  22
TORSDOF 6
ENDMDL
MODEL 5
REMARK VINA RESULT: -5.005485730      2.733      4.651
REMARK  6 active torsions:
REMARK  status: ('A' for Active; 'I' for Inactive)
REMARK    1  A    between atoms: N1_2  and  N2_3 
REMARK    2  A    between atoms: N1_2  and  O3_28 
REMARK       I    between atoms: N2_3  and  C2_5 
REMARK    3  A    between atoms: C2_5  and  C3_7 
REMARK    4  A    between atoms: N4_14  and  C7_15 
REMARK    5  A    between atoms: C9_22  and  N7_23 
REMARK    6  A    between atoms: O3_28  and  C10_29 
ROOT
HETATM    1  C3  UNL     1     -69.027  -2.226   0.368  1.00  0.00     0.221 C 
HETATM    2  C4  UNL     1     -70.368  -2.137   1.080  1.00  0.00     0.267 C 
HETATM    3  N3  UNL     1     -71.383  -2.775   0.242  1.00  0.00    -0.071 N 
ATOM      4  H31 UNL     1     -71.420  -2.389  -0.702  1.00  0.00     0.277 HD
ATOM      5  H32 UNL     1     -72.336  -2.538   0.519  1.00  0.00     0.277 HD
HETATM    6  C5  UNL     1     -71.126  -4.194   0.262  1.00  0.00     0.252 C 
HETATM    7  C6  UNL     1     -69.789  -4.592  -0.270  1.00  0.00     0.170 C 
HETATM    8  N4  UNL     1     -68.767  -3.582  -0.081  1.00  0.00    -0.200 N 
ENDROOT
BRANCH   8   9
HETATM    9  C7  UNL     1     -67.445  -3.954  -0.332  1.00  0.00     0.699 A 
HETATM   10  N5  UNL     1     -66.513  -3.875   0.618  1.00  0.00    -0.140 N 
HETATM   11  C8  UNL     1     -65.218  -4.207   0.384  1.00  0.00     0.352 A 
ATOM     12  H5  UNL     1     -66.781  -3.554   1.549  1.00  0.00     0.189 HD
HETATM   13  O2  UNL     1     -64.314  -4.149   1.242  1.00  0.00    -0.246 OA
HETATM   14  N6  UNL     1     -64.866  -4.633  -0.865  1.00  0.00    -0.141 N 
HETATM   15  C9  UNL     1     -65.805  -4.710  -1.815  1.00  0.00     0.694 A 
ATOM     16  H6  UNL     1     -63.900  -4.889  -1.070  1.00  0.00     0.189 HD
HETATM   17  N8  UNL     1     -67.082  -4.376  -1.555  1.00  0.00    -0.022 N 
ATOM     18  H8  UNL     1     -67.781  -4.444  -2.294  1.00  0.00     0.203 HD
BRANCH  15  19
HETATM   19  N7  UNL     1     -65.424  -5.113  -3.012  1.00  0.00    -0.234 N 
ATOM     20  H72 UNL     1     -65.275  -6.100  -3.222  1.00  0.00     0.174 HD
ATOM     21  H71 UNL     1     -65.292  -4.398  -3.727  1.00  0.00     0.174 HD
ENDBRANCH  15  19
ENDBRANCH   8   9
BRANCH   1  22
HETATM   22  C2  UNL     1     -69.070  -1.317  -0.820  1.00  0.00     0.259 C 
HETATM   23  N2  UNL     1     -69.314   0.099  -0.696  1.00  0.00    -0.265 N 
ATOM     24  H2  UNL     1     -69.463   0.502   0.229  1.00  0.00     0.186 HD
HETATM   25  O1  UNL     1     -68.880  -1.853  -1.948  1.00  0.00    -0.270 OA
BRANCH  23  26
HETATM   26  N1  UNL     1     -69.350   0.916  -1.807  1.00  0.00    -0.102 NA
HETATM   27  C1  UNL     1     -70.720   1.167  -2.171  1.00  0.00     0.171 C 
BRANCH  26  28
HETATM   28  O3  UNL     1     -68.662   1.996  -1.729  1.00  0.00    -0.232 OA
BRANCH  28  29
HETATM   29  C10 UNL     1     -69.036   3.063  -0.984  1.00  0.00     0.423 C 
HETATM   30  N9  UNL     1     -67.874   3.847  -0.464  1.00  0.00    -0.057 NA
HETATM   31  N10 UNL     1     -67.768   2.759   0.405  1.00  0.00     0.020 NA
HETATM   32  O4  UNL     1     -69.144   2.695   0.378  1.00  0.00    -0.217 OA
ENDBRANCH  28  29
ENDBRANCH  26  28
ENDBRANCH  23  26
ENDBRANCH   1  22
TORSDOF 6
ENDMDL
