MODEL 1
REMARK VINA RESULT: -4.530979742      0.000      0.000
REMARK  11 active torsions:
REMARK  status: ('A' for Active; 'I' for Inactive)
REMARK       I    between atoms: C2_2  and  N1_4 
REMARK    1  A    between atoms: N1_4  and  C3_6 
REMARK    2  A    between atoms: C4_7  and  O2_8 
REMARK    3  A    between atoms: C6_11  and  O3_12 
REMARK    4  A    between atoms: C6_11  and  C7_14 
REMARK    5  A    between atoms: C7_14  and  C9_17 
REMARK    6  A    between atoms: C9_17  and  N3_19 
REMARK    7  A    between atoms: C9_17  and  O4_23 
REMARK    8  A    between atoms: C11_26  and  C12_27 
REMARK    9  A    between atoms: C12_27  and  C13_29 
REMARK   10  A    between atoms: C13_29  and  N4_30 
REMARK   11  A    between atoms: C13_29  and  O7_34 
ROOT
HETATM    1  C7  UNL     1     -68.045  -5.562  -3.071  1.00  0.00     0.217 C 
HETATM    2  C8  UNL     1     -68.767  -6.817  -2.874  1.00  0.00     0.074 C 
HETATM    3  N2  UNL     1     -69.346  -7.815  -2.708  1.00  0.00    -0.197 NA
ENDROOT
BRANCH   1   4
HETATM    4  C6  UNL     1     -68.318  -4.663  -1.914  1.00  0.00     0.186 C 
HETATM    5  C5  UNL     1     -69.728  -4.687  -1.421  1.00  0.00     0.104 C 
HETATM    6  C4  UNL     1     -69.893  -3.457  -0.511  1.00  0.00     0.149 C 
HETATM    7  C3  UNL     1     -68.869  -3.557   0.614  1.00  0.00     0.149 C 
HETATM    8  C11 UNL     1     -67.510  -3.692  -0.046  1.00  0.00     0.224 C 
HETATM    9  O5  UNL     1     -67.473  -4.850  -0.842  1.00  0.00    -0.339 OA
BRANCH   6  10
HETATM   10  O2  UNL     1     -71.190  -3.455  -0.049  1.00  0.00    -0.393 OA
ATOM     11  H2  UNL     1     -71.310  -4.020   0.705  1.00  0.00     0.210 HD
ENDBRANCH   6  10
BRANCH   7  12
HETATM   12  N1  UNL     1     -69.178  -4.649   1.487  1.00  0.00    -0.351 N 
HETATM   13  C2  UNL     1     -69.939  -4.434   2.662  1.00  0.00     0.214 C 
HETATM   14  C1  UNL     1     -70.278  -5.545   3.598  1.00  0.00     0.117 C 
HETATM   15  O1  UNL     1     -70.345  -3.271   2.928  1.00  0.00    -0.274 OA
ATOM     16  H1  UNL     1     -68.847  -5.588   1.261  1.00  0.00     0.163 HD
ENDBRANCH   7  12
BRANCH   8  17
HETATM   17  C12 UNL     1     -66.403  -3.813   0.933  1.00  0.00     0.213 C 
HETATM   18  O6  UNL     1     -66.586  -3.948   2.126  1.00  0.00    -0.290 OA
BRANCH  17  19
HETATM   19  C13 UNL     1     -65.009  -3.771   0.436  1.00  0.00     0.389 C 
BRANCH  19  20
HETATM   20  N4  UNL     1     -64.720  -4.887  -0.453  1.00  0.00    -0.046 N 
ATOM     21  H43 UNL     1     -64.886  -5.781   0.008  1.00  0.00     0.277 HD
ATOM     22  H42 UNL     1     -65.415  -4.960  -1.196  1.00  0.00     0.277 HD
ATOM     23  H41 UNL     1     -63.775  -4.833  -0.832  1.00  0.00     0.277 HD
ENDBRANCH  19  20
BRANCH  19  24
HETATM   24  O7  UNL     1     -64.142  -3.891   1.521  1.00  0.00    -0.364 OA
ATOM     25  H7  UNL     1     -63.252  -3.962   1.196  1.00  0.00     0.212 HD
ENDBRANCH  19  24
ENDBRANCH  17  19
ENDBRANCH   8  17
BRANCH   4  26
HETATM   26  O3  UNL     1     -68.087  -3.349  -2.393  1.00  0.00    -0.364 OA
ATOM     27  H3  UNL     1     -67.760  -2.850  -1.654  1.00  0.00     0.213 HD
ENDBRANCH   4  26
ENDBRANCH   1   4
BRANCH   1  28
HETATM   28  C9  UNL     1     -66.620  -5.778  -3.422  1.00  0.00     0.239 C 
HETATM   29  C10 UNL     1     -66.562  -5.937  -4.948  1.00  0.00     0.080 C 
BRANCH  28  30
HETATM   30  N3  UNL     1     -66.003  -6.915  -2.827  1.00  0.00    -0.046 N 
ATOM     31  H33 UNL     1     -66.715  -7.535  -2.441  1.00  0.00     0.278 HD
ATOM     32  H32 UNL     1     -65.612  -7.517  -3.552  1.00  0.00     0.278 HD
ATOM     33  H31 UNL     1     -65.295  -6.716  -2.121  1.00  0.00     0.278 HD
ENDBRANCH  28  30
BRANCH  28  34
HETATM   34  O4  UNL     1     -65.837  -4.661  -3.136  1.00  0.00    -0.364 OA
ATOM     35  H4  UNL     1     -65.927  -4.386  -2.231  1.00  0.00     0.212 HD
ENDBRANCH  28  34
ENDBRANCH   1  28
TORSDOF 11
ENDMDL
MODEL 2
REMARK VINA RESULT: -4.471075735      1.651      5.922
REMARK  11 active torsions:
REMARK  status: ('A' for Active; 'I' for Inactive)
REMARK       I    between atoms: C2_2  and  N1_4 
REMARK    1  A    between atoms: N1_4  and  C3_6 
REMARK    2  A    between atoms: C4_7  and  O2_8 
REMARK    3  A    between atoms: C6_11  and  O3_12 
REMARK    4  A    between atoms: C6_11  and  C7_14 
REMARK    5  A    between atoms: C7_14  and  C9_17 
REMARK    6  A    between atoms: C9_17  and  N3_19 
REMARK    7  A    between atoms: C9_17  and  O4_23 
REMARK    8  A    between atoms: C11_26  and  C12_27 
REMARK    9  A    between atoms: C12_27  and  C13_29 
REMARK   10  A    between atoms: C13_29  and  N4_30 
REMARK   11  A    between atoms: C13_29  and  O7_34 
ROOT
HETATM    1  C7  UNL     1     -68.486  -4.935   2.574  1.00  0.00     0.217 C 
HETATM    2  C8  UNL     1     -68.264  -6.375   2.687  1.00  0.00     0.074 C 
HETATM    3  N2  UNL     1     -68.081  -7.523   2.768  1.00  0.00    -0.197 NA
ENDROOT
BRANCH   1   4
HETATM    4  C6  UNL     1     -67.737  -4.423   1.391  1.00  0.00     0.186 C 
HETATM    5  C5  UNL     1     -66.410  -5.069   1.163  1.00  0.00     0.104 C 
HETATM    6  C4  UNL     1     -65.654  -4.173   0.166  1.00  0.00     0.149 C 
HETATM    7  C3  UNL     1     -66.490  -4.069  -1.106  1.00  0.00     0.149 C 
HETATM    8  C11 UNL     1     -67.855  -3.558  -0.688  1.00  0.00     0.224 C 
HETATM    9  O5  UNL     1     -68.452  -4.458   0.213  1.00  0.00    -0.339 OA
BRANCH   6  10
HETATM   10  O2  UNL     1     -64.422  -4.746  -0.055  1.00  0.00    -0.393 OA
ATOM     11  H2  UNL     1     -63.717  -4.269   0.367  1.00  0.00     0.210 HD
ENDBRANCH   6  10
BRANCH   7  12
HETATM   12  N1  UNL     1     -66.546  -5.329  -1.782  1.00  0.00    -0.351 N 
HETATM   13  C2  UNL     1     -65.973  -5.479  -3.069  1.00  0.00     0.214 C 
HETATM   14  C1  UNL     1     -66.015  -6.775  -3.806  1.00  0.00     0.117 C 
HETATM   15  O1  UNL     1     -65.409  -4.490  -3.610  1.00  0.00    -0.274 OA
ATOM     16  H1  UNL     1     -67.001  -6.125  -1.334  1.00  0.00     0.163 HD
ENDBRANCH   7  12
BRANCH   8  17
HETATM   17  C12 UNL     1     -68.791  -3.416  -1.829  1.00  0.00     0.213 C 
HETATM   18  O6  UNL     1     -68.424  -3.378  -2.986  1.00  0.00    -0.290 OA
BRANCH  17  19
HETATM   19  C13 UNL     1     -70.242  -3.319  -1.549  1.00  0.00     0.389 C 
BRANCH  19  20
HETATM   20  N4  UNL     1     -70.511  -2.476  -0.393  1.00  0.00    -0.046 N 
ATOM     21  H43 UNL     1     -71.060  -2.973   0.308  1.00  0.00     0.277 HD
ATOM     22  H42 UNL     1     -69.666  -2.313   0.154  1.00  0.00     0.277 HD
ATOM     23  H41 UNL     1     -70.956  -1.599  -0.661  1.00  0.00     0.277 HD
ENDBRANCH  19  20
BRANCH  19  24
HETATM   24  O7  UNL     1     -70.726  -4.588  -1.239  1.00  0.00    -0.364 OA
ATOM     25  H7  UNL     1     -71.393  -4.825  -1.872  1.00  0.00     0.212 HD
ENDBRANCH  19  24
ENDBRANCH  17  19
ENDBRANCH   8  17
BRANCH   4  26
HETATM   26  O3  UNL     1     -67.474  -3.060   1.671  1.00  0.00    -0.364 OA
ATOM     27  H3  UNL     1     -67.860  -2.562   0.960  1.00  0.00     0.213 HD
ENDBRANCH   4  26
ENDBRANCH   1   4
BRANCH   1  28
HETATM   28  C9  UNL     1     -69.923  -4.577   2.656  1.00  0.00     0.239 C 
HETATM   29  C10 UNL     1     -70.356  -4.823   4.108  1.00  0.00     0.080 C 
BRANCH  28  30
HETATM   30  N3  UNL     1     -70.792  -5.308   1.797  1.00  0.00    -0.046 N 
ATOM     31  H33 UNL     1     -70.431  -5.295   0.843  1.00  0.00     0.278 HD
ATOM     32  H32 UNL     1     -70.727  -6.304   2.003  1.00  0.00     0.278 HD
ATOM     33  H31 UNL     1     -71.769  -5.014   1.802  1.00  0.00     0.278 HD
ENDBRANCH  28  30
BRANCH  28  34
HETATM   34  O4  UNL     1     -70.135  -3.217   2.432  1.00  0.00    -0.364 OA
ATOM     35  H4  UNL     1     -70.754  -3.065   1.727  1.00  0.00     0.212 HD
ENDBRANCH  28  34
ENDBRANCH   1  28
TORSDOF 11
ENDMDL
MODEL 3
REMARK VINA RESULT: -4.385887247      2.565      4.531
REMARK  11 active torsions:
REMARK  status: ('A' for Active; 'I' for Inactive)
REMARK       I    between atoms: C2_2  and  N1_4 
REMARK    1  A    between atoms: N1_4  and  C3_6 
REMARK    2  A    between atoms: C4_7  and  O2_8 
REMARK    3  A    between atoms: C6_11  and  O3_12 
REMARK    4  A    between atoms: C6_11  and  C7_14 
REMARK    5  A    between atoms: C7_14  and  C9_17 
REMARK    6  A    between atoms: C9_17  and  N3_19 
REMARK    7  A    between atoms: C9_17  and  O4_23 
REMARK    8  A    between atoms: C11_26  and  C12_27 
REMARK    9  A    between atoms: C12_27  and  C13_29 
REMARK   10  A    between atoms: C13_29  and  N4_30 
REMARK   11  A    between atoms: C13_29  and  O7_34 
ROOT
HETATM    1  C7  UNL     1     -66.442  -5.476  -1.741  1.00  0.00     0.217 C 
HETATM    2  C8  UNL     1     -65.349  -5.113  -0.842  1.00  0.00     0.074 C 
HETATM    3  N2  UNL     1     -64.482  -4.815  -0.122  1.00  0.00    -0.197 NA
ENDROOT
BRANCH   1   4
HETATM    4  C6  UNL     1     -67.602  -4.579  -1.476  1.00  0.00     0.186 C 
HETATM    5  C5  UNL     1     -67.524  -3.816  -0.194  1.00  0.00     0.104 C 
HETATM    6  C4  UNL     1     -68.935  -3.263   0.071  1.00  0.00     0.149 C 
HETATM    7  C3  UNL     1     -69.334  -2.391  -1.115  1.00  0.00     0.149 C 
HETATM    8  C11 UNL     1     -69.204  -3.257  -2.353  1.00  0.00     0.224 C 
HETATM    9  O5  UNL     1     -67.876  -3.695  -2.498  1.00  0.00    -0.339 OA
BRANCH   6  10
HETATM   10  O2  UNL     1     -68.889  -2.560   1.254  1.00  0.00    -0.393 OA
ATOM     11  H2  UNL     1     -68.109  -2.750   1.762  1.00  0.00     0.210 HD
ENDBRANCH   6  10
BRANCH   7  12
HETATM   12  N1  UNL     1     -68.529  -1.209  -1.171  1.00  0.00    -0.351 N 
HETATM   13  C2  UNL     1     -69.013   0.014  -0.643  1.00  0.00     0.214 C 
HETATM   14  C1  UNL     1     -68.205   1.267  -0.687  1.00  0.00     0.117 C 
HETATM   15  O1  UNL     1     -70.159   0.048  -0.122  1.00  0.00    -0.274 OA
ATOM     16  H1  UNL     1     -67.600  -1.247  -1.592  1.00  0.00     0.163 HD
ENDBRANCH   7  12
BRANCH   8  17
HETATM   17  C12 UNL     1     -69.551  -2.534  -3.600  1.00  0.00     0.213 C 
HETATM   18  O6  UNL     1     -70.084  -1.442  -3.608  1.00  0.00    -0.290 OA
BRANCH  17  19
HETATM   19  C13 UNL     1     -69.231  -3.167  -4.900  1.00  0.00     0.389 C 
BRANCH  19  20
HETATM   20  N4  UNL     1     -69.552  -4.586  -4.901  1.00  0.00    -0.046 N 
ATOM     21  H43 UNL     1     -68.973  -5.098  -5.565  1.00  0.00     0.277 HD
ATOM     22  H42 UNL     1     -69.244  -5.038  -4.040  1.00  0.00     0.277 HD
ATOM     23  H41 UNL     1     -70.545  -4.748  -5.071  1.00  0.00     0.277 HD
ENDBRANCH  19  20
BRANCH  19  24
HETATM   24  O7  UNL     1     -67.859  -3.068  -5.123  1.00  0.00    -0.364 OA
ATOM     25  H7  UNL     1     -67.713  -2.729  -5.998  1.00  0.00     0.212 HD
ENDBRANCH  19  24
ENDBRANCH  17  19
ENDBRANCH   8  17
BRANCH   4  26
HETATM   26  O3  UNL     1     -68.725  -5.435  -1.362  1.00  0.00    -0.364 OA
ATOM     27  H3  UNL     1     -68.725  -5.980  -2.140  1.00  0.00     0.213 HD
ENDBRANCH   4  26
ENDBRANCH   1   4
BRANCH   1  28
HETATM   28  C9  UNL     1     -66.000  -5.592  -3.152  1.00  0.00     0.239 C 
HETATM   29  C10 UNL     1     -64.967  -6.728  -3.198  1.00  0.00     0.080 C 
BRANCH  28  30
HETATM   30  N3  UNL     1     -65.409  -4.423  -3.711  1.00  0.00    -0.046 N 
ATOM     31  H33 UNL     1     -66.075  -3.652  -3.690  1.00  0.00     0.278 HD
ATOM     32  H32 UNL     1     -64.691  -4.062  -3.083  1.00  0.00     0.278 HD
ATOM     33  H31 UNL     1     -65.027  -4.527  -4.652  1.00  0.00     0.278 HD
ENDBRANCH  28  30
BRANCH  28  34
HETATM   34  O4  UNL     1     -67.035  -5.998  -3.991  1.00  0.00    -0.364 OA
ATOM     35  H4  UNL     1     -66.720  -6.235  -4.856  1.00  0.00     0.212 HD
ENDBRANCH  28  34
ENDBRANCH   1  28
TORSDOF 11
ENDMDL
MODEL 4
REMARK VINA RESULT: -4.275726286      2.008      5.210
REMARK  11 active torsions:
REMARK  status: ('A' for Active; 'I' for Inactive)
REMARK       I    between atoms: C2_2  and  N1_4 
REMARK    1  A    between atoms: N1_4  and  C3_6 
REMARK    2  A    between atoms: C4_7  and  O2_8 
REMARK    3  A    between atoms: C6_11  and  O3_12 
REMARK    4  A    between atoms: C6_11  and  C7_14 
REMARK    5  A    between atoms: C7_14  and  C9_17 
REMARK    6  A    between atoms: C9_17  and  N3_19 
REMARK    7  A    between atoms: C9_17  and  O4_23 
REMARK    8  A    between atoms: C11_26  and  C12_27 
REMARK    9  A    between atoms: C12_27  and  C13_29 
REMARK   10  A    between atoms: C13_29  and  N4_30 
REMARK   11  A    between atoms: C13_29  and  O7_34 
ROOT
HETATM    1  C7  UNL     1     -70.021  -4.499   0.126  1.00  0.00     0.217 C 
HETATM    2  C8  UNL     1     -70.708  -3.961  -1.046  1.00  0.00     0.074 C 
HETATM    3  N2  UNL     1     -71.249  -3.536  -1.987  1.00  0.00    -0.197 NA
ENDROOT
BRANCH   1   4
HETATM    4  C6  UNL     1     -68.892  -5.358  -0.330  1.00  0.00     0.186 C 
HETATM    5  C5  UNL     1     -69.145  -6.104  -1.599  1.00  0.00     0.104 C 
HETATM    6  C4  UNL     1     -68.056  -7.187  -1.693  1.00  0.00     0.149 C 
HETATM    7  C3  UNL     1     -66.696  -6.496  -1.672  1.00  0.00     0.149 C 
HETATM    8  C11 UNL     1     -66.657  -5.653  -0.412  1.00  0.00     0.224 C 
HETATM    9  O5  UNL     1     -67.688  -4.696  -0.440  1.00  0.00    -0.339 OA
BRANCH   6  10
HETATM   10  O2  UNL     1     -68.273  -7.893  -2.855  1.00  0.00    -0.393 OA
ATOM     11  H2  UNL     1     -67.516  -7.895  -3.428  1.00  0.00     0.210 HD
ENDBRANCH   6  10
BRANCH   7  12
HETATM   12  N1  UNL     1     -66.496  -5.731  -2.865  1.00  0.00    -0.351 N 
HETATM   13  C2  UNL     1     -65.456  -6.068  -3.767  1.00  0.00     0.214 C 
HETATM   14  C1  UNL     1     -65.214  -5.292  -5.017  1.00  0.00     0.117 C 
HETATM   15  O1  UNL     1     -64.712  -7.052  -3.507  1.00  0.00    -0.274 OA
ATOM     16  H1  UNL     1     -67.106  -4.939  -3.067  1.00  0.00     0.163 HD
ENDBRANCH   7  12
BRANCH   8  17
HETATM   17  C12 UNL     1     -65.387  -4.904  -0.259  1.00  0.00     0.213 C 
HETATM   18  O6  UNL     1     -64.308  -5.355  -0.586  1.00  0.00    -0.290 OA
BRANCH  17  19
HETATM   19  C13 UNL     1     -65.432  -3.540   0.316  1.00  0.00     0.389 C 
BRANCH  19  20
HETATM   20  N4  UNL     1     -64.102  -3.053   0.650  1.00  0.00    -0.046 N 
ATOM     21  H43 UNL     1     -63.973  -2.088   0.347  1.00  0.00     0.277 HD
ATOM     22  H42 UNL     1     -63.996  -2.919   1.655  1.00  0.00     0.277 HD
ATOM     23  H41 UNL     1     -63.373  -3.661   0.277  1.00  0.00     0.277 HD
ENDBRANCH  19  20
BRANCH  19  24
HETATM   24  O7  UNL     1     -66.154  -3.578   1.508  1.00  0.00    -0.364 OA
ATOM     25  H7  UNL     1     -65.741  -4.199   2.097  1.00  0.00     0.212 HD
ENDBRANCH  19  24
ENDBRANCH  17  19
ENDBRANCH   8  17
BRANCH   4  26
HETATM   26  O3  UNL     1     -68.729  -6.338   0.681  1.00  0.00    -0.364 OA
ATOM     27  H3  UNL     1     -68.321  -5.897   1.417  1.00  0.00     0.213 HD
ENDBRANCH   4  26
ENDBRANCH   1   4
BRANCH   1  28
HETATM   28  C9  UNL     1     -69.697  -3.450   1.122  1.00  0.00     0.239 C 
HETATM   29  C10 UNL     1     -71.035  -2.949   1.687  1.00  0.00     0.080 C 
BRANCH  28  30
HETATM   30  N3  UNL     1     -68.971  -2.330   0.626  1.00  0.00    -0.046 N 
ATOM     31  H33 UNL     1     -68.921  -1.603   1.340  1.00  0.00     0.278 HD
ATOM     32  H32 UNL     1     -67.983  -2.567   0.538  1.00  0.00     0.278 HD
ATOM     33  H31 UNL     1     -69.312  -1.933  -0.249  1.00  0.00     0.278 HD
ENDBRANCH  28  30
BRANCH  28  34
HETATM   34  O4  UNL     1     -69.003  -3.965   2.216  1.00  0.00    -0.364 OA
ATOM     35  H4  UNL     1     -69.142  -3.449   3.001  1.00  0.00     0.212 HD
ENDBRANCH  28  34
ENDBRANCH   1  28
TORSDOF 11
ENDMDL
MODEL 5
REMARK VINA RESULT: -4.251118984      2.383      5.429
REMARK  11 active torsions:
REMARK  status: ('A' for Active; 'I' for Inactive)
REMARK       I    between atoms: C2_2  and  N1_4 
REMARK    1  A    between atoms: N1_4  and  C3_6 
REMARK    2  A    between atoms: C4_7  and  O2_8 
REMARK    3  A    between atoms: C6_11  and  O3_12 
REMARK    4  A    between atoms: C6_11  and  C7_14 
REMARK    5  A    between atoms: C7_14  and  C9_17 
REMARK    6  A    between atoms: C9_17  and  N3_19 
REMARK    7  A    between atoms: C9_17  and  O4_23 
REMARK    8  A    between atoms: C11_26  and  C12_27 
REMARK    9  A    between atoms: C12_27  and  C13_29 
REMARK   10  A    between atoms: C13_29  and  N4_30 
REMARK   11  A    between atoms: C13_29  and  O7_34 
ROOT
HETATM    1  C7  UNL     1     -69.828  -2.493  -1.188  1.00  0.00     0.217 C 
HETATM    2  C8  UNL     1     -69.999  -1.611  -2.341  1.00  0.00     0.074 C 
HETATM    3  N2  UNL     1     -70.129  -0.914  -3.267  1.00  0.00    -0.197 NA
ENDROOT
BRANCH   1   4
HETATM    4  C6  UNL     1     -68.966  -3.642  -1.584  1.00  0.00     0.186 C 
HETATM    5  C5  UNL     1     -69.118  -4.078  -3.005  1.00  0.00     0.104 C 
HETATM    6  C4  UNL     1     -68.458  -5.465  -3.108  1.00  0.00     0.149 C 
HETATM    7  C3  UNL     1     -67.000  -5.330  -2.681  1.00  0.00     0.149 C 
HETATM    8  C11 UNL     1     -67.009  -4.724  -1.291  1.00  0.00     0.224 C 
HETATM    9  O5  UNL     1     -67.626  -3.461  -1.320  1.00  0.00    -0.339 OA
BRANCH   6  10
HETATM   10  O2  UNL     1     -68.592  -5.891  -4.411  1.00  0.00    -0.393 OA
ATOM     11  H2  UNL     1     -67.795  -6.280  -4.751  1.00  0.00     0.210 HD
ENDBRANCH   6  10
BRANCH   7  12
HETATM   12  N1  UNL     1     -66.263  -4.550  -3.628  1.00  0.00    -0.351 N 
HETATM   13  C2  UNL     1     -65.504  -5.183  -4.643  1.00  0.00     0.214 C 
HETATM   14  C1  UNL     1     -64.720  -4.404  -5.644  1.00  0.00     0.117 C 
HETATM   15  O1  UNL     1     -65.488  -6.442  -4.704  1.00  0.00    -0.274 OA
ATOM     16  H1  UNL     1     -66.285  -3.531  -3.572  1.00  0.00     0.163 HD
ENDBRANCH   7  12
BRANCH   8  17
HETATM   17  C12 UNL     1     -65.647  -4.519  -0.743  1.00  0.00     0.213 C 
HETATM   18  O6  UNL     1     -64.720  -5.270  -0.974  1.00  0.00    -0.290 OA
BRANCH  17  19
HETATM   19  C13 UNL     1     -65.400  -3.345   0.124  1.00  0.00     0.389 C 
BRANCH  19  20
HETATM   20  N4  UNL     1     -64.127  -3.450   0.822  1.00  0.00    -0.046 N 
ATOM     21  H43 UNL     1     -64.257  -3.746   1.789  1.00  0.00     0.277 HD
ATOM     22  H42 UNL     1     -63.582  -4.243   0.485  1.00  0.00     0.277 HD
ATOM     23  H41 UNL     1     -63.594  -2.582   0.768  1.00  0.00     0.277 HD
ENDBRANCH  19  20
BRANCH  19  24
HETATM   24  O7  UNL     1     -66.390  -3.294   1.105  1.00  0.00    -0.364 OA
ATOM     25  H7  UNL     1     -65.983  -3.099   1.941  1.00  0.00     0.212 HD
ENDBRANCH  19  24
ENDBRANCH  17  19
ENDBRANCH   8  17
BRANCH   4  26
HETATM   26  O3  UNL     1     -69.398  -4.731  -0.786  1.00  0.00    -0.364 OA
ATOM     27  H3  UNL     1     -68.619  -5.234  -0.578  1.00  0.00     0.213 HD
ENDBRANCH   4  26
ENDBRANCH   1   4
BRANCH   1  28
HETATM   28  C9  UNL     1     -69.428  -1.753   0.034  1.00  0.00     0.239 C 
HETATM   29  C10 UNL     1     -70.592  -0.812   0.380  1.00  0.00     0.080 C 
BRANCH  28  30
HETATM   30  N3  UNL     1     -68.239  -0.978  -0.074  1.00  0.00    -0.046 N 
ATOM     31  H33 UNL     1     -67.489  -1.414   0.462  1.00  0.00     0.278 HD
ATOM     32  H32 UNL     1     -67.858  -1.056  -1.017  1.00  0.00     0.278 HD
ATOM     33  H31 UNL     1     -68.326   0.005   0.185  1.00  0.00     0.278 HD
ENDBRANCH  28  30
BRANCH  28  34
HETATM   34  O4  UNL     1     -69.296  -2.598   1.135  1.00  0.00    -0.364 OA
ATOM     35  H4  UNL     1     -68.780  -3.370   0.931  1.00  0.00     0.212 HD
ENDBRANCH  28  34
ENDBRANCH   1  28
TORSDOF 11
ENDMDL
