MODEL 1
REMARK VINA RESULT: -3.270091567      0.000      0.000
REMARK  1 active torsions:
REMARK  status: ('A' for Active; 'I' for Inactive)
REMARK    1  A    between atoms: N1_1  and  C1_5 
ROOT
HETATM    1  C1  UNL     1      62.317  76.894  27.576  1.00  0.00     0.209 C 
HETATM    2  C2  UNL     1      60.921  76.493  27.075  1.00  0.00     0.061 C 
HETATM    3  C3  UNL     1      60.935  75.028  27.480  1.00  0.00     0.169 C 
HETATM    4  O1  UNL     1      62.243  74.637  27.577  1.00  0.00    -0.389 OA
HETATM    5  C4  UNL     1      63.066  75.643  27.172  1.00  0.00     0.200 C 
ENDROOT
BRANCH   1   6
HETATM    6  N1  UNL     1      62.797  78.080  26.958  1.00  0.00    -0.073 N 
ATOM      7  H13 UNL     1      62.371  78.215  26.041  1.00  0.00     0.274 HD
ATOM      8  H12 UNL     1      62.439  78.911  27.429  1.00  0.00     0.274 HD
ATOM      9  H11 UNL     1      63.815  78.104  26.897  1.00  0.00     0.274 HD
ENDBRANCH   1   6
TORSDOF 1
ENDMDL
MODEL 2
REMARK VINA RESULT: -2.318580284      2.237      2.897
REMARK  1 active torsions:
REMARK  status: ('A' for Active; 'I' for Inactive)
REMARK    1  A    between atoms: N1_1  and  C1_5 
ROOT
HETATM    1  C1  UNL     1      61.442  75.415  27.723  1.00  0.00     0.209 C 
HETATM    2  C2  UNL     1      62.900  75.830  27.472  1.00  0.00     0.061 C 
HETATM    3  C3  UNL     1      62.680  77.306  27.186  1.00  0.00     0.169 C 
HETATM    4  O1  UNL     1      61.386  77.460  26.768  1.00  0.00    -0.389 OA
HETATM    5  C4  UNL     1      60.785  76.245  26.642  1.00  0.00     0.200 C 
ENDROOT
BRANCH   1   6
HETATM    6  N1  UNL     1      61.242  74.015  27.579  1.00  0.00    -0.073 N 
ATOM      7  H13 UNL     1      61.613  73.681  26.690  1.00  0.00     0.274 HD
ATOM      8  H12 UNL     1      61.843  73.491  28.215  1.00  0.00     0.274 HD
ATOM      9  H11 UNL     1      60.265  73.747  27.693  1.00  0.00     0.274 HD
ENDBRANCH   1   6
TORSDOF 1
ENDMDL
MODEL 3
REMARK VINA RESULT: -2.224005898      1.804      2.172
REMARK  1 active torsions:
REMARK  status: ('A' for Active; 'I' for Inactive)
REMARK    1  A    between atoms: N1_1  and  C1_5 
ROOT
HETATM    1  C1  UNL     1      62.234  75.520  26.926  1.00  0.00     0.209 C 
HETATM    2  C2  UNL     1      61.132  74.557  27.395  1.00  0.00     0.061 C 
HETATM    3  C3  UNL     1      59.944  75.197  26.696  1.00  0.00     0.169 C 
HETATM    4  O1  UNL     1      60.257  76.508  26.461  1.00  0.00    -0.389 OA
HETATM    5  C4  UNL     1      61.457  76.814  27.028  1.00  0.00     0.200 C 
ENDROOT
BRANCH   1   6
HETATM    6  N1  UNL     1      63.388  75.472  27.754  1.00  0.00    -0.073 N 
ATOM      7  H13 UNL     1      64.224  75.739  27.235  1.00  0.00     0.274 HD
ATOM      8  H12 UNL     1      63.377  76.223  28.444  1.00  0.00     0.274 HD
ATOM      9  H11 UNL     1      63.508  74.564  28.203  1.00  0.00     0.274 HD
ENDBRANCH   1   6
TORSDOF 1
ENDMDL
MODEL 4
REMARK VINA RESULT: -2.024545836      2.140      2.504
REMARK  1 active torsions:
REMARK  status: ('A' for Active; 'I' for Inactive)
REMARK    1  A    between atoms: N1_1  and  C1_5 
ROOT
HETATM    1  C1  UNL     1      61.952  75.361  27.034  1.00  0.00     0.209 C 
HETATM    2  C2  UNL     1      61.481  76.655  27.716  1.00  0.00     0.061 C 
HETATM    3  C3  UNL     1      62.628  77.567  27.312  1.00  0.00     0.169 C 
HETATM    4  O1  UNL     1      63.712  76.777  27.040  1.00  0.00    -0.389 OA
HETATM    5  C4  UNL     1      63.431  75.477  27.333  1.00  0.00     0.200 C 
ENDROOT
BRANCH   1   6
HETATM    6  N1  UNL     1      61.340  74.202  27.584  1.00  0.00    -0.073 N 
ATOM      7  H13 UNL     1      61.102  73.531  26.853  1.00  0.00     0.274 HD
ATOM      8  H12 UNL     1      62.015  73.643  28.106  1.00  0.00     0.274 HD
ATOM      9  H11 UNL     1      60.527  74.425  28.157  1.00  0.00     0.274 HD
ENDBRANCH   1   6
TORSDOF 1
ENDMDL
MODEL 5
REMARK VINA RESULT: -1.972033657      1.024      1.647
REMARK  1 active torsions:
REMARK  status: ('A' for Active; 'I' for Inactive)
REMARK    1  A    between atoms: N1_1  and  C1_5 
ROOT
HETATM    1  C1  UNL     1      62.235  76.806  26.692  1.00  0.00     0.209 C 
HETATM    2  C2  UNL     1      62.595  75.703  27.698  1.00  0.00     0.061 C 
HETATM    3  C3  UNL     1      61.464  74.732  27.401  1.00  0.00     0.169 C 
HETATM    4  O1  UNL     1      60.438  75.448  26.846  1.00  0.00    -0.389 OA
HETATM    5  C4  UNL     1      60.732  76.778  26.858  1.00  0.00     0.200 C 
ENDROOT
BRANCH   1   6
HETATM    6  N1  UNL     1      62.830  78.055  27.019  1.00  0.00    -0.073 N 
ATOM      7  H13 UNL     1      62.768  78.241  28.020  1.00  0.00     0.274 HD
ATOM      8  H12 UNL     1      63.845  78.016  26.921  1.00  0.00     0.274 HD
ATOM      9  H11 UNL     1      62.439  78.827  26.478  1.00  0.00     0.274 HD
ENDBRANCH   1   6
TORSDOF 1
ENDMDL
