MODEL 1
REMARK VINA RESULT: -9.308966280      0.000      0.000
REMARK  1 active torsions:
REMARK  status: ('A' for Active; 'I' for Inactive)
REMARK    1  A    between atoms: C4_6  and  C5_7 
ROOT
HETATM    1  C1  UNL     1       6.106  29.844  57.308  1.00  0.00     0.071 C 
HETATM    2  C2  UNL     1       4.726  30.093  56.839  1.00  0.00     0.040 A 
HETATM    3  C3  UNL     1       4.371  31.366  56.431  1.00  0.00     0.066 A 
HETATM    4  N1  UNL     1       5.027  32.546  56.344  1.00  0.00    -0.353 N 
ATOM      5  H1  UNL     1       6.003  32.709  56.594  1.00  0.00     0.166 HD
HETATM    6  C4  UNL     1       4.170  33.466  55.870  1.00  0.00     0.050 A 
HETATM    7  C13 UNL     1       2.951  32.845  55.657  1.00  0.00     0.044 A 
HETATM    8  C14 UNL     1       3.070  31.536  56.005  1.00  0.00    -0.003 A 
HETATM    9  C15 UNL     1       2.181  30.503  55.988  1.00  0.00     0.043 A 
HETATM   10  C16 UNL     1       2.580  29.249  56.405  1.00  0.00     0.039 A 
HETATM   11  C17 UNL     1       1.648  28.232  56.371  1.00  0.00     0.030 A 
HETATM   12  C18 UNL     1       2.058  26.984  56.790  1.00  0.00     0.004 A 
HETATM   13  C19 UNL     1       3.367  26.761  57.232  1.00  0.00     0.018 A 
HETATM   14  C20 UNL     1       4.235  27.832  57.233  1.00  0.00     0.097 A 
HETATM   15  N2  UNL     1       3.854  29.057  56.828  1.00  0.00    -0.324 N 
ENDROOT
BRANCH   6  16
HETATM   16  C5  UNL     1       4.420  34.887  55.606  1.00  0.00     0.033 A 
HETATM   17  C6  UNL     1       4.459  35.928  56.488  1.00  0.00     0.034 A 
HETATM   18  C7  UNL     1       4.712  37.157  55.993  1.00  0.00    -0.018 A 
HETATM   19  C8  UNL     1       4.797  38.368  56.717  1.00  0.00     0.013 A 
HETATM   20  C12 UNL     1       4.911  37.257  54.644  1.00  0.00     0.016 A 
HETATM   21  C9  UNL     1       5.062  39.540  56.064  1.00  0.00     0.001 A 
HETATM   22  C10 UNL     1       5.265  39.654  54.709  1.00  0.00     0.001 A 
HETATM   23  C11 UNL     1       5.183  38.476  53.994  1.00  0.00     0.019 A 
HETATM   24  S1  UNL     1       4.736  35.632  54.112  1.00  0.00    -0.087 SA
ENDBRANCH   6  16
TORSDOF 1
ENDMDL
MODEL 2
REMARK VINA RESULT: -9.121887905      2.036      8.456
REMARK  1 active torsions:
REMARK  status: ('A' for Active; 'I' for Inactive)
REMARK    1  A    between atoms: C4_6  and  C5_7 
ROOT
HETATM    1  C1  UNL     1       7.641  35.567  57.513  1.00  0.00     0.071 C 
HETATM    2  C2  UNL     1       6.389  35.756  56.749  1.00  0.00     0.040 A 
HETATM    3  C3  UNL     1       5.552  34.673  56.546  1.00  0.00     0.066 A 
HETATM    4  N1  UNL     1       5.594  33.368  56.902  1.00  0.00    -0.353 N 
ATOM      5  H1  UNL     1       6.335  32.917  57.440  1.00  0.00     0.166 HD
HETATM    6  C4  UNL     1       4.490  32.769  56.424  1.00  0.00     0.050 A 
HETATM    7  C13 UNL     1       3.743  33.723  55.755  1.00  0.00     0.044 A 
HETATM    8  C14 UNL     1       4.400  34.911  55.827  1.00  0.00    -0.003 A 
HETATM    9  C15 UNL     1       4.101  36.149  55.341  1.00  0.00     0.043 A 
HETATM   10  C16 UNL     1       4.966  37.201  55.569  1.00  0.00     0.039 A 
HETATM   11  C17 UNL     1       4.625  38.437  55.060  1.00  0.00     0.030 A 
HETATM   12  C18 UNL     1       5.498  39.479  55.293  1.00  0.00     0.004 A 
HETATM   13  C19 UNL     1       6.680  39.288  56.016  1.00  0.00     0.018 A 
HETATM   14  C20 UNL     1       6.944  38.020  56.490  1.00  0.00     0.097 A 
HETATM   15  N2  UNL     1       6.106  36.991  56.273  1.00  0.00    -0.324 N 
ENDROOT
BRANCH   6  16
HETATM   16  C5  UNL     1       4.093  31.363  56.554  1.00  0.00     0.033 A 
HETATM   17  C6  UNL     1       2.905  30.775  56.229  1.00  0.00     0.034 A 
HETATM   18  C7  UNL     1       2.786  29.449  56.445  1.00  0.00    -0.018 A 
HETATM   19  C8  UNL     1       1.655  28.641  56.185  1.00  0.00     0.013 A 
HETATM   20  C12 UNL     1       3.868  28.803  56.975  1.00  0.00     0.016 A 
HETATM   21  C9  UNL     1       1.690  27.303  56.463  1.00  0.00     0.001 A 
HETATM   22  C10 UNL     1       2.772  26.640  56.995  1.00  0.00     0.001 A 
HETATM   23  C11 UNL     1       3.880  27.423  57.252  1.00  0.00     0.019 A 
HETATM   24  S1  UNL     1       5.017  30.068  57.153  1.00  0.00    -0.087 SA
ENDBRANCH   6  16
TORSDOF 1
ENDMDL
MODEL 3
REMARK VINA RESULT: -9.080599005      0.778      1.334
REMARK  1 active torsions:
REMARK  status: ('A' for Active; 'I' for Inactive)
REMARK    1  A    between atoms: C4_6  and  C5_7 
ROOT
HETATM    1  C1  UNL     1       6.034  29.981  57.455  1.00  0.00     0.071 C 
HETATM    2  C2  UNL     1       4.673  30.161  56.906  1.00  0.00     0.040 A 
HETATM    3  C3  UNL     1       4.301  31.400  56.416  1.00  0.00     0.066 A 
HETATM    4  N1  UNL     1       4.925  32.596  56.302  1.00  0.00    -0.353 N 
ATOM      5  H1  UNL     1       5.881  32.803  56.592  1.00  0.00     0.166 HD
HETATM    6  C4  UNL     1       4.065  33.462  55.740  1.00  0.00     0.050 A 
HETATM    7  C13 UNL     1       2.879  32.792  55.498  1.00  0.00     0.044 A 
HETATM    8  C14 UNL     1       3.019  31.506  55.918  1.00  0.00    -0.003 A 
HETATM    9  C15 UNL     1       2.164  30.445  55.909  1.00  0.00     0.043 A 
HETATM   10  C16 UNL     1       2.579  29.227  56.408  1.00  0.00     0.039 A 
HETATM   11  C17 UNL     1       1.681  28.180  56.380  1.00  0.00     0.030 A 
HETATM   12  C18 UNL     1       2.107  26.968  56.882  1.00  0.00     0.004 A 
HETATM   13  C19 UNL     1       3.398  26.810  57.399  1.00  0.00     0.018 A 
HETATM   14  C20 UNL     1       4.231  27.908  57.389  1.00  0.00     0.097 A 
HETATM   15  N2  UNL     1       3.834  29.098  56.904  1.00  0.00    -0.324 N 
ENDROOT
BRANCH   6  16
HETATM   16  C5  UNL     1       4.286  34.877  55.417  1.00  0.00     0.033 A 
HETATM   17  C6  UNL     1       4.762  35.426  54.262  1.00  0.00     0.034 A 
HETATM   18  C7  UNL     1       4.874  36.770  54.211  1.00  0.00    -0.018 A 
HETATM   19  C8  UNL     1       5.341  37.545  53.125  1.00  0.00     0.013 A 
HETATM   20  C12 UNL     1       4.499  37.470  55.323  1.00  0.00     0.016 A 
HETATM   21  C9  UNL     1       5.395  38.908  53.230  1.00  0.00     0.001 A 
HETATM   22  C10 UNL     1       5.020  39.625  54.342  1.00  0.00     0.001 A 
HETATM   23  C11 UNL     1       4.564  38.874  55.406  1.00  0.00     0.019 A 
HETATM   24  S1  UNL     1       4.003  36.230  56.404  1.00  0.00    -0.087 SA
ENDBRANCH   6  16
TORSDOF 1
ENDMDL
MODEL 4
REMARK VINA RESULT: -8.946915506      1.956      8.571
REMARK  1 active torsions:
REMARK  status: ('A' for Active; 'I' for Inactive)
REMARK    1  A    between atoms: C4_6  and  C5_7 
ROOT
HETATM    1  C1  UNL     1       5.217  35.214  52.253  1.00  0.00     0.071 C 
HETATM    2  C2  UNL     1       4.851  35.582  53.638  1.00  0.00     0.040 A 
HETATM    3  C3  UNL     1       4.496  34.586  54.529  1.00  0.00     0.066 A 
HETATM    4  N1  UNL     1       4.388  33.240  54.447  1.00  0.00    -0.353 N 
ATOM      5  H1  UNL     1       4.573  32.674  53.618  1.00  0.00     0.166 HD
HETATM    6  C4  UNL     1       3.996  32.778  55.646  1.00  0.00     0.050 A 
HETATM    7  C13 UNL     1       3.856  33.862  56.497  1.00  0.00     0.044 A 
HETATM    8  C14 UNL     1       4.165  34.991  55.806  1.00  0.00    -0.003 A 
HETATM    9  C15 UNL     1       4.188  36.305  56.170  1.00  0.00     0.043 A 
HETATM   10  C16 UNL     1       4.550  37.265  55.246  1.00  0.00     0.039 A 
HETATM   11  C17 UNL     1       4.560  38.582  55.656  1.00  0.00     0.030 A 
HETATM   12  C18 UNL     1       4.923  39.532  54.724  1.00  0.00     0.004 A 
HETATM   13  C19 UNL     1       5.266  39.171  53.416  1.00  0.00     0.018 A 
HETATM   14  C20 UNL     1       5.230  37.832  53.090  1.00  0.00     0.097 A 
HETATM   15  N2  UNL     1       4.879  36.891  53.985  1.00  0.00    -0.324 N 
ENDROOT
BRANCH   6  16
HETATM   16  C5  UNL     1       3.744  31.389  56.045  1.00  0.00     0.033 A 
HETATM   17  C6  UNL     1       2.613  30.643  55.880  1.00  0.00     0.034 A 
HETATM   18  C7  UNL     1       2.631  29.373  56.337  1.00  0.00    -0.018 A 
HETATM   19  C8  UNL     1       1.581  28.430  56.275  1.00  0.00     0.013 A 
HETATM   20  C12 UNL     1       3.785  28.939  56.928  1.00  0.00     0.016 A 
HETATM   21  C9  UNL     1       1.756  27.174  56.787  1.00  0.00     0.001 A 
HETATM   22  C10 UNL     1       2.912  26.725  57.383  1.00  0.00     0.001 A 
HETATM   23  C11 UNL     1       3.942  27.641  57.448  1.00  0.00     0.019 A 
HETATM   24  S1  UNL     1       4.807  30.318  56.826  1.00  0.00    -0.087 SA
ENDBRANCH   6  16
TORSDOF 1
ENDMDL
MODEL 5
REMARK VINA RESULT: -8.893008630      5.213      6.895
REMARK  1 active torsions:
REMARK  status: ('A' for Active; 'I' for Inactive)
REMARK    1  A    between atoms: C4_6  and  C5_7 
ROOT
HETATM    1  C1  UNL     1       5.634  26.133  58.071  1.00  0.00     0.071 C 
HETATM    2  C2  UNL     1       5.296  27.477  57.553  1.00  0.00     0.040 A 
HETATM    3  C3  UNL     1       6.288  28.438  57.474  1.00  0.00     0.066 A 
HETATM    4  N1  UNL     1       7.606  28.462  57.778  1.00  0.00    -0.353 N 
ATOM      5  H1  UNL     1       8.147  27.685  58.160  1.00  0.00     0.166 HD
HETATM    6  C4  UNL     1       8.078  29.687  57.490  1.00  0.00     0.050 A 
HETATM    7  C13 UNL     1       7.031  30.444  56.995  1.00  0.00     0.044 A 
HETATM    8  C14 UNL     1       5.912  29.671  56.983  1.00  0.00    -0.003 A 
HETATM    9  C15 UNL     1       4.630  29.928  56.596  1.00  0.00     0.043 A 
HETATM   10  C16 UNL     1       3.674  28.937  56.693  1.00  0.00     0.039 A 
HETATM   11  C17 UNL     1       2.390  29.240  56.290  1.00  0.00     0.030 A 
HETATM   12  C18 UNL     1       1.443  28.242  56.392  1.00  0.00     0.004 A 
HETATM   13  C19 UNL     1       1.775  26.975  56.884  1.00  0.00     0.018 A 
HETATM   14  C20 UNL     1       3.082  26.757  57.264  1.00  0.00     0.097 A 
HETATM   15  N2  UNL     1       4.019  27.717  57.173  1.00  0.00    -0.324 N 
ENDROOT
BRANCH   6  16
HETATM   16  C5  UNL     1       9.447  30.191  57.650  1.00  0.00     0.033 A 
HETATM   17  C6  UNL     1      10.584  29.797  57.007  1.00  0.00     0.034 A 
HETATM   18  C7  UNL     1      11.734  30.423  57.333  1.00  0.00    -0.018 A 
HETATM   19  C8  UNL     1      13.020  30.178  56.799  1.00  0.00     0.013 A 
HETATM   20  C12 UNL     1      11.663  31.402  58.285  1.00  0.00     0.016 A 
HETATM   21  C9  UNL     1      14.093  30.902  57.238  1.00  0.00     0.001 A 
HETATM   22  C10 UNL     1      14.036  31.890  58.193  1.00  0.00     0.001 A 
HETATM   23  C11 UNL     1      12.784  32.134  58.720  1.00  0.00     0.019 A 
HETATM   24  S1  UNL     1       9.993  31.417  58.692  1.00  0.00    -0.087 SA
ENDBRANCH   6  16
TORSDOF 1
ENDMDL
