MODEL 1
REMARK VINA RESULT: -9.139175252      0.000      0.000
REMARK  3 active torsions:
REMARK  status: ('A' for Active; 'I' for Inactive)
REMARK    1  A    between atoms: C6_7  and  C7_8 
REMARK    2  A    between atoms: C8_9  and  C9_10 
REMARK    3  A    between atoms: C12_13  and  C13_14 
ROOT
HETATM    1  C7  UNL     1       4.406  32.814  55.314  1.00  0.00    -0.061 C 
HETATM    2  C8  UNL     1       4.369  31.741  55.869  1.00  0.00    -0.061 C 
ENDROOT
BRANCH   2   3
HETATM    3  C9  UNL     1       4.341  30.457  56.514  1.00  0.00     0.018 A 
HETATM    4  C10 UNL     1       3.150  29.758  56.580  1.00  0.00     0.021 A 
HETATM    5  C11 UNL     1       3.156  28.529  57.205  1.00  0.00     0.013 A 
HETATM    6  C12 UNL     1       4.285  27.964  57.765  1.00  0.00    -0.026 A 
HETATM    7  C19 UNL     1       5.453  28.685  57.683  1.00  0.00     0.013 A 
HETATM    8  C20 UNL     1       5.487  29.906  57.072  1.00  0.00     0.021 A 
BRANCH   6   9
HETATM    9  C13 UNL     1       4.274  26.668  58.420  1.00  0.00    -0.026 A 
HETATM   10  C14 UNL     1       3.123  26.158  58.982  1.00  0.00     0.012 A 
HETATM   11  C15 UNL     1       3.161  24.918  59.595  1.00  0.00     0.001 A 
HETATM   12  C16 UNL     1       4.324  24.176  59.661  1.00  0.00     0.000 A 
HETATM   13  C17 UNL     1       5.468  24.683  59.104  1.00  0.00     0.001 A 
HETATM   14  C18 UNL     1       5.431  25.924  58.489  1.00  0.00     0.012 A 
ENDBRANCH   6   9
ENDBRANCH   2   3
BRANCH   1  15
HETATM   15  C6  UNL     1       4.442  34.085  54.649  1.00  0.00     0.019 A 
HETATM   16  C5  UNL     1       4.258  34.245  53.283  1.00  0.00     0.034 A 
HETATM   17  C4  UNL     1       4.298  35.473  52.672  1.00  0.00    -0.001 A 
HETATM   18  C3  UNL     1       4.112  35.594  51.320  1.00  0.00     0.020 A 
HETATM   19  C23 UNL     1       4.528  36.585  53.428  1.00  0.00     0.089 A 
HETATM   20  C2  UNL     1       4.155  36.844  50.706  1.00  0.00     0.083 A 
HETATM   21  C1  UNL     1       4.395  37.934  51.547  1.00  0.00     0.288 A 
HETATM   22  O1  UNL     1       4.434  39.057  51.012  1.00  0.00    -0.260 OA
HETATM   23  O2  UNL     1       4.565  37.774  52.826  1.00  0.00    -0.275 OA
HETATM   24  C22 UNL     1       4.718  36.486  54.787  1.00  0.00     0.040 A 
HETATM   25  C21 UNL     1       4.673  35.248  55.371  1.00  0.00     0.023 A 
ENDBRANCH   1  15
TORSDOF 3
ENDMDL
MODEL 2
REMARK VINA RESULT: -9.101450754      0.069      1.343
REMARK  3 active torsions:
REMARK  status: ('A' for Active; 'I' for Inactive)
REMARK    1  A    between atoms: C6_7  and  C7_8 
REMARK    2  A    between atoms: C8_9  and  C9_10 
REMARK    3  A    between atoms: C12_13  and  C13_14 
ROOT
HETATM    1  C7  UNL     1       4.451  32.811  55.297  1.00  0.00    -0.061 C 
HETATM    2  C8  UNL     1       4.425  31.739  55.853  1.00  0.00    -0.061 C 
ENDROOT
BRANCH   2   3
HETATM    3  C9  UNL     1       4.410  30.455  56.499  1.00  0.00     0.018 A 
HETATM    4  C10 UNL     1       5.572  29.972  57.072  1.00  0.00     0.021 A 
HETATM    5  C11 UNL     1       5.525  28.738  57.684  1.00  0.00     0.013 A 
HETATM    6  C12 UNL     1       4.384  27.964  57.754  1.00  0.00    -0.026 A 
HETATM    7  C19 UNL     1       3.245  28.473  57.175  1.00  0.00     0.013 A 
HETATM    8  C20 UNL     1       3.252  29.692  56.559  1.00  0.00     0.021 A 
BRANCH   6   9
HETATM    9  C13 UNL     1       4.351  26.665  58.403  1.00  0.00    -0.026 A 
HETATM   10  C14 UNL     1       5.483  25.884  58.502  1.00  0.00     0.012 A 
HETATM   11  C15 UNL     1       5.404  24.653  59.129  1.00  0.00     0.001 A 
HETATM   12  C16 UNL     1       4.218  24.184  59.660  1.00  0.00     0.000 A 
HETATM   13  C17 UNL     1       3.093  24.960  59.562  1.00  0.00     0.001 A 
HETATM   14  C18 UNL     1       3.171  26.193  58.934  1.00  0.00     0.012 A 
ENDBRANCH   6   9
ENDBRANCH   2   3
BRANCH   1  15
HETATM   15  C6  UNL     1       4.474  34.082  54.631  1.00  0.00     0.019 A 
HETATM   16  C5  UNL     1       4.270  34.241  53.268  1.00  0.00     0.034 A 
HETATM   17  C4  UNL     1       4.297  35.469  52.656  1.00  0.00    -0.001 A 
HETATM   18  C3  UNL     1       4.091  35.588  51.306  1.00  0.00     0.020 A 
HETATM   19  C23 UNL     1       4.534  36.582  53.407  1.00  0.00     0.089 A 
HETATM   20  C2  UNL     1       4.121  36.838  50.691  1.00  0.00     0.083 A 
HETATM   21  C1  UNL     1       4.369  37.929  51.528  1.00  0.00     0.288 A 
HETATM   22  O1  UNL     1       4.398  39.052  50.991  1.00  0.00    -0.260 OA
HETATM   23  O2  UNL     1       4.559  37.770  52.804  1.00  0.00    -0.275 OA
HETATM   24  C22 UNL     1       4.744  36.484  54.764  1.00  0.00     0.040 A 
HETATM   25  C21 UNL     1       4.711  35.247  55.348  1.00  0.00     0.023 A 
ENDBRANCH   1  15
TORSDOF 3
ENDMDL
MODEL 3
REMARK VINA RESULT: -8.885243442      3.863     10.910
REMARK  3 active torsions:
REMARK  status: ('A' for Active; 'I' for Inactive)
REMARK    1  A    between atoms: C6_7  and  C7_8 
REMARK    2  A    between atoms: C8_9  and  C9_10 
REMARK    3  A    between atoms: C12_13  and  C13_14 
ROOT
HETATM    1  C7  UNL     1       4.093  32.273  55.617  1.00  0.00    -0.061 C 
HETATM    2  C8  UNL     1       4.190  33.241  54.901  1.00  0.00    -0.061 C 
ENDROOT
BRANCH   2   3
HETATM    3  C9  UNL     1       4.296  34.380  54.030  1.00  0.00     0.018 A 
HETATM    4  C10 UNL     1       4.735  35.586  54.544  1.00  0.00     0.021 A 
HETATM    5  C11 UNL     1       4.826  36.659  53.684  1.00  0.00     0.013 A 
HETATM    6  C12 UNL     1       4.503  36.592  52.343  1.00  0.00    -0.026 A 
HETATM    7  C19 UNL     1       4.070  35.378  51.863  1.00  0.00     0.013 A 
HETATM    8  C20 UNL     1       3.966  34.292  52.685  1.00  0.00     0.021 A 
BRANCH   6   9
HETATM    9  C13 UNL     1       4.606  37.732  51.450  1.00  0.00    -0.026 A 
HETATM   10  C14 UNL     1       4.265  39.002  51.867  1.00  0.00     0.012 A 
HETATM   11  C15 UNL     1       4.378  40.058  50.980  1.00  0.00     0.001 A 
HETATM   12  C16 UNL     1       4.824  39.875  49.686  1.00  0.00     0.000 A 
HETATM   13  C17 UNL     1       5.162  38.614  49.272  1.00  0.00     0.001 A 
HETATM   14  C18 UNL     1       5.049  37.555  50.159  1.00  0.00     0.012 A 
ENDBRANCH   6   9
ENDBRANCH   2   3
BRANCH   1  15
HETATM   15  C6  UNL     1       3.988  31.121  56.466  1.00  0.00     0.019 A 
HETATM   16  C5  UNL     1       3.222  30.005  56.160  1.00  0.00     0.034 A 
HETATM   17  C4  UNL     1       3.139  28.916  56.990  1.00  0.00    -0.001 A 
HETATM   18  C3  UNL     1       2.372  27.831  56.655  1.00  0.00     0.020 A 
HETATM   19  C23 UNL     1       3.831  28.921  58.166  1.00  0.00     0.089 A 
HETATM   20  C2  UNL     1       2.291  26.729  57.504  1.00  0.00     0.083 A 
HETATM   21  C1  UNL     1       3.029  26.810  58.688  1.00  0.00     0.288 A 
HETATM   22  O1  UNL     1       2.967  25.831  59.455  1.00  0.00    -0.260 OA
HETATM   23  O2  UNL     1       3.744  27.859  58.966  1.00  0.00    -0.275 OA
HETATM   24  C22 UNL     1       4.607  30.001  58.521  1.00  0.00     0.040 A 
HETATM   25  C21 UNL     1       4.672  31.074  57.674  1.00  0.00     0.023 A 
ENDBRANCH   1  15
TORSDOF 3
ENDMDL
MODEL 4
REMARK VINA RESULT: -8.880425879      3.793     10.948
REMARK  3 active torsions:
REMARK  status: ('A' for Active; 'I' for Inactive)
REMARK    1  A    between atoms: C6_7  and  C7_8 
REMARK    2  A    between atoms: C8_9  and  C9_10 
REMARK    3  A    between atoms: C12_13  and  C13_14 
ROOT
HETATM    1  C7  UNL     1       3.586  32.486  55.427  1.00  0.00    -0.061 C 
HETATM    2  C8  UNL     1       3.780  33.406  54.666  1.00  0.00    -0.061 C 
ENDROOT
BRANCH   2   3
HETATM    3  C9  UNL     1       4.002  34.485  53.744  1.00  0.00     0.018 A 
HETATM    4  C10 UNL     1       4.568  35.660  54.202  1.00  0.00     0.021 A 
HETATM    5  C11 UNL     1       4.768  36.678  53.293  1.00  0.00     0.013 A 
HETATM    6  C12 UNL     1       4.434  36.583  51.957  1.00  0.00    -0.026 A 
HETATM    7  C19 UNL     1       3.873  35.401  51.533  1.00  0.00     0.013 A 
HETATM    8  C20 UNL     1       3.658  34.371  52.404  1.00  0.00     0.021 A 
BRANCH   6   9
HETATM    9  C13 UNL     1       4.652  37.664  51.012  1.00  0.00    -0.026 A 
HETATM   10  C14 UNL     1       4.262  38.955  51.297  1.00  0.00     0.012 A 
HETATM   11  C15 UNL     1       4.490  39.953  50.366  1.00  0.00     0.001 A 
HETATM   12  C16 UNL     1       5.099  39.689  49.154  1.00  0.00     0.000 A 
HETATM   13  C17 UNL     1       5.486  38.406  48.870  1.00  0.00     0.001 A 
HETATM   14  C18 UNL     1       5.258  37.406  49.802  1.00  0.00     0.012 A 
ENDBRANCH   6   9
ENDBRANCH   2   3
BRANCH   1  15
HETATM   15  C6  UNL     1       3.366  31.392  56.329  1.00  0.00     0.019 A 
HETATM   16  C5  UNL     1       4.060  30.192  56.267  1.00  0.00     0.034 A 
HETATM   17  C4  UNL     1       3.829  29.161  57.142  1.00  0.00    -0.001 A 
HETATM   18  C3  UNL     1       4.533  27.989  57.052  1.00  0.00     0.020 A 
HETATM   19  C23 UNL     1       2.883  29.311  58.114  1.00  0.00     0.089 A 
HETATM   20  C2  UNL     1       4.294  26.945  57.944  1.00  0.00     0.083 A 
HETATM   21  C1  UNL     1       3.310  27.176  58.909  1.00  0.00     0.288 A 
HETATM   22  O1  UNL     1       3.086  26.252  59.714  1.00  0.00    -0.260 OA
HETATM   23  O2  UNL     1       2.666  28.304  58.959  1.00  0.00    -0.275 OA
HETATM   24  C22 UNL     1       2.165  30.479  58.222  1.00  0.00     0.040 A 
HETATM   25  C21 UNL     1       2.415  31.492  57.335  1.00  0.00     0.023 A 
ENDBRANCH   1  15
TORSDOF 3
ENDMDL
MODEL 5
REMARK VINA RESULT: -8.735489487      0.876      1.773
REMARK  3 active torsions:
REMARK  status: ('A' for Active; 'I' for Inactive)
REMARK    1  A    between atoms: C6_7  and  C7_8 
REMARK    2  A    between atoms: C8_9  and  C9_10 
REMARK    3  A    between atoms: C12_13  and  C13_14 
ROOT
HETATM    1  C7  UNL     1       4.417  32.823  55.449  1.00  0.00    -0.061 C 
HETATM    2  C8  UNL     1       4.371  31.733  55.971  1.00  0.00    -0.061 C 
ENDROOT
BRANCH   2   3
HETATM    3  C9  UNL     1       4.341  30.438  56.593  1.00  0.00     0.018 A 
HETATM    4  C10 UNL     1       3.176  29.694  56.549  1.00  0.00     0.021 A 
HETATM    5  C11 UNL     1       3.179  28.455  57.154  1.00  0.00     0.013 A 
HETATM    6  C12 UNL     1       4.278  27.923  57.798  1.00  0.00    -0.026 A 
HETATM    7  C19 UNL     1       5.420  28.688  57.824  1.00  0.00     0.013 A 
HETATM    8  C20 UNL     1       5.457  29.921  57.236  1.00  0.00     0.021 A 
BRANCH   6   9
HETATM    9  C13 UNL     1       4.264  26.616  58.431  1.00  0.00    -0.026 A 
HETATM   10  C14 UNL     1       3.107  26.091  58.967  1.00  0.00     0.012 A 
HETATM   11  C15 UNL     1       3.142  24.841  59.560  1.00  0.00     0.001 A 
HETATM   12  C16 UNL     1       4.308  24.104  59.630  1.00  0.00     0.000 A 
HETATM   13  C17 UNL     1       5.457  24.625  59.098  1.00  0.00     0.001 A 
HETATM   14  C18 UNL     1       5.423  25.876  58.504  1.00  0.00     0.012 A 
ENDBRANCH   6   9
ENDBRANCH   2   3
BRANCH   1  15
HETATM   15  C6  UNL     1       4.471  34.111  54.821  1.00  0.00     0.019 A 
HETATM   16  C5  UNL     1       4.539  35.307  55.521  1.00  0.00     0.034 A 
HETATM   17  C4  UNL     1       4.589  36.527  54.894  1.00  0.00    -0.001 A 
HETATM   18  C3  UNL     1       4.657  37.689  55.618  1.00  0.00     0.020 A 
HETATM   19  C23 UNL     1       4.571  36.577  53.531  1.00  0.00     0.089 A 
HETATM   20  C2  UNL     1       4.706  38.924  54.975  1.00  0.00     0.083 A 
HETATM   21  C1  UNL     1       4.683  38.891  53.579  1.00  0.00     0.288 A 
HETATM   22  O1  UNL     1       4.729  39.988  52.991  1.00  0.00    -0.260 OA
HETATM   23  O2  UNL     1       4.620  37.766  52.931  1.00  0.00    -0.275 OA
HETATM   24  C22 UNL     1       4.503  35.422  52.786  1.00  0.00     0.040 A 
HETATM   25  C21 UNL     1       4.455  34.218  53.437  1.00  0.00     0.023 A 
ENDBRANCH   1  15
TORSDOF 3
ENDMDL
