MODEL 1
REMARK VINA RESULT: -9.934957515      0.000      0.000
REMARK  1 active torsions:
REMARK  status: ('A' for Active; 'I' for Inactive)
REMARK    1  A    between atoms: C9_11  and  C10_12 
ROOT
HETATM    1  C1  UNL     1      10.397  31.115  59.774  1.00  0.00     0.158 C 
HETATM    2  N1  UNL     1      10.047  30.691  58.433  1.00  0.00    -0.329 N 
HETATM    3  C2  UNL     1      10.801  30.325  57.409  1.00  0.00     0.063 A 
HETATM    4  C3  UNL     1      12.173  30.242  57.333  1.00  0.00     0.032 A 
HETATM    5  C4  UNL     1      12.771  29.835  56.165  1.00  0.00     0.002 A 
HETATM    6  C5  UNL     1      11.985  29.514  55.082  1.00  0.00     0.002 A 
HETATM    7  C6  UNL     1      10.622  29.606  55.189  1.00  0.00     0.032 A 
HETATM    8  C7  UNL     1       9.995  30.010  56.342  1.00  0.00     0.068 A 
HETATM    9  N2  UNL     1       8.683  30.195  56.738  1.00  0.00    -0.299 N 
HETATM   10  C8  UNL     1       7.491  30.062  56.178  1.00  0.00     0.119 A 
HETATM   11  C9  UNL     1       6.382  30.346  56.893  1.00  0.00     0.035 A 
HETATM   12  S1  UNL     1       7.114  30.812  58.418  1.00  0.00    -0.051 SA
HETATM   13  C20 UNL     1       8.747  30.603  57.994  1.00  0.00     0.158 A 
ENDROOT
BRANCH  11  14
HETATM   14  C10 UNL     1       4.944  30.239  56.693  1.00  0.00    -0.006 A 
HETATM   15  C11 UNL     1       4.310  31.427  56.282  1.00  0.00     0.014 A 
HETATM   16  C12 UNL     1       2.967  31.515  56.036  1.00  0.00     0.002 A 
HETATM   17  C13 UNL     1       2.194  30.396  56.194  1.00  0.00     0.012 A 
HETATM   18  C14 UNL     1       2.796  29.228  56.591  1.00  0.00    -0.025 A 
HETATM   19  C15 UNL     1       2.016  28.095  56.713  1.00  0.00     0.012 A 
HETATM   20  C19 UNL     1       4.181  29.134  56.844  1.00  0.00    -0.014 A 
HETATM   21  C16 UNL     1       2.582  26.895  57.071  1.00  0.00     0.001 A 
HETATM   22  C17 UNL     1       3.926  26.803  57.310  1.00  0.00     0.001 A 
HETATM   23  C18 UNL     1       4.739  27.934  57.196  1.00  0.00     0.013 A 
ENDBRANCH  11  14
TORSDOF 1
ENDMDL
MODEL 2
REMARK VINA RESULT: -9.652567883      0.875      2.306
REMARK  1 active torsions:
REMARK  status: ('A' for Active; 'I' for Inactive)
REMARK    1  A    between atoms: C9_11  and  C10_12 
ROOT
HETATM    1  C1  UNL     1      10.450  32.016  59.322  1.00  0.00     0.158 C 
HETATM    2  N1  UNL     1      10.308  30.958  58.341  1.00  0.00    -0.329 N 
HETATM    3  C2  UNL     1      11.202  30.349  57.578  1.00  0.00     0.063 A 
HETATM    4  C3  UNL     1      12.560  30.559  57.504  1.00  0.00     0.032 A 
HETATM    5  C4  UNL     1      13.322  29.814  56.637  1.00  0.00     0.002 A 
HETATM    6  C5  UNL     1      12.713  28.862  55.852  1.00  0.00     0.002 A 
HETATM    7  C6  UNL     1      11.359  28.675  55.949  1.00  0.00     0.032 A 
HETATM    8  C7  UNL     1      10.570  29.405  56.805  1.00  0.00     0.068 A 
HETATM    9  N2  UNL     1       9.223  29.442  57.115  1.00  0.00    -0.299 N 
HETATM   10  C8  UNL     1       8.137  28.797  56.719  1.00  0.00     0.119 A 
HETATM   11  C9  UNL     1       6.940  29.112  57.258  1.00  0.00     0.035 A 
HETATM   12  S1  UNL     1       7.430  30.378  58.370  1.00  0.00    -0.051 SA
HETATM   13  C20 UNL     1       9.097  30.381  58.036  1.00  0.00     0.158 A 
ENDROOT
BRANCH  11  14
HETATM   14  C10 UNL     1       5.581  28.596  57.178  1.00  0.00    -0.006 A 
HETATM   15  C11 UNL     1       5.432  27.248  57.555  1.00  0.00     0.014 A 
HETATM   16  C12 UNL     1       4.228  26.597  57.552  1.00  0.00     0.002 A 
HETATM   17  C13 UNL     1       3.109  27.283  57.167  1.00  0.00     0.012 A 
HETATM   18  C14 UNL     1       3.235  28.600  56.799  1.00  0.00    -0.025 A 
HETATM   19  C15 UNL     1       2.096  29.296  56.448  1.00  0.00     0.012 A 
HETATM   20  C19 UNL     1       4.474  29.275  56.803  1.00  0.00    -0.014 A 
HETATM   21  C16 UNL     1       2.169  30.626  56.110  1.00  0.00     0.001 A 
HETATM   22  C17 UNL     1       3.369  31.282  56.119  1.00  0.00     0.001 A 
HETATM   23  C18 UNL     1       4.539  30.601  56.469  1.00  0.00     0.013 A 
ENDBRANCH  11  14
TORSDOF 1
ENDMDL
MODEL 3
REMARK VINA RESULT: -9.468421811      1.234      2.232
REMARK  1 active torsions:
REMARK  status: ('A' for Active; 'I' for Inactive)
REMARK    1  A    between atoms: C9_11  and  C10_12 
ROOT
HETATM    1  C1  UNL     1      10.977  28.581  56.634  1.00  0.00     0.158 C 
HETATM    2  N1  UNL     1      10.219  29.643  57.265  1.00  0.00    -0.329 N 
HETATM    3  C2  UNL     1      10.603  30.663  58.017  1.00  0.00     0.063 A 
HETATM    4  C3  UNL     1      11.874  31.007  58.420  1.00  0.00     0.032 A 
HETATM    5  C4  UNL     1      12.065  32.116  59.208  1.00  0.00     0.002 A 
HETATM    6  C5  UNL     1      10.978  32.871  59.584  1.00  0.00     0.002 A 
HETATM    7  C6  UNL     1       9.726  32.502  59.166  1.00  0.00     0.032 A 
HETATM    8  C7  UNL     1       9.502  31.399  58.379  1.00  0.00     0.068 A 
HETATM    9  N2  UNL     1       8.391  30.797  57.818  1.00  0.00    -0.299 N 
HETATM   10  C8  UNL     1       7.087  31.027  57.806  1.00  0.00     0.119 A 
HETATM   11  C9  UNL     1       6.269  30.194  57.129  1.00  0.00     0.035 A 
HETATM   12  S1  UNL     1       7.447  29.056  56.499  1.00  0.00    -0.051 SA
HETATM   13  C20 UNL     1       8.852  29.749  57.159  1.00  0.00     0.158 A 
ENDROOT
BRANCH  11  14
HETATM   14  C10 UNL     1       4.853  30.151  56.795  1.00  0.00    -0.006 A 
HETATM   15  C11 UNL     1       4.313  31.366  56.333  1.00  0.00     0.014 A 
HETATM   16  C12 UNL     1       3.003  31.512  55.963  1.00  0.00     0.002 A 
HETATM   17  C13 UNL     1       2.172  30.429  56.042  1.00  0.00     0.012 A 
HETATM   18  C14 UNL     1       2.682  29.235  56.487  1.00  0.00    -0.025 A 
HETATM   19  C15 UNL     1       1.846  28.137  56.529  1.00  0.00     0.012 A 
HETATM   20  C19 UNL     1       4.032  29.079  56.868  1.00  0.00    -0.014 A 
HETATM   21  C16 UNL     1       2.323  26.913  56.932  1.00  0.00     0.001 A 
HETATM   22  C17 UNL     1       3.633  26.761  57.295  1.00  0.00     0.001 A 
HETATM   23  C18 UNL     1       4.501  27.856  57.264  1.00  0.00     0.013 A 
ENDBRANCH  11  14
TORSDOF 1
ENDMDL
MODEL 4
REMARK VINA RESULT: -9.397435547      1.309      3.223
REMARK  1 active torsions:
REMARK  status: ('A' for Active; 'I' for Inactive)
REMARK    1  A    between atoms: C9_11  and  C10_12 
ROOT
HETATM    1  C1  UNL     1      11.526  29.921  55.383  1.00  0.00     0.158 C 
HETATM    2  N1  UNL     1      10.716  30.259  56.536  1.00  0.00    -0.329 N 
HETATM    3  C2  UNL     1      10.971  31.014  57.593  1.00  0.00     0.063 A 
HETATM    4  C3  UNL     1      12.117  31.712  57.898  1.00  0.00     0.032 A 
HETATM    5  C4  UNL     1      12.184  32.445  59.057  1.00  0.00     0.002 A 
HETATM    6  C5  UNL     1      11.098  32.472  59.901  1.00  0.00     0.002 A 
HETATM    7  C6  UNL     1       9.970  31.767  59.570  1.00  0.00     0.032 A 
HETATM    8  C7  UNL     1       9.873  31.024  58.419  1.00  0.00     0.068 A 
HETATM    9  N2  UNL     1       8.900  30.235  57.834  1.00  0.00    -0.299 N 
HETATM   10  C8  UNL     1       7.665  29.865  58.136  1.00  0.00     0.119 A 
HETATM   11  C9  UNL     1       6.989  29.051  57.298  1.00  0.00     0.035 A 
HETATM   12  S1  UNL     1       8.197  28.832  56.044  1.00  0.00    -0.051 SA
HETATM   13  C20 UNL     1       9.434  29.790  56.710  1.00  0.00     0.158 A 
ENDROOT
BRANCH  11  14
HETATM   14  C10 UNL     1       5.638  28.516  57.212  1.00  0.00    -0.006 A 
HETATM   15  C11 UNL     1       5.507  27.165  57.586  1.00  0.00     0.014 A 
HETATM   16  C12 UNL     1       4.313  26.496  57.578  1.00  0.00     0.002 A 
HETATM   17  C13 UNL     1       3.186  27.167  57.189  1.00  0.00     0.012 A 
HETATM   18  C14 UNL     1       3.293  28.485  56.825  1.00  0.00    -0.025 A 
HETATM   19  C15 UNL     1       2.146  29.166  56.470  1.00  0.00     0.012 A 
HETATM   20  C19 UNL     1       4.523  29.179  56.834  1.00  0.00    -0.014 A 
HETATM   21  C16 UNL     1       2.200  30.497  56.135  1.00  0.00     0.001 A 
HETATM   22  C17 UNL     1       3.391  31.171  56.149  1.00  0.00     0.001 A 
HETATM   23  C18 UNL     1       4.569  30.507  56.502  1.00  0.00     0.013 A 
ENDBRANCH  11  14
TORSDOF 1
ENDMDL
MODEL 5
REMARK VINA RESULT: -9.279045088      3.639      7.129
REMARK  1 active torsions:
REMARK  status: ('A' for Active; 'I' for Inactive)
REMARK    1  A    between atoms: C9_11  and  C10_12 
ROOT
HETATM    1  C1  UNL     1       6.547  28.713  57.746  1.00  0.00     0.158 C 
HETATM    2  N1  UNL     1       5.287  29.171  57.194  1.00  0.00    -0.329 N 
HETATM    3  C2  UNL     1       4.124  28.557  57.046  1.00  0.00     0.063 A 
HETATM    4  C3  UNL     1       3.778  27.270  57.389  1.00  0.00     0.032 A 
HETATM    5  C4  UNL     1       2.503  26.817  57.149  1.00  0.00     0.002 A 
HETATM    6  C5  UNL     1       1.586  27.662  56.569  1.00  0.00     0.002 A 
HETATM    7  C6  UNL     1       1.960  28.939  56.240  1.00  0.00     0.032 A 
HETATM    8  C7  UNL     1       3.227  29.420  56.466  1.00  0.00     0.068 A 
HETATM    9  N2  UNL     1       3.878  30.621  56.250  1.00  0.00    -0.299 N 
HETATM   10  C8  UNL     1       3.558  31.799  55.738  1.00  0.00     0.119 A 
HETATM   11  C9  UNL     1       4.488  32.776  55.683  1.00  0.00     0.035 A 
HETATM   12  S1  UNL     1       5.853  31.941  56.402  1.00  0.00    -0.051 SA
HETATM   13  C20 UNL     1       5.109  30.440  56.695  1.00  0.00     0.158 A 
ENDROOT
BRANCH  11  14
HETATM   14  C10 UNL     1       4.516  34.183  55.308  1.00  0.00    -0.006 A 
HETATM   15  C11 UNL     1       4.217  35.083  56.349  1.00  0.00     0.014 A 
HETATM   16  C12 UNL     1       4.205  36.442  56.185  1.00  0.00     0.002 A 
HETATM   17  C13 UNL     1       4.497  36.959  54.953  1.00  0.00     0.012 A 
HETATM   18  C14 UNL     1       4.793  36.097  53.927  1.00  0.00    -0.025 A 
HETATM   19  C15 UNL     1       5.122  36.628  52.696  1.00  0.00     0.012 A 
HETATM   20  C19 UNL     1       4.808  34.695  54.092  1.00  0.00    -0.014 A 
HETATM   21  C16 UNL     1       5.463  35.804  51.650  1.00  0.00     0.001 A 
HETATM   22  C17 UNL     1       5.484  34.445  51.812  1.00  0.00     0.001 A 
HETATM   23  C18 UNL     1       5.153  33.881  53.047  1.00  0.00     0.013 A 
ENDBRANCH  11  14
TORSDOF 1
ENDMDL
