MODEL 1
REMARK VINA RESULT: -4.377709524      0.000      0.000
REMARK  10 active torsions:
REMARK  status: ('A' for Active; 'I' for Inactive)
REMARK    1  A    between atoms: C2_3  and  N2_4 
REMARK    2  A    between atoms: N2_4  and  C3_6 
REMARK    3  A    between atoms: C4_11  and  N5_12 
REMARK    4  A    between atoms: N5_12  and  C5_14 
REMARK    5  A    between atoms: C5_14  and  C6_15 
REMARK    6  A    between atoms: C6_15  and  C7_16 
REMARK    7  A    between atoms: C7_16  and  C8_17 
REMARK    8  A    between atoms: C8_17  and  C9_18 
REMARK    9  A    between atoms: C9_18  and  C10_19 
REMARK   10  A    between atoms: C10_19  and  N6_20 
ROOT
HETATM    1  N1  UNL     1      59.631  32.781  43.348  1.00  0.00    -0.196 NA
HETATM    2  C1  UNL     1      60.220  33.149  44.291  1.00  0.00     0.079 C 
HETATM    3  C2  UNL     1      60.950  33.619  45.447  1.00  0.00     0.262 C 
ENDROOT
BRANCH   3   4
HETATM    4  N2  UNL     1      60.030  34.079  46.465  1.00  0.00    -0.212 N 
ATOM      5  H2  UNL     1      59.731  35.054  46.494  1.00  0.00     0.178 HD
BRANCH   4   6
HETATM    6  C3  UNL     1      59.597  33.234  47.333  1.00  0.00     0.708 A 
HETATM    7  N3  UNL     1      58.866  33.496  48.451  1.00  0.00    -0.117 N 
HETATM    8  N4  UNL     1      58.623  32.356  49.075  1.00  0.00    -0.117 N 
ATOM      9  H3  UNL     1      58.557  34.419  48.757  1.00  0.00     0.206 HD
HETATM   10  C4  UNL     1      59.186  31.357  48.379  1.00  0.00     0.707 A 
ATOM     11  H4  UNL     1      58.096  32.253  49.943  1.00  0.00     0.206 HD
HETATM   12  N7  UNL     1      59.786  31.901  47.304  1.00  0.00    -0.020 N 
ATOM     13  H7  UNL     1      60.298  31.388  46.587  1.00  0.00     0.203 HD
BRANCH  10  14
HETATM   14  N5  UNL     1      59.194  30.095  48.624  1.00  0.00    -0.224 N 
ATOM     15  H5  UNL     1      60.064  29.568  48.698  1.00  0.00     0.177 HD
BRANCH  14  16
HETATM   16  C5  UNL     1      57.882  29.453  48.790  1.00  0.00     0.138 C 
BRANCH  16  17
HETATM   17  C6  UNL     1      57.039  29.926  47.656  1.00  0.00     0.020 C 
BRANCH  17  18
HETATM   18  C7  UNL     1      55.710  30.417  48.136  1.00  0.00     0.002 C 
BRANCH  18  19
HETATM   19  C8  UNL     1      55.108  29.442  49.103  1.00  0.00     0.002 C 
BRANCH  19  20
HETATM   20  C9  UNL     1      54.501  30.166  50.298  1.00  0.00     0.027 C 
BRANCH  20  21
HETATM   21  C10 UNL     1      55.455  30.049  51.475  1.00  0.00     0.229 C 
BRANCH  21  22
HETATM   22  N6  UNL     1      55.728  31.369  51.972  1.00  0.00    -0.079 N 
ATOM     23  H63 UNL     1      56.434  31.856  51.420  1.00  0.00     0.274 HD
ATOM     24  H62 UNL     1      54.956  32.015  51.812  1.00  0.00     0.274 HD
ATOM     25  H61 UNL     1      55.982  31.297  52.957  1.00  0.00     0.274 HD
ENDBRANCH  21  22
ENDBRANCH  20  21
ENDBRANCH  19  20
ENDBRANCH  18  19
ENDBRANCH  17  18
ENDBRANCH  16  17
ENDBRANCH  14  16
ENDBRANCH  10  14
ENDBRANCH   4   6
ENDBRANCH   3   4
TORSDOF 10
ENDMDL
MODEL 2
REMARK VINA RESULT: -4.190617862      0.958      1.043
REMARK  10 active torsions:
REMARK  status: ('A' for Active; 'I' for Inactive)
REMARK    1  A    between atoms: C2_3  and  N2_4 
REMARK    2  A    between atoms: N2_4  and  C3_6 
REMARK    3  A    between atoms: C4_11  and  N5_12 
REMARK    4  A    between atoms: N5_12  and  C5_14 
REMARK    5  A    between atoms: C5_14  and  C6_15 
REMARK    6  A    between atoms: C6_15  and  C7_16 
REMARK    7  A    between atoms: C7_16  and  C8_17 
REMARK    8  A    between atoms: C8_17  and  C9_18 
REMARK    9  A    between atoms: C9_18  and  C10_19 
REMARK   10  A    between atoms: C10_19  and  N6_20 
ROOT
HETATM    1  N1  UNL     1      61.536  32.851  45.200  1.00  0.00    -0.196 NA
HETATM    2  C1  UNL     1      60.541  33.463  45.290  1.00  0.00     0.079 C 
HETATM    3  C2  UNL     1      59.303  34.203  45.401  1.00  0.00     0.262 C 
ENDROOT
BRANCH   3   4
HETATM    4  N2  UNL     1      59.042  34.534  46.785  1.00  0.00    -0.212 N 
ATOM      5  H2  UNL     1      58.935  35.506  47.076  1.00  0.00     0.178 HD
BRANCH   4   6
HETATM    6  C3  UNL     1      58.948  33.579  47.641  1.00  0.00     0.708 A 
HETATM    7  N3  UNL     1      58.417  33.638  48.894  1.00  0.00    -0.117 N 
HETATM    8  N4  UNL     1      58.511  32.442  49.450  1.00  0.00    -0.117 N 
ATOM      9  H3  UNL     1      58.013  34.467  49.330  1.00  0.00     0.206 HD
HETATM   10  C4  UNL     1      59.096  31.608  48.578  1.00  0.00     0.707 A 
ATOM     11  H4  UNL     1      58.193  32.195  50.388  1.00  0.00     0.206 HD
HETATM   12  N7  UNL     1      59.364  32.310  47.463  1.00  0.00    -0.020 N 
ATOM     13  H7  UNL     1      59.809  31.943  46.622  1.00  0.00     0.203 HD
BRANCH  10  14
HETATM   14  N5  UNL     1      59.379  30.360  48.706  1.00  0.00    -0.224 N 
ATOM     15  H5  UNL     1      60.070  30.033  49.382  1.00  0.00     0.177 HD
BRANCH  14  16
HETATM   16  C5  UNL     1      58.655  29.432  47.827  1.00  0.00     0.138 C 
BRANCH  16  17
HETATM   17  C6  UNL     1      57.249  29.922  47.768  1.00  0.00     0.020 C 
BRANCH  17  18
HETATM   18  C7  UNL     1      56.484  29.524  48.990  1.00  0.00     0.002 C 
BRANCH  18  19
HETATM   19  C8  UNL     1      55.028  29.837  48.823  1.00  0.00     0.002 C 
BRANCH  19  20
HETATM   20  C9  UNL     1      54.406  30.260  50.149  1.00  0.00     0.027 C 
BRANCH  20  21
HETATM   21  C10 UNL     1      55.455  30.133  51.241  1.00  0.00     0.229 C 
BRANCH  21  22
HETATM   22  N6  UNL     1      55.585  31.404  51.897  1.00  0.00    -0.079 N 
ATOM     23  H63 UNL     1      54.888  32.080  51.584  1.00  0.00     0.274 HD
ATOM     24  H62 UNL     1      55.314  31.368  52.879  1.00  0.00     0.274 HD
ATOM     25  H61 UNL     1      56.540  31.738  51.767  1.00  0.00     0.274 HD
ENDBRANCH  21  22
ENDBRANCH  20  21
ENDBRANCH  19  20
ENDBRANCH  18  19
ENDBRANCH  17  18
ENDBRANCH  16  17
ENDBRANCH  14  16
ENDBRANCH  10  14
ENDBRANCH   4   6
ENDBRANCH   3   4
TORSDOF 10
ENDMDL
MODEL 3
REMARK VINA RESULT: -4.091016076      1.738      6.323
REMARK  10 active torsions:
REMARK  status: ('A' for Active; 'I' for Inactive)
REMARK    1  A    between atoms: C2_3  and  N2_4 
REMARK    2  A    between atoms: N2_4  and  C3_6 
REMARK    3  A    between atoms: C4_11  and  N5_12 
REMARK    4  A    between atoms: N5_12  and  C5_14 
REMARK    5  A    between atoms: C5_14  and  C6_15 
REMARK    6  A    between atoms: C6_15  and  C7_16 
REMARK    7  A    between atoms: C7_16  and  C8_17 
REMARK    8  A    between atoms: C8_17  and  C9_18 
REMARK    9  A    between atoms: C9_18  and  C10_19 
REMARK   10  A    between atoms: C10_19  and  N6_20 
ROOT
HETATM    1  N1  UNL     1      56.231  31.333  52.288  1.00  0.00    -0.196 NA
HETATM    2  C1  UNL     1      55.337  30.975  51.621  1.00  0.00     0.079 C 
HETATM    3  C2  UNL     1      54.237  30.548  50.784  1.00  0.00     0.262 C 
ENDROOT
BRANCH   3   4
HETATM    4  N2  UNL     1      54.656  29.461  49.925  1.00  0.00    -0.212 N 
ATOM      5  H2  UNL     1      54.197  28.552  49.974  1.00  0.00     0.178 HD
BRANCH   4   6
HETATM    6  C3  UNL     1      55.620  29.666  49.098  1.00  0.00     0.708 A 
HETATM    7  N3  UNL     1      55.526  30.062  47.798  1.00  0.00    -0.117 N 
HETATM    8  N4  UNL     1      56.745  30.156  47.296  1.00  0.00    -0.117 N 
ATOM      9  H3  UNL     1      54.659  30.254  47.296  1.00  0.00     0.206 HD
HETATM   10  C4  UNL     1      57.629  29.828  48.249  1.00  0.00     0.707 A 
ATOM     11  H4  UNL     1      56.975  30.433  46.341  1.00  0.00     0.206 HD
HETATM   12  N7  UNL     1      56.934  29.526  49.360  1.00  0.00    -0.020 N 
ATOM     13  H7  UNL     1      57.335  29.238  50.253  1.00  0.00     0.203 HD
BRANCH  10  14
HETATM   14  N5  UNL     1      58.913  29.785  48.192  1.00  0.00    -0.224 N 
ATOM     15  H5  UNL     1      59.422  28.902  48.185  1.00  0.00     0.177 HD
BRANCH  14  16
HETATM   16  C5  UNL     1      59.607  31.080  48.138  1.00  0.00     0.138 C 
BRANCH  16  17
HETATM   17  C6  UNL     1      58.843  32.001  49.025  1.00  0.00     0.020 C 
BRANCH  17  18
HETATM   18  C7  UNL     1      58.808  33.388  48.464  1.00  0.00     0.002 C 
BRANCH  18  19
HETATM   19  C8  UNL     1      58.370  33.364  47.031  1.00  0.00     0.002 C 
BRANCH  19  20
HETATM   20  C9  UNL     1      59.322  34.172  46.157  1.00  0.00     0.027 C 
BRANCH  20  21
HETATM   21  C10 UNL     1      60.048  33.223  45.219  1.00  0.00     0.229 C 
BRANCH  21  22
HETATM   22  N6  UNL     1      61.450  33.261  45.528  1.00  0.00    -0.079 N 
ATOM     23  H63 UNL     1      61.974  33.867  44.897  1.00  0.00     0.274 HD
ATOM     24  H62 UNL     1      61.646  33.760  46.396  1.00  0.00     0.274 HD
ATOM     25  H61 UNL     1      61.805  32.305  45.537  1.00  0.00     0.274 HD
ENDBRANCH  21  22
ENDBRANCH  20  21
ENDBRANCH  19  20
ENDBRANCH  18  19
ENDBRANCH  17  18
ENDBRANCH  16  17
ENDBRANCH  14  16
ENDBRANCH  10  14
ENDBRANCH   4   6
ENDBRANCH   3   4
TORSDOF 10
ENDMDL
MODEL 4
REMARK VINA RESULT: -3.687360316      1.033      1.602
REMARK  10 active torsions:
REMARK  status: ('A' for Active; 'I' for Inactive)
REMARK    1  A    between atoms: C2_3  and  N2_4 
REMARK    2  A    between atoms: N2_4  and  C3_6 
REMARK    3  A    between atoms: C4_11  and  N5_12 
REMARK    4  A    between atoms: N5_12  and  C5_14 
REMARK    5  A    between atoms: C5_14  and  C6_15 
REMARK    6  A    between atoms: C6_15  and  C7_16 
REMARK    7  A    between atoms: C7_16  and  C8_17 
REMARK    8  A    between atoms: C8_17  and  C9_18 
REMARK    9  A    between atoms: C9_18  and  C10_19 
REMARK   10  A    between atoms: C10_19  and  N6_20 
ROOT
HETATM    1  N1  UNL     1      60.382  32.797  44.391  1.00  0.00    -0.196 NA
HETATM    2  C1  UNL     1      59.900  33.573  45.124  1.00  0.00     0.079 C 
HETATM    3  C2  UNL     1      59.287  34.524  46.026  1.00  0.00     0.262 C 
ENDROOT
BRANCH   3   4
HETATM    4  N2  UNL     1      59.518  34.128  47.399  1.00  0.00    -0.212 N 
ATOM      5  H2  UNL     1      59.785  34.817  48.101  1.00  0.00     0.178 HD
BRANCH   4   6
HETATM    6  C3  UNL     1      59.378  32.889  47.715  1.00  0.00     0.708 A 
HETATM    7  N3  UNL     1      60.339  31.925  47.730  1.00  0.00    -0.117 N 
HETATM    8  N4  UNL     1      59.789  30.784  48.111  1.00  0.00    -0.117 N 
ATOM      9  H3  UNL     1      61.321  32.060  47.487  1.00  0.00     0.206 HD
HETATM   10  C4  UNL     1      58.485  30.994  48.345  1.00  0.00     0.707 A 
ATOM     11  H4  UNL     1      60.275  29.893  48.211  1.00  0.00     0.206 HD
HETATM   12  N7  UNL     1      58.233  32.292  48.100  1.00  0.00    -0.020 N 
ATOM     13  H7  UNL     1      57.326  32.749  48.191  1.00  0.00     0.203 HD
BRANCH  10  14
HETATM   14  N5  UNL     1      57.581  30.165  48.731  1.00  0.00    -0.224 N 
ATOM     15  H5  UNL     1      57.543  29.820  49.690  1.00  0.00     0.177 HD
BRANCH  14  16
HETATM   16  C5  UNL     1      56.606  29.741  47.715  1.00  0.00     0.138 C 
BRANCH  16  17
HETATM   17  C6  UNL     1      55.268  30.157  48.222  1.00  0.00     0.020 C 
BRANCH  17  18
HETATM   18  C7  UNL     1      54.774  29.222  49.279  1.00  0.00     0.002 C 
BRANCH  18  19
HETATM   19  C8  UNL     1      54.382  29.982  50.511  1.00  0.00     0.002 C 
BRANCH  19  20
HETATM   20  C9  UNL     1      55.491  29.935  51.555  1.00  0.00     0.027 C 
BRANCH  20  21
HETATM   21  C10 UNL     1      55.849  31.358  51.950  1.00  0.00     0.229 C 
BRANCH  21  22
HETATM   22  N6  UNL     1      54.663  32.164  51.871  1.00  0.00    -0.079 N 
ATOM     23  H63 UNL     1      54.816  33.038  51.368  1.00  0.00     0.274 HD
ATOM     24  H62 UNL     1      53.960  31.766  51.249  1.00  0.00     0.274 HD
ATOM     25  H61 UNL     1      54.311  32.313  52.816  1.00  0.00     0.274 HD
ENDBRANCH  21  22
ENDBRANCH  20  21
ENDBRANCH  19  20
ENDBRANCH  18  19
ENDBRANCH  17  18
ENDBRANCH  16  17
ENDBRANCH  14  16
ENDBRANCH  10  14
ENDBRANCH   4   6
ENDBRANCH   3   4
TORSDOF 10
ENDMDL
MODEL 5
REMARK VINA RESULT: -3.578381087      1.697      6.347
REMARK  10 active torsions:
REMARK  status: ('A' for Active; 'I' for Inactive)
REMARK    1  A    between atoms: C2_3  and  N2_4 
REMARK    2  A    between atoms: N2_4  and  C3_6 
REMARK    3  A    between atoms: C4_11  and  N5_12 
REMARK    4  A    between atoms: N5_12  and  C5_14 
REMARK    5  A    between atoms: C5_14  and  C6_15 
REMARK    6  A    between atoms: C6_15  and  C7_16 
REMARK    7  A    between atoms: C7_16  and  C8_17 
REMARK    8  A    between atoms: C8_17  and  C9_18 
REMARK    9  A    between atoms: C9_18  and  C10_19 
REMARK   10  A    between atoms: C10_19  and  N6_20 
ROOT
HETATM    1  N1  UNL     1      55.841  30.988  51.875  1.00  0.00    -0.196 NA
HETATM    2  C1  UNL     1      55.262  30.347  51.083  1.00  0.00     0.079 C 
HETATM    3  C2  UNL     1      54.531  29.567  50.110  1.00  0.00     0.262 C 
ENDROOT
BRANCH   3   4
HETATM    4  N2  UNL     1      54.798  30.058  48.774  1.00  0.00    -0.212 N 
ATOM      5  H2  UNL     1      54.033  30.325  48.155  1.00  0.00     0.178 HD
BRANCH   4   6
HETATM    6  C3  UNL     1      56.020  30.150  48.385  1.00  0.00     0.708 A 
HETATM    7  N3  UNL     1      56.604  29.513  47.331  1.00  0.00    -0.117 N 
HETATM    8  N4  UNL     1      57.874  29.876  47.269  1.00  0.00    -0.117 N 
ATOM      9  H3  UNL     1      56.139  28.864  46.697  1.00  0.00     0.206 HD
HETATM   10  C4  UNL     1      58.124  30.739  48.265  1.00  0.00     0.707 A 
ATOM     11  H4  UNL     1      58.552  29.553  46.577  1.00  0.00     0.206 HD
HETATM   12  N7  UNL     1      56.979  30.907  48.952  1.00  0.00    -0.020 N 
ATOM     13  H7  UNL     1      56.858  31.507  49.767  1.00  0.00     0.203 HD
BRANCH  10  14
HETATM   14  N5  UNL     1      59.220  31.336  48.571  1.00  0.00    -0.224 N 
ATOM     15  H5  UNL     1      60.130  30.959  48.308  1.00  0.00     0.177 HD
BRANCH  14  16
HETATM   16  C5  UNL     1      59.090  32.593  49.323  1.00  0.00     0.138 C 
BRANCH  16  17
HETATM   17  C6  UNL     1      59.472  33.684  48.381  1.00  0.00     0.020 C 
BRANCH  17  18
HETATM   18  C7  UNL     1      58.363  33.985  47.423  1.00  0.00     0.002 C 
BRANCH  18  19
HETATM   19  C8  UNL     1      58.910  34.233  46.049  1.00  0.00     0.002 C 
BRANCH  19  20
HETATM   20  C9  UNL     1      59.381  32.932  45.409  1.00  0.00     0.027 C 
BRANCH  20  21
HETATM   21  C10 UNL     1      60.896  32.970  45.287  1.00  0.00     0.229 C 
BRANCH  21  22
HETATM   22  N6  UNL     1      61.307  34.338  45.147  1.00  0.00    -0.079 N 
ATOM     23  H63 UNL     1      60.714  34.862  44.503  1.00  0.00     0.274 HD
ATOM     24  H62 UNL     1      61.125  34.890  45.985  1.00  0.00     0.274 HD
ATOM     25  H61 UNL     1      62.289  34.354  44.874  1.00  0.00     0.274 HD
ENDBRANCH  21  22
ENDBRANCH  20  21
ENDBRANCH  19  20
ENDBRANCH  18  19
ENDBRANCH  17  18
ENDBRANCH  16  17
ENDBRANCH  14  16
ENDBRANCH  10  14
ENDBRANCH   4   6
ENDBRANCH   3   4
TORSDOF 10
ENDMDL
