MODEL 1
REMARK VINA RESULT: -5.205456563      0.000      0.000
REMARK  10 active torsions:
REMARK  status: ('A' for Active; 'I' for Inactive)
REMARK    1  A    between atoms: O1_2  and  C2_3 
REMARK    2  A    between atoms: C2_3  and  N1_4 
REMARK    3  A    between atoms: C2_3  and  C3_8 
REMARK    4  A    between atoms: C3_8  and  O2_9 
REMARK    5  A    between atoms: C3_8  and  C4_11 
REMARK    6  A    between atoms: C4_11  and  C5_12 
REMARK    7  A    between atoms: C4_11  and  N2_15 
REMARK    8  A    between atoms: C5_12  and  O3_13 
REMARK    9  A    between atoms: N2_15  and  C6_17 
REMARK   10  A    between atoms: C6_17  and  C7_18 
ROOT
HETATM    1  C4  UNL     1      59.483  32.473  46.994  1.00  0.00     0.133 C 
ENDROOT
BRANCH   1   2
HETATM    2  C3  UNL     1      59.182  33.433  45.847  1.00  0.00     0.198 C 
BRANCH   2   3
HETATM    3  C2  UNL     1      60.207  33.395  44.757  1.00  0.00     0.349 C 
BRANCH   3   4
HETATM    4  O1  UNL     1      60.082  32.358  43.875  1.00  0.00    -0.362 OA
HETATM    5  C1  UNL     1      59.528  32.732  42.639  1.00  0.00     0.204 C 
ENDBRANCH   3   4
BRANCH   3   6
HETATM    6  N1  UNL     1      61.511  33.363  45.449  1.00  0.00    -0.050 N 
ATOM      7  H13 UNL     1      61.870  32.411  45.523  1.00  0.00     0.277 HD
ATOM      8  H12 UNL     1      62.249  33.767  44.872  1.00  0.00     0.277 HD
ATOM      9  H11 UNL     1      61.461  33.815  46.362  1.00  0.00     0.277 HD
ENDBRANCH   3   6
ENDBRANCH   2   3
BRANCH   2  10
HETATM   10  O2  UNL     1      59.330  34.718  46.444  1.00  0.00    -0.389 OA
ATOM     11  H2  UNL     1      58.604  34.790  47.052  1.00  0.00     0.210 HD
ENDBRANCH   2  10
ENDBRANCH   1   2
BRANCH   1  12
HETATM   12  C5  UNL     1      59.766  33.351  48.183  1.00  0.00     0.191 C 
BRANCH  12  13
HETATM   13  O3  UNL     1      61.053  33.782  48.329  1.00  0.00    -0.399 OA
ATOM     14  H3  UNL     1      61.170  34.644  48.711  1.00  0.00     0.209 HD
ENDBRANCH  12  13
ENDBRANCH   1  12
BRANCH   1  15
HETATM   15  N2  UNL     1      58.550  31.443  47.187  1.00  0.00    -0.409 N 
ATOM     16  H2  UNL     1      57.980  31.068  46.428  1.00  0.00     0.154 HD
BRANCH  15  17
HETATM   17  C6  UNL     1      58.459  30.957  48.527  1.00  0.00     0.153 C 
BRANCH  17  18
HETATM   18  C7  UNL     1      57.071  30.585  48.949  1.00  0.00    -0.041 A 
HETATM   19  C8  UNL     1      56.101  30.175  48.071  1.00  0.00     0.009 A 
HETATM   20  C9  UNL     1      54.842  29.834  48.535  1.00  0.00     0.001 A 
HETATM   21  C10 UNL     1      54.489  29.883  49.883  1.00  0.00     0.000 A 
HETATM   22  C11 UNL     1      55.473  30.299  50.757  1.00  0.00     0.001 A 
HETATM   23  C12 UNL     1      56.721  30.636  50.298  1.00  0.00     0.009 A 
ENDBRANCH  17  18
ENDBRANCH  15  17
ENDBRANCH   1  15
TORSDOF 10
ENDMDL
MODEL 2
REMARK VINA RESULT: -5.134841752      0.049      1.144
REMARK  10 active torsions:
REMARK  status: ('A' for Active; 'I' for Inactive)
REMARK    1  A    between atoms: O1_2  and  C2_3 
REMARK    2  A    between atoms: C2_3  and  N1_4 
REMARK    3  A    between atoms: C2_3  and  C3_8 
REMARK    4  A    between atoms: C3_8  and  O2_9 
REMARK    5  A    between atoms: C3_8  and  C4_11 
REMARK    6  A    between atoms: C4_11  and  C5_12 
REMARK    7  A    between atoms: C4_11  and  N2_15 
REMARK    8  A    between atoms: C5_12  and  O3_13 
REMARK    9  A    between atoms: N2_15  and  C6_17 
REMARK   10  A    between atoms: C6_17  and  C7_18 
ROOT
HETATM    1  C4  UNL     1      59.456  32.500  46.995  1.00  0.00     0.133 C 
ENDROOT
BRANCH   1   2
HETATM    2  C3  UNL     1      59.180  33.471  45.851  1.00  0.00     0.198 C 
BRANCH   2   3
HETATM    3  C2  UNL     1      60.209  33.414  44.765  1.00  0.00     0.349 C 
BRANCH   3   4
HETATM    4  O1  UNL     1      60.085  32.364  43.899  1.00  0.00    -0.362 OA
HETATM    5  C1  UNL     1      59.523  32.716  42.661  1.00  0.00     0.204 C 
ENDBRANCH   3   4
BRANCH   3   6
HETATM    6  N1  UNL     1      61.510  33.392  45.461  1.00  0.00    -0.050 N 
ATOM      7  H13 UNL     1      61.393  33.275  46.467  1.00  0.00     0.277 HD
ATOM      8  H12 UNL     1      62.025  32.535  45.261  1.00  0.00     0.277 HD
ATOM      9  H11 UNL     1      62.065  34.220  45.244  1.00  0.00     0.277 HD
ENDBRANCH   3   6
ENDBRANCH   2   3
BRANCH   2  10
HETATM   10  O2  UNL     1      59.355  34.750  46.453  1.00  0.00    -0.389 OA
ATOM     11  H2  UNL     1      60.288  34.921  46.395  1.00  0.00     0.210 HD
ENDBRANCH   2  10
ENDBRANCH   1   2
BRANCH   1  12
HETATM   12  C5  UNL     1      59.774  33.367  48.184  1.00  0.00     0.191 C 
BRANCH  12  13
HETATM   13  O3  UNL     1      61.071  33.771  48.312  1.00  0.00    -0.399 OA
ATOM     14  H3  UNL     1      61.273  34.316  49.064  1.00  0.00     0.209 HD
ENDBRANCH  12  13
ENDBRANCH   1  12
BRANCH   1  15
HETATM   15  N2  UNL     1      58.490  31.501  47.192  1.00  0.00    -0.409 N 
ATOM     16  H2  UNL     1      57.847  31.205  46.457  1.00  0.00     0.154 HD
BRANCH  15  17
HETATM   17  C6  UNL     1      58.475  30.929  48.501  1.00  0.00     0.153 C 
BRANCH  17  18
HETATM   18  C7  UNL     1      57.108  30.567  48.994  1.00  0.00    -0.041 A 
HETATM   19  C8  UNL     1      56.747  30.613  50.316  1.00  0.00     0.009 A 
HETATM   20  C9  UNL     1      55.459  30.277  50.698  1.00  0.00     0.001 A 
HETATM   21  C10 UNL     1      54.476  29.882  49.792  1.00  0.00     0.000 A 
HETATM   22  C11 UNL     1      54.851  29.838  48.464  1.00  0.00     0.001 A 
HETATM   23  C12 UNL     1      56.127  30.172  48.085  1.00  0.00     0.009 A 
ENDBRANCH  17  18
ENDBRANCH  15  17
ENDBRANCH   1  15
TORSDOF 10
ENDMDL
MODEL 3
REMARK VINA RESULT: -4.314025721      1.467      1.773
REMARK  10 active torsions:
REMARK  status: ('A' for Active; 'I' for Inactive)
REMARK    1  A    between atoms: O1_2  and  C2_3 
REMARK    2  A    between atoms: C2_3  and  N1_4 
REMARK    3  A    between atoms: C2_3  and  C3_8 
REMARK    4  A    between atoms: C3_8  and  O2_9 
REMARK    5  A    between atoms: C3_8  and  C4_11 
REMARK    6  A    between atoms: C4_11  and  C5_12 
REMARK    7  A    between atoms: C4_11  and  N2_15 
REMARK    8  A    between atoms: C5_12  and  O3_13 
REMARK    9  A    between atoms: N2_15  and  C6_17 
REMARK   10  A    between atoms: C6_17  and  C7_18 
ROOT
HETATM    1  C4  UNL     1      59.241  32.123  48.433  1.00  0.00     0.133 C 
ENDROOT
BRANCH   1   2
HETATM    2  C3  UNL     1      59.794  33.372  47.756  1.00  0.00     0.198 C 
BRANCH   2   3
HETATM    3  C2  UNL     1      59.379  33.504  46.323  1.00  0.00     0.349 C 
BRANCH   3   4
HETATM    4  O1  UNL     1      60.404  33.521  45.419  1.00  0.00    -0.362 OA
HETATM    5  C1  UNL     1      60.074  32.942  44.182  1.00  0.00     0.204 C 
ENDBRANCH   3   4
BRANCH   3   6
HETATM    6  N1  UNL     1      58.581  34.744  46.261  1.00  0.00    -0.050 N 
ATOM      7  H13 UNL     1      58.912  35.363  45.521  1.00  0.00     0.277 HD
ATOM      8  H12 UNL     1      57.641  34.565  45.910  1.00  0.00     0.277 HD
ATOM      9  H11 UNL     1      58.558  35.220  47.163  1.00  0.00     0.277 HD
ENDBRANCH   3   6
ENDBRANCH   2   3
BRANCH   2  10
HETATM   10  O2  UNL     1      61.197  33.129  47.708  1.00  0.00    -0.389 OA
ATOM     11  H2  UNL     1      61.580  33.806  48.255  1.00  0.00     0.210 HD
ENDBRANCH   2  10
ENDBRANCH   1   2
BRANCH   1  12
HETATM   12  C5  UNL     1      58.321  32.631  49.511  1.00  0.00     0.191 C 
BRANCH  12  13
HETATM   13  O3  UNL     1      57.836  33.897  49.351  1.00  0.00    -0.399 OA
ATOM     14  H3  UNL     1      57.764  34.426  50.137  1.00  0.00     0.209 HD
ENDBRANCH  12  13
ENDBRANCH   1  12
BRANCH   1  15
HETATM   15  N2  UNL     1      58.715  31.146  47.574  1.00  0.00    -0.409 N 
ATOM     16  H2  UNL     1      58.638  31.285  46.566  1.00  0.00     0.154 HD
BRANCH  15  17
HETATM   17  C6  UNL     1      58.296  29.942  48.217  1.00  0.00     0.153 C 
BRANCH  17  18
HETATM   18  C7  UNL     1      56.904  29.996  48.767  1.00  0.00    -0.041 A 
HETATM   19  C8  UNL     1      55.788  30.138  47.982  1.00  0.00     0.009 A 
HETATM   20  C9  UNL     1      54.530  30.167  48.560  1.00  0.00     0.001 A 
HETATM   21  C10 UNL     1      54.322  30.056  49.934  1.00  0.00     0.000 A 
HETATM   22  C11 UNL     1      55.452  29.915  50.714  1.00  0.00     0.001 A 
HETATM   23  C12 UNL     1      56.699  29.886  50.142  1.00  0.00     0.009 A 
ENDBRANCH  17  18
ENDBRANCH  15  17
ENDBRANCH   1  15
TORSDOF 10
ENDMDL
MODEL 4
REMARK VINA RESULT: -4.229385227      1.352      1.897
REMARK  10 active torsions:
REMARK  status: ('A' for Active; 'I' for Inactive)
REMARK    1  A    between atoms: O1_2  and  C2_3 
REMARK    2  A    between atoms: C2_3  and  N1_4 
REMARK    3  A    between atoms: C2_3  and  C3_8 
REMARK    4  A    between atoms: C3_8  and  O2_9 
REMARK    5  A    between atoms: C3_8  and  C4_11 
REMARK    6  A    between atoms: C4_11  and  C5_12 
REMARK    7  A    between atoms: C4_11  and  N2_15 
REMARK    8  A    between atoms: C5_12  and  O3_13 
REMARK    9  A    between atoms: N2_15  and  C6_17 
REMARK   10  A    between atoms: C6_17  and  C7_18 
ROOT
HETATM    1  C4  UNL     1      58.979  32.137  47.020  1.00  0.00     0.133 C 
ENDROOT
BRANCH   1   2
HETATM    2  C3  UNL     1      59.844  33.367  46.766  1.00  0.00     0.198 C 
BRANCH   2   3
HETATM    3  C2  UNL     1      60.388  33.433  45.373  1.00  0.00     0.349 C 
BRANCH   3   4
HETATM    4  O1  UNL     1      59.922  32.472  44.519  1.00  0.00    -0.362 OA
HETATM    5  C1  UNL     1      59.663  32.946  43.223  1.00  0.00     0.204 C 
ENDBRANCH   3   4
BRANCH   3   6
HETATM    6  N1  UNL     1      61.854  33.358  45.523  1.00  0.00    -0.050 N 
ATOM      7  H13 UNL     1      62.210  32.440  45.258  1.00  0.00     0.277 HD
ATOM      8  H12 UNL     1      62.331  33.922  44.820  1.00  0.00     0.277 HD
ATOM      9  H11 UNL     1      62.147  33.613  46.467  1.00  0.00     0.277 HD
ENDBRANCH   3   6
ENDBRANCH   2   3
BRANCH   2  10
HETATM   10  O2  UNL     1      60.983  33.147  47.593  1.00  0.00    -0.389 OA
ATOM     11  H2  UNL     1      60.784  33.596  48.406  1.00  0.00     0.210 HD
ENDBRANCH   2  10
ENDBRANCH   1   2
BRANCH   1  12
HETATM   12  C5  UNL     1      59.880  31.155  47.719  1.00  0.00     0.191 C 
BRANCH  12  13
HETATM   13  O3  UNL     1      59.607  29.832  47.522  1.00  0.00    -0.399 OA
ATOM     14  H3  UNL     1      60.160  29.212  47.985  1.00  0.00     0.209 HD
ENDBRANCH  12  13
ENDBRANCH   1  12
BRANCH   1  15
HETATM   15  N2  UNL     1      57.735  32.380  47.623  1.00  0.00    -0.409 N 
ATOM     16  H2  UNL     1      56.921  32.698  47.096  1.00  0.00     0.154 HD
BRANCH  15  17
HETATM   17  C6  UNL     1      57.694  32.149  49.032  1.00  0.00     0.153 C 
BRANCH  17  18
HETATM   18  C7  UNL     1      56.627  31.192  49.463  1.00  0.00    -0.041 A 
HETATM   19  C8  UNL     1      56.175  31.098  50.754  1.00  0.00     0.009 A 
HETATM   20  C9  UNL     1      55.174  30.197  51.078  1.00  0.00     0.001 A 
HETATM   21  C10 UNL     1      54.578  29.354  50.141  1.00  0.00     0.000 A 
HETATM   22  C11 UNL     1      55.042  29.456  48.846  1.00  0.00     0.001 A 
HETATM   23  C12 UNL     1      56.033  30.349  48.524  1.00  0.00     0.009 A 
ENDBRANCH  17  18
ENDBRANCH  15  17
ENDBRANCH   1  15
TORSDOF 10
ENDMDL
MODEL 5
REMARK VINA RESULT: -4.206107715      1.390      1.469
REMARK  10 active torsions:
REMARK  status: ('A' for Active; 'I' for Inactive)
REMARK    1  A    between atoms: O1_2  and  C2_3 
REMARK    2  A    between atoms: C2_3  and  N1_4 
REMARK    3  A    between atoms: C2_3  and  C3_8 
REMARK    4  A    between atoms: C3_8  and  O2_9 
REMARK    5  A    between atoms: C3_8  and  C4_11 
REMARK    6  A    between atoms: C4_11  and  C5_12 
REMARK    7  A    between atoms: C4_11  and  N2_15 
REMARK    8  A    between atoms: C5_12  and  O3_13 
REMARK    9  A    between atoms: N2_15  and  C6_17 
REMARK   10  A    between atoms: C6_17  and  C7_18 
ROOT
HETATM    1  C4  UNL     1      59.494  31.893  47.834  1.00  0.00     0.133 C 
ENDROOT
BRANCH   1   2
HETATM    2  C3  UNL     1      58.439  32.596  46.986  1.00  0.00     0.198 C 
BRANCH   2   3
HETATM    3  C2  UNL     1      59.002  33.260  45.768  1.00  0.00     0.349 C 
BRANCH   3   4
HETATM    4  O1  UNL     1      60.140  32.692  45.268  1.00  0.00    -0.362 OA
HETATM    5  C1  UNL     1      61.205  33.597  45.124  1.00  0.00     0.204 C 
ENDBRANCH   3   4
BRANCH   3   6
HETATM    6  N1  UNL     1      59.225  34.666  46.159  1.00  0.00    -0.050 N 
ATOM      7  H13 UNL     1      59.805  35.155  45.477  1.00  0.00     0.277 HD
ATOM      8  H12 UNL     1      58.372  35.218  46.066  1.00  0.00     0.277 HD
ATOM      9  H11 UNL     1      59.615  34.736  47.099  1.00  0.00     0.277 HD
ENDBRANCH   3   6
ENDBRANCH   2   3
BRANCH   2  10
HETATM   10  O2  UNL     1      58.005  33.668  47.819  1.00  0.00    -0.389 OA
ATOM     11  H2  UNL     1      57.428  34.185  47.268  1.00  0.00     0.210 HD
ENDBRANCH   2  10
ENDBRANCH   1   2
BRANCH   1  12
HETATM   12  C5  UNL     1      60.001  32.943  48.786  1.00  0.00     0.191 C 
BRANCH  12  13
HETATM   13  O3  UNL     1      61.005  33.746  48.328  1.00  0.00    -0.399 OA
ATOM     14  H3  UNL     1      61.518  33.412  47.601  1.00  0.00     0.209 HD
ENDBRANCH  12  13
ENDBRANCH   1  12
BRANCH   1  15
HETATM   15  N2  UNL     1      59.104  30.671  48.403  1.00  0.00    -0.409 N 
ATOM     16  H2  UNL     1      59.607  30.241  49.179  1.00  0.00     0.154 HD
BRANCH  15  17
HETATM   17  C6  UNL     1      57.948  30.074  47.813  1.00  0.00     0.153 C 
BRANCH  17  18
HETATM   18  C7  UNL     1      56.726  30.125  48.676  1.00  0.00    -0.041 A 
HETATM   19  C8  UNL     1      55.460  29.887  48.206  1.00  0.00     0.009 A 
HETATM   20  C9  UNL     1      54.377  29.939  49.067  1.00  0.00     0.001 A 
HETATM   21  C10 UNL     1      54.498  30.226  50.425  1.00  0.00     0.000 A 
HETATM   22  C11 UNL     1      55.776  30.465  50.887  1.00  0.00     0.001 A 
HETATM   23  C12 UNL     1      56.851  30.414  50.035  1.00  0.00     0.009 A 
ENDBRANCH  17  18
ENDBRANCH  15  17
ENDBRANCH   1  15
TORSDOF 10
ENDMDL
