MODEL 1
REMARK VINA RESULT: -3.868880404      0.000      0.000
REMARK  8 active torsions:
REMARK  status: ('A' for Active; 'I' for Inactive)
REMARK    1  A    between atoms: N1_2  and  C2_5 
REMARK    2  A    between atoms: C2_5  and  C3_6 
REMARK    3  A    between atoms: C3_6  and  C4_7 
REMARK    4  A    between atoms: C4_7  and  N2_8 
REMARK    5  A    between atoms: N2_8  and  C5_11 
REMARK    6  A    between atoms: C5_11  and  C6_12 
REMARK    7  A    between atoms: C6_12  and  N3_13 
REMARK    8  A    between atoms: N3_13  and  C7_15 
ROOT
HETATM    1  N3  UNL     1      59.586  30.623  48.147  1.00  0.00    -0.352 N 
ATOM      2  H3  UNL     1      60.604  30.568  48.170  1.00  0.00     0.166 HD
ENDROOT
BRANCH   1   3
HETATM    3  C6  UNL     1      59.169  29.344  48.285  1.00  0.00     0.090 C 
BRANCH   3   4
HETATM    4  C5  UNL     1      57.728  29.013  48.579  1.00  0.00     0.276 C 
BRANCH   4   5
HETATM    5  N2  UNL     1      56.852  29.699  47.609  1.00  0.00    -0.071 N 
ATOM      6  H22 UNL     1      56.511  29.047  46.903  1.00  0.00     0.277 HD
ATOM      7  H21 UNL     1      57.393  30.326  47.013  1.00  0.00     0.277 HD
BRANCH   5   8
HETATM    8  C4  UNL     1      55.761  30.398  48.227  1.00  0.00     0.234 C 
BRANCH   8   9
HETATM    9  C3  UNL     1      55.014  29.421  49.104  1.00  0.00     0.055 C 
BRANCH   9  10
HETATM   10  C2  UNL     1      54.489  30.129  50.323  1.00  0.00     0.233 C 
BRANCH  10  11
HETATM   11  N1  UNL     1      55.416  29.952  51.452  1.00  0.00    -0.079 N 
HETATM   12  C1  UNL     1      55.824  31.253  51.945  1.00  0.00     0.266 C 
ATOM     13  H12 UNL     1      56.212  29.363  51.209  1.00  0.00     0.276 HD
ATOM     14  H11 UNL     1      55.021  29.367  52.188  1.00  0.00     0.276 HD
ENDBRANCH  10  11
ENDBRANCH   9  10
ENDBRANCH   8   9
ENDBRANCH   5   8
ENDBRANCH   4   5
ENDBRANCH   3   4
ENDBRANCH   1   3
BRANCH   1  15
HETATM   15  C7  UNL     1      59.343  31.817  48.007  1.00  0.00     0.137 A 
HETATM   16  N4  UNL     1      58.541  32.484  48.857  1.00  0.00    -0.337 N 
HETATM   17  C8  UNL     1      58.320  33.805  48.598  1.00  0.00     0.183 A 
ATOM     18  H4  UNL     1      58.116  32.021  49.660  1.00  0.00     0.168 HD
HETATM   19  N5  UNL     1      58.881  34.410  47.541  1.00  0.00    -0.337 N 
HETATM   20  C9  UNL     1      59.693  33.775  46.660  1.00  0.00     0.138 A 
ATOM     21  H5  UNL     1      58.686  35.400  47.391  1.00  0.00     0.168 HD
HETATM   22  N6  UNL     1      60.365  34.144  45.550  1.00  0.00    -0.337 N 
HETATM   23  C11 UNL     1      59.933  32.451  46.895  1.00  0.00     0.122 A 
HETATM   24  C10 UNL     1      61.031  33.049  45.078  1.00  0.00     0.182 A 
ATOM     25  H6  UNL     1      60.374  35.076  45.135  1.00  0.00     0.168 HD
HETATM   26  N7  UNL     1      60.748  32.034  45.920  1.00  0.00    -0.346 N 
ATOM     27  H7  UNL     1      61.105  31.083  45.825  1.00  0.00     0.167 HD
ENDBRANCH   1  15
TORSDOF 8
ENDMDL
MODEL 2
REMARK VINA RESULT: -2.770519806      0.774      2.161
REMARK  8 active torsions:
REMARK  status: ('A' for Active; 'I' for Inactive)
REMARK    1  A    between atoms: N1_2  and  C2_5 
REMARK    2  A    between atoms: C2_5  and  C3_6 
REMARK    3  A    between atoms: C3_6  and  C4_7 
REMARK    4  A    between atoms: C4_7  and  N2_8 
REMARK    5  A    between atoms: N2_8  and  C5_11 
REMARK    6  A    between atoms: C5_11  and  C6_12 
REMARK    7  A    between atoms: C6_12  and  N3_13 
REMARK    8  A    between atoms: N3_13  and  C7_15 
ROOT
HETATM    1  N3  UNL     1      59.800  30.998  47.684  1.00  0.00    -0.352 N 
ATOM      2  H3  UNL     1      60.281  31.276  48.539  1.00  0.00     0.166 HD
ENDROOT
BRANCH   1   3
HETATM    3  C6  UNL     1      59.233  29.807  47.979  1.00  0.00     0.090 C 
BRANCH   3   4
HETATM    4  C5  UNL     1      57.856  29.720  48.587  1.00  0.00     0.276 C 
BRANCH   4   5
HETATM    5  N2  UNL     1      56.845  30.108  47.584  1.00  0.00    -0.071 N 
ATOM      6  H22 UNL     1      56.705  29.363  46.902  1.00  0.00     0.277 HD
ATOM      7  H21 UNL     1      57.206  30.836  46.967  1.00  0.00     0.277 HD
BRANCH   5   8
HETATM    8  C4  UNL     1      55.594  30.507  48.166  1.00  0.00     0.234 C 
BRANCH   8   9
HETATM    9  C3  UNL     1      55.155  29.424  49.123  1.00  0.00     0.055 C 
BRANCH   9  10
HETATM   10  C2  UNL     1      54.534  30.045  50.345  1.00  0.00     0.233 C 
BRANCH  10  11
HETATM   11  N1  UNL     1      55.465  29.969  51.481  1.00  0.00    -0.079 N 
HETATM   12  C1  UNL     1      55.790  31.310  51.926  1.00  0.00     0.266 C 
ATOM     13  H12 UNL     1      56.298  29.422  51.263  1.00  0.00     0.276 HD
ATOM     14  H11 UNL     1      55.104  29.388  52.238  1.00  0.00     0.276 HD
ENDBRANCH  10  11
ENDBRANCH   9  10
ENDBRANCH   8   9
ENDBRANCH   5   8
ENDBRANCH   4   5
ENDBRANCH   3   4
ENDBRANCH   1   3
BRANCH   1  15
HETATM   15  C7  UNL     1      60.022  31.909  46.893  1.00  0.00     0.137 A 
HETATM   16  N4  UNL     1      61.042  31.858  46.017  1.00  0.00    -0.337 N 
HETATM   17  C8  UNL     1      61.212  32.934  45.195  1.00  0.00     0.183 A 
ATOM     18  H4  UNL     1      61.661  31.049  45.969  1.00  0.00     0.168 HD
HETATM   19  N5  UNL     1      60.394  33.996  45.261  1.00  0.00    -0.337 N 
HETATM   20  C9  UNL     1      59.357  34.087  46.129  1.00  0.00     0.138 A 
ATOM     21  H5  UNL     1      60.562  34.775  44.624  1.00  0.00     0.168 HD
HETATM   22  N6  UNL     1      58.413  35.017  46.388  1.00  0.00    -0.337 N 
HETATM   23  C11 UNL     1      59.162  33.024  46.964  1.00  0.00     0.122 A 
HETATM   24  C10 UNL     1      57.620  34.540  47.392  1.00  0.00     0.182 A 
ATOM     25  H6  UNL     1      58.311  35.915  45.918  1.00  0.00     0.168 HD
HETATM   26  N7  UNL     1      58.101  33.325  47.720  1.00  0.00    -0.346 N 
ATOM     27  H7  UNL     1      57.711  32.720  48.443  1.00  0.00     0.167 HD
ENDBRANCH   1  15
TORSDOF 8
ENDMDL
MODEL 3
REMARK VINA RESULT: -1.480009193      1.102      1.589
REMARK  8 active torsions:
REMARK  status: ('A' for Active; 'I' for Inactive)
REMARK    1  A    between atoms: N1_2  and  C2_5 
REMARK    2  A    between atoms: C2_5  and  C3_6 
REMARK    3  A    between atoms: C3_6  and  C4_7 
REMARK    4  A    between atoms: C4_7  and  N2_8 
REMARK    5  A    between atoms: N2_8  and  C5_11 
REMARK    6  A    between atoms: C5_11  and  C6_12 
REMARK    7  A    between atoms: C6_12  and  N3_13 
REMARK    8  A    between atoms: N3_13  and  C7_15 
ROOT
HETATM    1  N3  UNL     1      59.712  30.414  47.949  1.00  0.00    -0.352 N 
ATOM      2  H3  UNL     1      60.732  30.412  47.983  1.00  0.00     0.166 HD
ENDROOT
BRANCH   1   3
HETATM    3  C6  UNL     1      59.366  29.107  47.928  1.00  0.00     0.090 C 
BRANCH   3   4
HETATM    4  C5  UNL     1      58.666  28.459  49.094  1.00  0.00     0.276 C 
BRANCH   4   5
HETATM    5  N2  UNL     1      57.257  28.896  49.134  1.00  0.00    -0.071 N 
ATOM      6  H22 UNL     1      56.627  28.101  49.026  1.00  0.00     0.277 HD
ATOM      7  H21 UNL     1      57.015  29.417  48.291  1.00  0.00     0.277 HD
BRANCH   5   8
HETATM    8  C4  UNL     1      56.930  29.648  50.312  1.00  0.00     0.234 C 
BRANCH   8   9
HETATM    9  C3  UNL     1      55.460  29.991  50.259  1.00  0.00     0.055 C 
BRANCH   9  10
HETATM   10  C2  UNL     1      54.816  29.295  49.091  1.00  0.00     0.233 C 
BRANCH  10  11
HETATM   11  N1  UNL     1      54.417  30.278  48.072  1.00  0.00    -0.079 N 
HETATM   12  C1  UNL     1      55.512  31.201  47.843  1.00  0.00     0.266 C 
ATOM     13  H12 UNL     1      53.552  30.758  48.316  1.00  0.00     0.276 HD
ATOM     14  H11 UNL     1      54.100  29.834  47.211  1.00  0.00     0.276 HD
ENDBRANCH  10  11
ENDBRANCH   9  10
ENDBRANCH   8   9
ENDBRANCH   5   8
ENDBRANCH   4   5
ENDBRANCH   3   4
ENDBRANCH   1   3
BRANCH   1  15
HETATM   15  C7  UNL     1      59.404  31.602  47.948  1.00  0.00     0.137 A 
HETATM   16  N4  UNL     1      58.607  32.130  48.894  1.00  0.00    -0.337 N 
HETATM   17  C8  UNL     1      58.310  33.458  48.788  1.00  0.00     0.183 A 
ATOM     18  H4  UNL     1      58.241  31.562  49.658  1.00  0.00     0.168 HD
HETATM   19  N5  UNL     1      58.795  34.200  47.782  1.00  0.00    -0.337 N 
HETATM   20  C9  UNL     1      59.599  33.706  46.809  1.00  0.00     0.138 A 
ATOM     21  H5  UNL     1      58.544  35.189  47.747  1.00  0.00     0.168 HD
HETATM   22  N6  UNL     1      60.203  34.227  45.720  1.00  0.00    -0.337 N 
HETATM   23  C11 UNL     1      59.914  32.381  46.890  1.00  0.00     0.122 A 
HETATM   24  C10 UNL     1      60.902  33.225  45.109  1.00  0.00     0.182 A 
ATOM     25  H6  UNL     1      60.148  35.196  45.409  1.00  0.00     0.168 HD
HETATM   26  N7  UNL     1      60.706  32.113  45.845  1.00  0.00    -0.346 N 
ATOM     27  H7  UNL     1      61.106  31.198  45.636  1.00  0.00     0.167 HD
ENDBRANCH   1  15
TORSDOF 8
ENDMDL
MODEL 4
REMARK VINA RESULT: -1.439963818      1.254      6.006
REMARK  8 active torsions:
REMARK  status: ('A' for Active; 'I' for Inactive)
REMARK    1  A    between atoms: N1_2  and  C2_5 
REMARK    2  A    between atoms: C2_5  and  C3_6 
REMARK    3  A    between atoms: C3_6  and  C4_7 
REMARK    4  A    between atoms: C4_7  and  N2_8 
REMARK    5  A    between atoms: N2_8  and  C5_11 
REMARK    6  A    between atoms: C5_11  and  C6_12 
REMARK    7  A    between atoms: C6_12  and  N3_13 
REMARK    8  A    between atoms: N3_13  and  C7_15 
ROOT
HETATM    1  N3  UNL     1      57.851  29.704  48.789  1.00  0.00    -0.352 N 
ATOM      2  H3  UNL     1      58.096  29.268  49.678  1.00  0.00     0.166 HD
ENDROOT
BRANCH   1   3
HETATM    3  C6  UNL     1      59.026  29.838  48.135  1.00  0.00     0.090 C 
BRANCH   3   4
HETATM    4  C5  UNL     1      59.601  31.195  47.819  1.00  0.00     0.276 C 
BRANCH   4   5
HETATM    5  N2  UNL     1      59.292  32.134  48.915  1.00  0.00    -0.071 N 
ATOM      6  H22 UNL     1      60.146  32.438  49.384  1.00  0.00     0.277 HD
ATOM      7  H21 UNL     1      58.838  31.650  49.690  1.00  0.00     0.277 HD
BRANCH   5   8
HETATM    8  C4  UNL     1      58.514  33.263  48.491  1.00  0.00     0.234 C 
BRANCH   8   9
HETATM    9  C3  UNL     1      58.345  33.182  46.993  1.00  0.00     0.055 C 
BRANCH   9  10
HETATM   10  C2  UNL     1      58.826  34.458  46.356  1.00  0.00     0.233 C 
BRANCH  10  11
HETATM   11  N1  UNL     1      60.203  34.292  45.866  1.00  0.00    -0.079 N 
HETATM   12  C1  UNL     1      60.286  33.083  45.069  1.00  0.00     0.266 C 
ATOM     13  H12 UNL     1      60.887  34.304  46.622  1.00  0.00     0.276 HD
ATOM     14  H11 UNL     1      60.533  35.113  45.358  1.00  0.00     0.276 HD
ENDBRANCH  10  11
ENDBRANCH   9  10
ENDBRANCH   8   9
ENDBRANCH   5   8
ENDBRANCH   4   5
ENDBRANCH   3   4
ENDBRANCH   1   3
BRANCH   1  15
HETATM   15  C7  UNL     1      56.633  29.849  48.840  1.00  0.00     0.137 A 
HETATM   16  N4  UNL     1      55.833  29.502  47.816  1.00  0.00    -0.337 N 
HETATM   17  C8  UNL     1      54.495  29.723  47.968  1.00  0.00     0.183 A 
ATOM     18  H4  UNL     1      56.210  29.091  46.962  1.00  0.00     0.168 HD
HETATM   19  N5  UNL     1      54.003  30.264  49.093  1.00  0.00    -0.337 N 
HETATM   20  C9  UNL     1      54.775  30.628  50.147  1.00  0.00     0.138 A 
ATOM     21  H5  UNL     1      52.996  30.409  49.158  1.00  0.00     0.168 HD
HETATM   22  N6  UNL     1      54.535  31.174  51.357  1.00  0.00    -0.337 N 
HETATM   23  C11 UNL     1      56.118  30.417  50.023  1.00  0.00     0.122 A 
HETATM   24  C10 UNL     1      55.731  31.311  52.001  1.00  0.00     0.182 A 
ATOM     25  H6  UNL     1      53.621  31.438  51.725  1.00  0.00     0.168 HD
HETATM   26  N7  UNL     1      56.676  30.840  51.162  1.00  0.00    -0.346 N 
ATOM     27  H7  UNL     1      57.675  30.811  51.368  1.00  0.00     0.167 HD
ENDBRANCH   1  15
TORSDOF 8
ENDMDL
MODEL 5
REMARK VINA RESULT: -1.394749729      1.142      1.467
REMARK  8 active torsions:
REMARK  status: ('A' for Active; 'I' for Inactive)
REMARK    1  A    between atoms: N1_2  and  C2_5 
REMARK    2  A    between atoms: C2_5  and  C3_6 
REMARK    3  A    between atoms: C3_6  and  C4_7 
REMARK    4  A    between atoms: C4_7  and  N2_8 
REMARK    5  A    between atoms: N2_8  and  C5_11 
REMARK    6  A    between atoms: C5_11  and  C6_12 
REMARK    7  A    between atoms: C6_12  and  N3_13 
REMARK    8  A    between atoms: N3_13  and  C7_15 
ROOT
HETATM    1  N3  UNL     1      58.240  30.695  47.582  1.00  0.00    -0.352 N 
ATOM      2  H3  UNL     1      58.931  30.161  47.055  1.00  0.00     0.166 HD
ENDROOT
BRANCH   1   3
HETATM    3  C6  UNL     1      57.155  29.890  47.642  1.00  0.00     0.090 C 
BRANCH   3   4
HETATM    4  C5  UNL     1      55.782  30.440  47.929  1.00  0.00     0.276 C 
BRANCH   4   5
HETATM    5  N2  UNL     1      54.837  29.327  48.150  1.00  0.00    -0.071 N 
ATOM      6  H22 UNL     1      55.011  28.567  47.492  1.00  0.00     0.277 HD
ATOM      7  H21 UNL     1      53.895  29.588  47.859  1.00  0.00     0.277 HD
BRANCH   5   8
HETATM    8  C4  UNL     1      54.839  28.843  49.501  1.00  0.00     0.234 C 
BRANCH   8   9
HETATM    9  C3  UNL     1      54.696  30.028  50.426  1.00  0.00     0.055 C 
BRANCH   9  10
HETATM   10  C2  UNL     1      55.658  29.897  51.575  1.00  0.00     0.233 C 
BRANCH  10  11
HETATM   11  N1  UNL     1      55.906  31.214  52.182  1.00  0.00    -0.079 N 
HETATM   12  C1  UNL     1      54.850  32.128  51.792  1.00  0.00     0.266 C 
ATOM     13  H12 UNL     1      56.832  31.575  51.956  1.00  0.00     0.276 HD
ATOM     14  H11 UNL     1      56.015  31.158  53.195  1.00  0.00     0.276 HD
ENDBRANCH  10  11
ENDBRANCH   9  10
ENDBRANCH   8   9
ENDBRANCH   5   8
ENDBRANCH   4   5
ENDBRANCH   3   4
ENDBRANCH   1   3
BRANCH   1  15
HETATM   15  C7  UNL     1      58.802  31.753  47.849  1.00  0.00     0.137 A 
HETATM   16  N4  UNL     1      58.780  32.276  49.088  1.00  0.00    -0.337 N 
HETATM   17  C8  UNL     1      59.420  33.467  49.272  1.00  0.00     0.183 A 
ATOM     18  H4  UNL     1      58.304  31.804  49.857  1.00  0.00     0.168 HD
HETATM   19  N5  UNL     1      60.044  34.085  48.259  1.00  0.00    -0.337 N 
HETATM   20  C9  UNL     1      60.090  33.592  46.997  1.00  0.00     0.138 A 
ATOM     21  H5  UNL     1      60.510  34.973  48.448  1.00  0.00     0.168 HD
HETATM   22  N6  UNL     1      60.636  34.005  45.834  1.00  0.00    -0.337 N 
HETATM   23  C11 UNL     1      59.457  32.401  46.783  1.00  0.00     0.122 A 
HETATM   24  C10 UNL     1      60.346  33.072  44.880  1.00  0.00     0.182 A 
ATOM     25  H6  UNL     1      61.170  34.862  45.693  1.00  0.00     0.168 HD
HETATM   26  N7  UNL     1      59.628  32.107  45.489  1.00  0.00    -0.346 N 
ATOM     27  H7  UNL     1      59.267  31.272  45.028  1.00  0.00     0.167 HD
ENDBRANCH   1  15
TORSDOF 8
ENDMDL
