MODEL 1
REMARK VINA RESULT: -9.604508295      0.000      0.000
REMARK  15 active torsions:
REMARK  status: ('A' for Active; 'I' for Inactive)
REMARK    1  A    between atoms: O1_2  and  C2_3 
REMARK    2  A    between atoms: C2_3  and  C3_4 
REMARK    3  A    between atoms: C3_4  and  C4_5 
REMARK    4  A    between atoms: C4_5  and  N1_6 
REMARK       I    between atoms: N1_6  and  C5_8 
REMARK    5  A    between atoms: C5_8  and  C6_10 
REMARK    6  A    between atoms: N2_11  and  C7_12 
REMARK    7  A    between atoms: C7_12  and  O3_13 
REMARK    8  A    between atoms: C8_15  and  C9_16 
REMARK    9  A    between atoms: C8_15  and  C16_23 
REMARK   10  A    between atoms: C9_16  and  C10_17 
REMARK   11  A    between atoms: C16_23  and  C17_24 
REMARK   12  A    between atoms: C17_24  and  C18_25 
REMARK   13  A    between atoms: C18_25  and  C19_26 
REMARK       I    between atoms: N4_29  and  C20_31 
REMARK   14  A    between atoms: C20_31  and  C21_33 
REMARK   15  A    between atoms: C21_33  and  C22_34 
ROOT
HETATM    1  C7  UNL     1      20.921  28.697  14.170  1.00  0.00     0.147 C 
HETATM    2  C8  UNL     1      21.184  27.756  13.129  1.00  0.00     0.016 C 
ENDROOT
BRANCH   2   3
HETATM    3  C9  UNL     1      22.464  27.972  12.408  1.00  0.00     0.049 C 
BRANCH   3   4
HETATM    4  C10 UNL     1      23.223  26.676  12.168  1.00  0.00    -0.010 C 
HETATM    5  C11 UNL     1      24.688  27.078  12.079  1.00  0.00     0.005 C 
HETATM    6  C12 UNL     1      25.134  27.343  10.664  1.00  0.00     0.000 C 
HETATM    7  C13 UNL     1      25.112  26.016   9.898  1.00  0.00     0.000 C 
HETATM    8  C14 UNL     1      24.059  25.102  10.504  1.00  0.00     0.000 C 
HETATM    9  C15 UNL     1      22.876  26.024  10.852  1.00  0.00     0.005 C 
ENDBRANCH   3   4
ENDBRANCH   2   3
BRANCH   2  10
HETATM   10  C16 UNL     1      20.013  27.410  12.242  1.00  0.00     0.023 C 
HETATM   11  N4  UNL     1      19.752  26.209  12.118  1.00  0.00    -0.330 N 
HETATM   12  C20 UNL     1      18.985  25.252  11.583  1.00  0.00     0.222 C 
ATOM     13  H4  UNL     1      20.444  25.720  12.685  1.00  0.00     0.168 HD
HETATM   14  O5  UNL     1      19.221  24.020  11.872  1.00  0.00    -0.273 OA
BRANCH  10  15
HETATM   15  C17 UNL     1      19.262  28.459  11.536  1.00  0.00     0.066 C 
BRANCH  15  16
HETATM   16  C18 UNL     1      17.893  28.733  12.128  1.00  0.00     0.105 C 
BRANCH  16  17
HETATM   17  C19 UNL     1      16.889  28.829  10.995  1.00  0.00     0.231 C 
HETATM   18  N3  UNL     1      15.555  29.109  11.321  1.00  0.00    -0.062 NA
HETATM   19  O4  UNL     1      17.275  28.658   9.818  1.00  0.00    -0.277 OA
ENDBRANCH  16  17
ENDBRANCH  15  16
ENDBRANCH  10  15
BRANCH  12  20
HETATM   20  C21 UNL     1      17.861  25.455  10.662  1.00  0.00     0.108 C 
BRANCH  20  21
HETATM   21  C22 UNL     1      18.162  25.090   9.218  1.00  0.00    -0.001 C 
HETATM   22  C23 UNL     1      17.259  25.708   8.221  1.00  0.00     0.038 C 
HETATM   23  C24 UNL     1      17.959  26.242   7.000  1.00  0.00     0.132 C 
HETATM   24  O6  UNL     1      18.840  27.240   7.447  1.00  0.00    -0.379 OA
HETATM   25  C27 UNL     1      19.123  25.444   6.537  1.00  0.00     0.005 C 
HETATM   26  C25 UNL     1      19.766  26.198   7.649  1.00  0.00     0.132 C 
HETATM   27  C26 UNL     1      19.611  25.552   8.990  1.00  0.00     0.038 C 
HETATM   28  C28 UNL     1      19.642  25.887   5.192  1.00  0.00     0.020 C 
HETATM   29  C29 UNL     1      19.052  23.955   6.652  1.00  0.00     0.020 C 
ENDBRANCH  20  21
ENDBRANCH  12  20
ENDBRANCH   2  10
BRANCH   1  30
HETATM   30  N2  UNL     1      20.920  30.107  14.256  1.00  0.00    -0.338 N 
HETATM   31  C6  UNL     1      20.375  30.858  15.354  1.00  0.00     0.197 C 
HETATM   32  C31 UNL     1      21.384  31.977  15.709  1.00  0.00     0.032 C 
HETATM   33  S1  UNL     1      21.824  32.500  14.019  1.00  0.00    -0.137 SA
HETATM   34  C32 UNL     1      20.710  33.086  16.467  1.00  0.00     0.029 C 
HETATM   35  C33 UNL     1      22.540  31.486  16.496  1.00  0.00     0.029 C 
HETATM   36  C30 UNL     1      21.466  30.931  13.198  1.00  0.00     0.200 C 
BRANCH  31  37
HETATM   37  C5  UNL     1      19.114  31.554  14.946  1.00  0.00     0.242 C 
HETATM   38  N1  UNL     1      18.135  32.034  15.842  1.00  0.00    -0.359 N 
ATOM     39  H1  UNL     1      18.271  31.899  16.844  1.00  0.00     0.162 HD
HETATM   40  O2  UNL     1      18.919  31.716  13.712  1.00  0.00    -0.271 OA
BRANCH  38  41
HETATM   41  C4  UNL     1      16.960  32.704  15.385  1.00  0.00     0.125 C 
BRANCH  41  42
HETATM   42  C3  UNL     1      15.892  32.868  16.418  1.00  0.00     0.046 C 
BRANCH  42  43
HETATM   43  C2  UNL     1      16.515  33.675  17.566  1.00  0.00     0.168 C 
BRANCH  43  44
HETATM   44  O1  UNL     1      15.508  33.991  18.475  1.00  0.00    -0.396 OA
HETATM   45  C1  UNL     1      14.573  34.862  17.923  1.00  0.00     0.201 C 
ENDBRANCH  43  44
ENDBRANCH  42  43
ENDBRANCH  41  42
ENDBRANCH  38  41
ENDBRANCH  31  37
ENDBRANCH   1  30
BRANCH   1  46
HETATM   46  O3  UNL     1      20.599  28.126  15.323  1.00  0.00    -0.346 OA
ATOM     47  H3  UNL     1      21.290  27.560  15.647  1.00  0.00     0.219 HD
ENDBRANCH   1  46
TORSDOF 15
ENDMDL
MODEL 2
REMARK VINA RESULT: -9.549180260      1.276      1.582
REMARK  15 active torsions:
REMARK  status: ('A' for Active; 'I' for Inactive)
REMARK    1  A    between atoms: O1_2  and  C2_3 
REMARK    2  A    between atoms: C2_3  and  C3_4 
REMARK    3  A    between atoms: C3_4  and  C4_5 
REMARK    4  A    between atoms: C4_5  and  N1_6 
REMARK       I    between atoms: N1_6  and  C5_8 
REMARK    5  A    between atoms: C5_8  and  C6_10 
REMARK    6  A    between atoms: N2_11  and  C7_12 
REMARK    7  A    between atoms: C7_12  and  O3_13 
REMARK    8  A    between atoms: C8_15  and  C9_16 
REMARK    9  A    between atoms: C8_15  and  C16_23 
REMARK   10  A    between atoms: C9_16  and  C10_17 
REMARK   11  A    between atoms: C16_23  and  C17_24 
REMARK   12  A    between atoms: C17_24  and  C18_25 
REMARK   13  A    between atoms: C18_25  and  C19_26 
REMARK       I    between atoms: N4_29  and  C20_31 
REMARK   14  A    between atoms: C20_31  and  C21_33 
REMARK   15  A    between atoms: C21_33  and  C22_34 
ROOT
HETATM    1  C7  UNL     1      21.112  28.927  14.278  1.00  0.00     0.147 C 
HETATM    2  C8  UNL     1      21.229  27.980  13.215  1.00  0.00     0.016 C 
ENDROOT
BRANCH   2   3
HETATM    3  C9  UNL     1      22.502  28.060  12.453  1.00  0.00     0.049 C 
BRANCH   3   4
HETATM    4  C10 UNL     1      23.066  26.688  12.119  1.00  0.00    -0.010 C 
HETATM    5  C11 UNL     1      24.578  26.847  12.188  1.00  0.00     0.005 C 
HETATM    6  C12 UNL     1      25.190  27.181  10.851  1.00  0.00     0.000 C 
HETATM    7  C13 UNL     1      25.031  25.964   9.934  1.00  0.00     0.000 C 
HETATM    8  C14 UNL     1      23.796  25.180  10.347  1.00  0.00     0.000 C 
HETATM    9  C15 UNL     1      22.745  26.245  10.712  1.00  0.00     0.005 C 
ENDBRANCH   3   4
ENDBRANCH   2   3
BRANCH   2  10
HETATM   10  C16 UNL     1      19.997  27.788  12.366  1.00  0.00     0.023 C 
HETATM   11  N4  UNL     1      19.717  26.625  12.057  1.00  0.00    -0.330 N 
HETATM   12  C20 UNL     1      18.905  25.771  11.423  1.00  0.00     0.222 C 
ATOM     13  H4  UNL     1      20.440  26.048  12.485  1.00  0.00     0.168 HD
HETATM   14  O5  UNL     1      19.148  24.508  11.482  1.00  0.00    -0.273 OA
BRANCH  10  15
HETATM   15  C17 UNL     1      19.212  28.940  11.900  1.00  0.00     0.066 C 
BRANCH  15  16
HETATM   16  C18 UNL     1      17.753  28.891  12.313  1.00  0.00     0.105 C 
BRANCH  16  17
HETATM   17  C19 UNL     1      17.684  28.708  13.818  1.00  0.00     0.231 C 
HETATM   18  N3  UNL     1      17.686  27.400  14.321  1.00  0.00    -0.062 NA
HETATM   19  O4  UNL     1      17.630  29.715  14.556  1.00  0.00    -0.277 OA
ENDBRANCH  16  17
ENDBRANCH  15  16
ENDBRANCH  10  15
BRANCH  12  20
HETATM   20  C21 UNL     1      17.724  26.126  10.629  1.00  0.00     0.108 C 
BRANCH  20  21
HETATM   21  C22 UNL     1      18.015  26.397   9.162  1.00  0.00    -0.001 C 
HETATM   22  C23 UNL     1      19.442  26.635   8.847  1.00  0.00     0.038 C 
HETATM   23  C24 UNL     1      19.925  25.940   7.601  1.00  0.00     0.132 C 
HETATM   24  O6  UNL     1      19.766  24.563   7.823  1.00  0.00    -0.379 OA
HETATM   25  C27 UNL     1      18.935  25.861   6.497  1.00  0.00     0.005 C 
HETATM   26  C25 UNL     1      18.453  24.734   7.343  1.00  0.00     0.132 C 
HETATM   27  C26 UNL     1      17.503  25.149   8.423  1.00  0.00     0.038 C 
HETATM   28  C28 UNL     1      19.535  25.367   5.205  1.00  0.00     0.020 C 
HETATM   29  C29 UNL     1      18.014  27.020   6.285  1.00  0.00     0.020 C 
ENDBRANCH  20  21
ENDBRANCH  12  20
ENDBRANCH   2  10
BRANCH   1  30
HETATM   30  N2  UNL     1      21.278  30.326  14.384  1.00  0.00    -0.338 N 
HETATM   31  C6  UNL     1      20.539  31.171  15.281  1.00  0.00     0.197 C 
HETATM   32  C31 UNL     1      21.539  32.152  15.939  1.00  0.00     0.032 C 
HETATM   33  S1  UNL     1      22.528  32.569  14.466  1.00  0.00    -0.137 SA
HETATM   34  C32 UNL     1      20.828  33.361  16.481  1.00  0.00     0.029 C 
HETATM   35  C33 UNL     1      22.331  31.528  17.027  1.00  0.00     0.029 C 
HETATM   36  C30 UNL     1      22.221  31.042  13.550  1.00  0.00     0.200 C 
BRANCH  31  37
HETATM   37  C5  UNL     1      19.563  32.020  14.528  1.00  0.00     0.242 C 
HETATM   38  N1  UNL     1      18.509  32.749  15.119  1.00  0.00    -0.359 N 
ATOM     39  H1  UNL     1      18.377  32.700  16.129  1.00  0.00     0.162 HD
HETATM   40  O2  UNL     1      19.698  32.081  13.277  1.00  0.00    -0.271 OA
BRANCH  38  41
HETATM   41  C4  UNL     1      17.622  33.553  14.341  1.00  0.00     0.125 C 
BRANCH  41  42
HETATM   42  C3  UNL     1      16.546  34.234  15.124  1.00  0.00     0.046 C 
BRANCH  42  43
HETATM   43  C2  UNL     1      15.856  33.144  15.958  1.00  0.00     0.168 C 
BRANCH  43  44
HETATM   44  O1  UNL     1      16.287  33.265  17.277  1.00  0.00    -0.396 OA
HETATM   45  C1  UNL     1      15.391  34.003  18.045  1.00  0.00     0.201 C 
ENDBRANCH  43  44
ENDBRANCH  42  43
ENDBRANCH  41  42
ENDBRANCH  38  41
ENDBRANCH  31  37
ENDBRANCH   1  30
BRANCH   1  46
HETATM   46  O3  UNL     1      20.765  28.376  15.433  1.00  0.00    -0.346 OA
ATOM     47  H3  UNL     1      20.206  27.617  15.314  1.00  0.00     0.219 HD
ENDBRANCH   1  46
TORSDOF 15
ENDMDL
MODEL 3
REMARK VINA RESULT: -9.160316378      3.283     11.043
REMARK  15 active torsions:
REMARK  status: ('A' for Active; 'I' for Inactive)
REMARK    1  A    between atoms: O1_2  and  C2_3 
REMARK    2  A    between atoms: C2_3  and  C3_4 
REMARK    3  A    between atoms: C3_4  and  C4_5 
REMARK    4  A    between atoms: C4_5  and  N1_6 
REMARK       I    between atoms: N1_6  and  C5_8 
REMARK    5  A    between atoms: C5_8  and  C6_10 
REMARK    6  A    between atoms: N2_11  and  C7_12 
REMARK    7  A    between atoms: C7_12  and  O3_13 
REMARK    8  A    between atoms: C8_15  and  C9_16 
REMARK    9  A    between atoms: C8_15  and  C16_23 
REMARK   10  A    between atoms: C9_16  and  C10_17 
REMARK   11  A    between atoms: C16_23  and  C17_24 
REMARK   12  A    between atoms: C17_24  and  C18_25 
REMARK   13  A    between atoms: C18_25  and  C19_26 
REMARK       I    between atoms: N4_29  and  C20_31 
REMARK   14  A    between atoms: C20_31  and  C21_33 
REMARK   15  A    between atoms: C21_33  and  C22_34 
ROOT
HETATM    1  C7  UNL     1      19.389  30.307  15.840  1.00  0.00     0.147 C 
HETATM    2  C8  UNL     1      19.118  31.533  16.521  1.00  0.00     0.016 C 
ENDROOT
BRANCH   2   3
HETATM    3  C9  UNL     1      17.690  31.942  16.513  1.00  0.00     0.049 C 
BRANCH   3   4
HETATM    4  C10 UNL     1      17.519  33.454  16.487  1.00  0.00    -0.010 C 
HETATM    5  C11 UNL     1      17.064  33.832  17.889  1.00  0.00     0.005 C 
HETATM    6  C12 UNL     1      15.563  33.885  18.020  1.00  0.00     0.000 C 
HETATM    7  C13 UNL     1      15.051  35.061  17.182  1.00  0.00     0.000 C 
HETATM    8  C14 UNL     1      16.005  35.307  16.024  1.00  0.00     0.000 C 
HETATM    9  C15 UNL     1      16.430  33.907  15.546  1.00  0.00     0.005 C 
ENDBRANCH   3   4
ENDBRANCH   2   3
BRANCH   2  10
HETATM   10  C16 UNL     1      20.095  32.654  16.272  1.00  0.00     0.023 C 
HETATM   11  N4  UNL     1      20.624  33.156  17.270  1.00  0.00    -0.330 N 
HETATM   12  C20 UNL     1      21.468  34.054  17.791  1.00  0.00     0.222 C 
ATOM     13  H4  UNL     1      20.239  32.649  18.066  1.00  0.00     0.168 HD
HETATM   14  O5  UNL     1      21.637  34.095  19.066  1.00  0.00    -0.273 OA
BRANCH  10  15
HETATM   15  C17 UNL     1      20.357  33.143  14.910  1.00  0.00     0.066 C 
BRANCH  15  16
HETATM   16  C18 UNL     1      21.813  33.043  14.495  1.00  0.00     0.105 C 
BRANCH  16  17
HETATM   17  C19 UNL     1      22.051  31.669  13.898  1.00  0.00     0.231 C 
HETATM   18  N3  UNL     1      22.651  30.696  14.708  1.00  0.00    -0.062 NA
HETATM   19  O4  UNL     1      21.708  31.446  12.716  1.00  0.00    -0.277 OA
ENDBRANCH  16  17
ENDBRANCH  15  16
ENDBRANCH  10  15
BRANCH  12  20
HETATM   20  C21 UNL     1      22.250  35.045  17.043  1.00  0.00     0.108 C 
BRANCH  20  21
HETATM   21  C22 UNL     1      21.639  36.437  17.022  1.00  0.00    -0.001 C 
HETATM   22  C23 UNL     1      20.218  36.497  17.434  1.00  0.00     0.038 C 
HETATM   23  C24 UNL     1      19.889  37.644  18.353  1.00  0.00     0.132 C 
HETATM   24  O6  UNL     1      20.657  37.462  19.514  1.00  0.00    -0.379 OA
HETATM   25  C27 UNL     1      20.625  38.904  18.081  1.00  0.00     0.005 C 
HETATM   26  C25 UNL     1      21.673  38.163  18.836  1.00  0.00     0.132 C 
HETATM   27  C26 UNL     1      22.512  37.262  17.983  1.00  0.00     0.038 C 
HETATM   28  C28 UNL     1      20.097  40.075  18.871  1.00  0.00     0.020 C 
HETATM   29  C29 UNL     1      20.912  39.266  16.659  1.00  0.00     0.020 C 
ENDBRANCH  20  21
ENDBRANCH  12  20
ENDBRANCH   2  10
BRANCH   1  30
HETATM   30  N2  UNL     1      19.078  29.792  14.561  1.00  0.00    -0.338 N 
HETATM   31  C6  UNL     1      19.374  28.455  14.125  1.00  0.00     0.197 C 
HETATM   32  C31 UNL     1      18.126  27.910  13.391  1.00  0.00     0.032 C 
HETATM   33  S1  UNL     1      17.695  29.400  12.433  1.00  0.00    -0.137 SA
HETATM   34  C32 UNL     1      18.492  26.765  12.487  1.00  0.00     0.029 C 
HETATM   35  C33 UNL     1      17.054  27.472  14.317  1.00  0.00     0.029 C 
HETATM   36  C30 UNL     1      18.437  30.609  13.551  1.00  0.00     0.200 C 
BRANCH  31  37
HETATM   37  C5  UNL     1      20.478  28.459  13.115  1.00  0.00     0.242 C 
HETATM   38  N1  UNL     1      21.808  28.065  13.376  1.00  0.00    -0.359 N 
ATOM     39  H1  UNL     1      22.060  27.763  14.317  1.00  0.00     0.162 HD
HETATM   40  O2  UNL     1      20.192  28.845  11.950  1.00  0.00    -0.271 OA
BRANCH  38  41
HETATM   41  C4  UNL     1      22.810  28.079  12.359  1.00  0.00     0.125 C 
BRANCH  41  42
HETATM   42  C3  UNL     1      23.001  26.775  11.652  1.00  0.00     0.046 C 
BRANCH  42  43
HETATM   43  C2  UNL     1      24.463  26.364  11.879  1.00  0.00     0.168 C 
BRANCH  43  44
HETATM   44  O1  UNL     1      24.607  25.033  11.497  1.00  0.00    -0.396 OA
HETATM   45  C1  UNL     1      24.094  24.805  10.223  1.00  0.00     0.201 C 
ENDBRANCH  43  44
ENDBRANCH  42  43
ENDBRANCH  41  42
ENDBRANCH  38  41
ENDBRANCH  31  37
ENDBRANCH   1  30
BRANCH   1  46
HETATM   46  O3  UNL     1      20.097  29.452  16.565  1.00  0.00    -0.346 OA
ATOM     47  H3  UNL     1      20.725  29.892  17.126  1.00  0.00     0.219 HD
ENDBRANCH   1  46
TORSDOF 15
ENDMDL
MODEL 4
REMARK VINA RESULT: -9.128492774      3.335     11.161
REMARK  15 active torsions:
REMARK  status: ('A' for Active; 'I' for Inactive)
REMARK    1  A    between atoms: O1_2  and  C2_3 
REMARK    2  A    between atoms: C2_3  and  C3_4 
REMARK    3  A    between atoms: C3_4  and  C4_5 
REMARK    4  A    between atoms: C4_5  and  N1_6 
REMARK       I    between atoms: N1_6  and  C5_8 
REMARK    5  A    between atoms: C5_8  and  C6_10 
REMARK    6  A    between atoms: N2_11  and  C7_12 
REMARK    7  A    between atoms: C7_12  and  O3_13 
REMARK    8  A    between atoms: C8_15  and  C9_16 
REMARK    9  A    between atoms: C8_15  and  C16_23 
REMARK   10  A    between atoms: C9_16  and  C10_17 
REMARK   11  A    between atoms: C16_23  and  C17_24 
REMARK   12  A    between atoms: C17_24  and  C18_25 
REMARK   13  A    between atoms: C18_25  and  C19_26 
REMARK       I    between atoms: N4_29  and  C20_31 
REMARK   14  A    between atoms: C20_31  and  C21_33 
REMARK   15  A    between atoms: C21_33  and  C22_34 
ROOT
HETATM    1  C7  UNL     1      18.535  30.962  15.491  1.00  0.00     0.147 C 
HETATM    2  C8  UNL     1      18.477  32.314  15.951  1.00  0.00     0.016 C 
ENDROOT
BRANCH   2   3
HETATM    3  C9  UNL     1      17.851  33.265  14.997  1.00  0.00     0.049 C 
BRANCH   3   4
HETATM    4  C10 UNL     1      16.431  33.638  15.396  1.00  0.00    -0.010 C 
HETATM    5  C11 UNL     1      16.367  35.154  15.286  1.00  0.00     0.005 C 
HETATM    6  C12 UNL     1      16.680  35.846  16.588  1.00  0.00     0.000 C 
HETATM    7  C13 UNL     1      15.548  35.543  17.575  1.00  0.00     0.000 C 
HETATM    8  C14 UNL     1      14.929  34.197  17.233  1.00  0.00     0.000 C 
HETATM    9  C15 UNL     1      16.114  33.298  16.831  1.00  0.00     0.005 C 
ENDBRANCH   3   4
ENDBRANCH   2   3
BRANCH   2  10
HETATM   10  C16 UNL     1      19.720  32.831  16.631  1.00  0.00     0.023 C 
HETATM   11  N4  UNL     1      19.562  33.747  17.445  1.00  0.00    -0.330 N 
HETATM   12  C20 UNL     1      20.093  34.607  18.321  1.00  0.00     0.222 C 
ATOM     13  H4  UNL     1      18.560  33.936  17.451  1.00  0.00     0.168 HD
HETATM   14  O5  UNL     1      19.321  35.415  18.961  1.00  0.00    -0.273 OA
BRANCH  10  15
HETATM   15  C17 UNL     1      21.047  32.293  16.297  1.00  0.00     0.066 C 
BRANCH  15  16
HETATM   16  C18 UNL     1      21.804  33.123  15.278  1.00  0.00     0.105 C 
BRANCH  16  17
HETATM   17  C19 UNL     1      22.981  32.311  14.773  1.00  0.00     0.231 C 
HETATM   18  N3  UNL     1      22.713  31.091  14.138  1.00  0.00    -0.062 NA
HETATM   19  O4  UNL     1      24.141  32.748  14.933  1.00  0.00    -0.277 OA
ENDBRANCH  16  17
ENDBRANCH  15  16
ENDBRANCH  10  15
BRANCH  12  20
HETATM   20  C21 UNL     1      21.518  34.745  18.645  1.00  0.00     0.108 C 
BRANCH  20  21
HETATM   21  C22 UNL     1      22.139  36.056  18.190  1.00  0.00    -0.001 C 
HETATM   22  C23 UNL     1      21.668  36.540  16.872  1.00  0.00     0.038 C 
HETATM   23  C24 UNL     1      21.380  38.017  16.823  1.00  0.00     0.132 C 
HETATM   24  O6  UNL     1      20.354  38.257  17.751  1.00  0.00    -0.379 OA
HETATM   25  C27 UNL     1      22.289  38.867  17.632  1.00  0.00     0.005 C 
HETATM   26  C25 UNL     1      21.379  38.384  18.708  1.00  0.00     0.132 C 
HETATM   27  C26 UNL     1      21.777  37.065  19.293  1.00  0.00     0.038 C 
HETATM   28  C28 UNL     1      22.105  40.340  17.370  1.00  0.00     0.020 C 
HETATM   29  C29 UNL     1      23.733  38.484  17.714  1.00  0.00     0.020 C 
ENDBRANCH  20  21
ENDBRANCH  12  20
ENDBRANCH   2  10
BRANCH   1  30
HETATM   30  N2  UNL     1      18.991  30.334  14.311  1.00  0.00    -0.338 N 
HETATM   31  C6  UNL     1      19.061  28.912  14.117  1.00  0.00     0.197 C 
HETATM   32  C31 UNL     1      18.505  28.598  12.708  1.00  0.00     0.032 C 
HETATM   33  S1  UNL     1      19.295  29.958  11.788  1.00  0.00    -0.137 SA
HETATM   34  C32 UNL     1      18.988  27.259  12.226  1.00  0.00     0.029 C 
HETATM   35  C33 UNL     1      17.023  28.627  12.650  1.00  0.00     0.029 C 
HETATM   36  C30 UNL     1      19.459  31.103  13.176  1.00  0.00     0.200 C 
BRANCH  31  37
HETATM   37  C5  UNL     1      20.484  28.447  14.111  1.00  0.00     0.242 C 
HETATM   38  N1  UNL     1      21.255  28.232  12.949  1.00  0.00    -0.359 N 
ATOM     39  H1  UNL     1      20.829  28.388  12.036  1.00  0.00     0.162 HD
HETATM   40  O2  UNL     1      21.024  28.232  15.229  1.00  0.00    -0.271 OA
BRANCH  38  41
HETATM   41  C4  UNL     1      22.615  27.802  13.017  1.00  0.00     0.125 C 
BRANCH  41  42
HETATM   42  C3  UNL     1      23.211  27.408  11.704  1.00  0.00     0.046 C 
BRANCH  42  43
HETATM   43  C2  UNL     1      24.612  26.856  12.008  1.00  0.00     0.168 C 
BRANCH  43  44
HETATM   44  O1  UNL     1      24.565  25.468  11.906  1.00  0.00    -0.396 OA
HETATM   45  C1  UNL     1      24.170  25.058  10.636  1.00  0.00     0.201 C 
ENDBRANCH  43  44
ENDBRANCH  42  43
ENDBRANCH  41  42
ENDBRANCH  38  41
ENDBRANCH  31  37
ENDBRANCH   1  30
BRANCH   1  46
HETATM   46  O3  UNL     1      18.057  30.091  16.368  1.00  0.00    -0.346 OA
ATOM     47  H3  UNL     1      18.748  29.621  16.820  1.00  0.00     0.219 HD
ENDBRANCH   1  46
TORSDOF 15
ENDMDL
MODEL 5
REMARK VINA RESULT: -9.118074936      3.448     11.354
REMARK  15 active torsions:
REMARK  status: ('A' for Active; 'I' for Inactive)
REMARK    1  A    between atoms: O1_2  and  C2_3 
REMARK    2  A    between atoms: C2_3  and  C3_4 
REMARK    3  A    between atoms: C3_4  and  C4_5 
REMARK    4  A    between atoms: C4_5  and  N1_6 
REMARK       I    between atoms: N1_6  and  C5_8 
REMARK    5  A    between atoms: C5_8  and  C6_10 
REMARK    6  A    between atoms: N2_11  and  C7_12 
REMARK    7  A    between atoms: C7_12  and  O3_13 
REMARK    8  A    between atoms: C8_15  and  C9_16 
REMARK    9  A    between atoms: C8_15  and  C16_23 
REMARK   10  A    between atoms: C9_16  and  C10_17 
REMARK   11  A    between atoms: C16_23  and  C17_24 
REMARK   12  A    between atoms: C17_24  and  C18_25 
REMARK   13  A    between atoms: C18_25  and  C19_26 
REMARK       I    between atoms: N4_29  and  C20_31 
REMARK   14  A    between atoms: C20_31  and  C21_33 
REMARK   15  A    between atoms: C21_33  and  C22_34 
ROOT
HETATM    1  C7  UNL     1      18.651  31.203  15.552  1.00  0.00     0.147 C 
HETATM    2  C8  UNL     1      18.367  32.531  15.995  1.00  0.00     0.016 C 
ENDROOT
BRANCH   2   3
HETATM    3  C9  UNL     1      17.513  33.322  15.072  1.00  0.00     0.049 C 
BRANCH   3   4
HETATM    4  C10 UNL     1      16.171  33.684  15.689  1.00  0.00    -0.010 C 
HETATM    5  C11 UNL     1      16.106  35.203  15.650  1.00  0.00     0.005 C 
HETATM    6  C12 UNL     1      16.613  35.840  16.920  1.00  0.00     0.000 C 
HETATM    7  C13 UNL     1      15.634  35.501  18.049  1.00  0.00     0.000 C 
HETATM    8  C14 UNL     1      14.959  34.172  17.747  1.00  0.00     0.000 C 
HETATM    9  C15 UNL     1      16.062  33.286  17.141  1.00  0.00     0.005 C 
ENDBRANCH   3   4
ENDBRANCH   2   3
BRANCH   2  10
HETATM   10  C16 UNL     1      19.530  33.291  16.583  1.00  0.00     0.023 C 
HETATM   11  N4  UNL     1      19.329  33.855  17.664  1.00  0.00    -0.330 N 
HETATM   12  C20 UNL     1      19.792  34.609  18.667  1.00  0.00     0.222 C 
ATOM     13  H4  UNL     1      18.359  33.649  17.903  1.00  0.00     0.168 HD
HETATM   14  O5  UNL     1      19.017  34.889  19.656  1.00  0.00    -0.273 OA
BRANCH  10  15
HETATM   15  C17 UNL     1      20.812  33.384  15.871  1.00  0.00     0.066 C 
BRANCH  15  16
HETATM   16  C18 UNL     1      21.906  32.517  16.467  1.00  0.00     0.105 C 
BRANCH  16  17
HETATM   17  C19 UNL     1      22.995  32.332  15.428  1.00  0.00     0.231 C 
HETATM   18  N3  UNL     1      22.816  31.337  14.459  1.00  0.00    -0.062 NA
HETATM   19  O4  UNL     1      24.008  33.065  15.463  1.00  0.00    -0.277 OA
ENDBRANCH  16  17
ENDBRANCH  15  16
ENDBRANCH  10  15
BRANCH  12  20
HETATM   20  C21 UNL     1      21.138  35.184  18.770  1.00  0.00     0.108 C 
BRANCH  20  21
HETATM   21  C22 UNL     1      21.289  36.545  18.110  1.00  0.00    -0.001 C 
HETATM   22  C23 UNL     1      20.868  37.690  18.949  1.00  0.00     0.038 C 
HETATM   23  C24 UNL     1      21.802  38.870  18.899  1.00  0.00     0.132 C 
HETATM   24  O6  UNL     1      23.040  38.422  19.388  1.00  0.00    -0.379 OA
HETATM   25  C27 UNL     1      22.433  39.123  17.579  1.00  0.00     0.005 C 
HETATM   26  C25 UNL     1      23.310  38.022  18.066  1.00  0.00     0.132 C 
HETATM   27  C26 UNL     1      22.785  36.652  17.769  1.00  0.00     0.038 C 
HETATM   28  C28 UNL     1      23.172  40.436  17.523  1.00  0.00     0.020 C 
HETATM   29  C29 UNL     1      21.622  38.878  16.347  1.00  0.00     0.020 C 
ENDBRANCH  20  21
ENDBRANCH  12  20
ENDBRANCH   2  10
BRANCH   1  30
HETATM   30  N2  UNL     1      19.142  30.641  14.353  1.00  0.00    -0.338 N 
HETATM   31  C6  UNL     1      19.114  29.239  14.036  1.00  0.00     0.197 C 
HETATM   32  C31 UNL     1      18.641  29.094  12.570  1.00  0.00     0.032 C 
HETATM   33  S1  UNL     1      19.602  30.455  11.832  1.00  0.00    -0.137 SA
HETATM   34  C32 UNL     1      19.051  27.764  12.003  1.00  0.00     0.029 C 
HETATM   35  C33 UNL     1      17.174  29.254  12.417  1.00  0.00     0.029 C 
HETATM   36  C30 UNL     1      19.753  31.460  13.326  1.00  0.00     0.200 C 
BRANCH  31  37
HETATM   37  C5  UNL     1      20.492  28.657  14.084  1.00  0.00     0.242 C 
HETATM   38  N1  UNL     1      21.381  28.605  12.990  1.00  0.00    -0.359 N 
ATOM     39  H1  UNL     1      21.081  28.977  12.089  1.00  0.00     0.162 HD
HETATM   40  O2  UNL     1      20.877  28.177  15.183  1.00  0.00    -0.271 OA
BRANCH  38  41
HETATM   41  C4  UNL     1      22.691  28.048  13.109  1.00  0.00     0.125 C 
BRANCH  41  42
HETATM   42  C3  UNL     1      23.174  27.322  11.895  1.00  0.00     0.046 C 
BRANCH  42  43
HETATM   43  C2  UNL     1      24.605  26.858  12.204  1.00  0.00     0.168 C 
BRANCH  43  44
HETATM   44  O1  UNL     1      24.679  25.487  11.966  1.00  0.00    -0.396 OA
HETATM   45  C1  UNL     1      24.169  25.154  10.715  1.00  0.00     0.201 C 
ENDBRANCH  43  44
ENDBRANCH  42  43
ENDBRANCH  41  42
ENDBRANCH  38  41
ENDBRANCH  31  37
ENDBRANCH   1  30
BRANCH   1  46
HETATM   46  O3  UNL     1      18.403  30.281  16.472  1.00  0.00    -0.346 OA
ATOM     47  H3  UNL     1      18.228  30.663  17.324  1.00  0.00     0.219 HD
ENDBRANCH   1  46
TORSDOF 15
ENDMDL
