MODEL 1
REMARK VINA RESULT: -8.093374780      0.000      0.000
REMARK  16 active torsions:
REMARK  status: ('A' for Active; 'I' for Inactive)
REMARK    1  A    between atoms: C2_2  and  C3_3 
REMARK    2  A    between atoms: C3_3  and  N1_4 
REMARK       I    between atoms: N1_4  and  C4_6 
REMARK    3  A    between atoms: C4_6  and  C5_8 
REMARK    4  A    between atoms: C5_8  and  C6_9 
REMARK    5  A    between atoms: C7_10  and  C8_11 
REMARK    6  A    between atoms: C10_13  and  O2_14 
REMARK    7  A    between atoms: N2_19  and  C14_20 
REMARK    8  A    between atoms: C14_20  and  C15_21 
REMARK    9  A    between atoms: C24_31  and  O5_32 
REMARK   10  A    between atoms: C26_35  and  O6_36 
REMARK   11  A    between atoms: O6_36  and  C27_37 
REMARK   12  A    between atoms: C27_37  and  C28_38 
REMARK   13  A    between atoms: C28_38  and  C29_39 
REMARK   14  A    between atoms: C29_39  and  N3_40 
REMARK   15  A    between atoms: N3_40  and  C31_42 
REMARK   16  A    between atoms: C31_42  and  C33_44 
ROOT
HETATM    1  C8  UNL     1      19.552  30.691  15.129  1.00  0.00     0.046 C 
HETATM    2  C9  UNL     1      18.944  31.203  16.428  1.00  0.00     0.060 C 
HETATM    3  C10 UNL     1      18.217  32.466  16.453  1.00  0.00     0.149 C 
HETATM    4  C12 UNL     1      18.907  33.361  17.457  1.00  0.00     0.198 C 
HETATM    5  O3  UNL     1      18.314  33.947  18.320  1.00  0.00    -0.292 OA
HETATM    6  C13 UNL     1      20.388  33.450  17.270  1.00  0.00     0.311 C 
HETATM    7  N2  UNL     1      20.769  34.704  17.886  1.00  0.00     0.102 N 
HETATM    8  C18 UNL     1      20.849  35.666  16.830  1.00  0.00     0.275 C 
HETATM    9  C19 UNL     1      21.368  34.860  15.681  1.00  0.00     0.051 C 
HETATM   10  C20 UNL     1      20.816  33.437  15.867  1.00  0.00     0.069 C 
HETATM   11  C21 UNL     1      21.986  32.527  15.694  1.00  0.00     0.139 C 
HETATM   12  O4  UNL     1      22.593  31.979  16.579  1.00  0.00    -0.297 OA
HETATM   13  C22 UNL     1      22.409  32.304  14.290  1.00  0.00     0.082 C 
HETATM   14  C23 UNL     1      21.298  31.617  13.577  1.00  0.00     0.046 C 
HETATM   15  C24 UNL     1      19.931  31.772  14.199  1.00  0.00     0.072 C 
HETATM   16  C25 UNL     1      19.815  33.189  14.824  1.00  0.00     0.071 C 
HETATM   17  C26 UNL     1      18.379  33.294  15.165  1.00  0.00     0.171 C 
ENDROOT
BRANCH  17  18
HETATM   18  O6  UNL     1      17.889  34.555  15.364  1.00  0.00    -0.382 OA
BRANCH  18  19
HETATM   19  C27 UNL     1      16.606  34.770  14.867  1.00  0.00     0.170 C 
BRANCH  19  20
HETATM   20  C28 UNL     1      15.765  35.301  16.037  1.00  0.00     0.046 C 
BRANCH  20  21
HETATM   21  C29 UNL     1      16.549  36.405  16.725  1.00  0.00     0.119 C 
BRANCH  21  22
HETATM   22  N3  UNL     1      16.030  36.756  17.999  1.00  0.00    -0.412 N 
HETATM   23  C30 UNL     1      15.292  35.761  18.667  1.00  0.00     0.143 C 
BRANCH  22  24
HETATM   24  C31 UNL     1      16.811  37.670  18.716  1.00  0.00     0.082 C 
HETATM   25  C32 UNL     1      18.300  37.602  18.434  1.00  0.00     0.033 C 
BRANCH  24  26
HETATM   26  C33 UNL     1      16.386  39.131  18.623  1.00  0.00    -0.032 C 
HETATM   27  C34 UNL     1      16.732  39.768  17.313  1.00  0.00     0.016 C 
HETATM   28  C35 UNL     1      17.225  39.864  19.687  1.00  0.00     0.016 C 
HETATM   29  C36 UNL     1      14.952  39.343  19.031  1.00  0.00     0.016 C 
ENDBRANCH  24  26
ENDBRANCH  22  24
ENDBRANCH  21  22
ENDBRANCH  20  21
ENDBRANCH  19  20
ENDBRANCH  18  19
ENDBRANCH  17  18
BRANCH   3  30
HETATM   30  O2  UNL     1      16.866  32.380  16.691  1.00  0.00    -0.374 OA
HETATM   31  C11 UNL     1      16.123  31.512  15.967  1.00  0.00     0.203 C 
ENDBRANCH   3  30
BRANCH  15  32
HETATM   32  O5  UNL     1      19.005  31.854  13.167  1.00  0.00    -0.389 OA
ATOM     33  H5  UNL     1      19.177  32.625  12.639  1.00  0.00     0.210 HD
ENDBRANCH  15  32
BRANCH   1  34
HETATM   34  C7  UNL     1      18.767  29.523  14.658  1.00  0.00    -0.022 C 
HETATM   35  C6  UNL     1      19.259  28.345  14.002  1.00  0.00    -0.021 C 
BRANCH  35  36
HETATM   36  C5  UNL     1      19.944  28.252  12.718  1.00  0.00     0.129 C 
BRANCH  36  37
HETATM   37  C4  UNL     1      21.429  28.001  13.008  1.00  0.00     0.221 C 
HETATM   38  N1  UNL     1      22.310  27.630  11.985  1.00  0.00    -0.361 N 
ATOM     39  H1  UNL     1      21.939  27.533  11.040  1.00  0.00     0.162 HD
HETATM   40  O1  UNL     1      21.824  28.140  14.179  1.00  0.00    -0.273 OA
BRANCH  38  41
HETATM   41  C3  UNL     1      23.695  27.381  12.197  1.00  0.00     0.122 C 
BRANCH  41  42
HETATM   42  C2  UNL     1      24.168  26.038  11.671  1.00  0.00     0.015 C 
HETATM   43  C1  UNL     1      25.185  26.328  10.575  1.00  0.00     0.006 C 
ENDBRANCH  41  42
ENDBRANCH  38  41
ENDBRANCH  36  37
ENDBRANCH  35  36
ENDBRANCH   1  34
BRANCH   7  44
HETATM   44  C14 UNL     1      22.038  34.679  18.563  1.00  0.00     0.278 C 
BRANCH  44  45
HETATM   45  C15 UNL     1      22.086  35.548  19.773  1.00  0.00     0.014 A 
HETATM   46  C16 UNL     1      23.121  35.264  20.840  1.00  0.00     0.007 A 
HETATM   47  C17 UNL     1      21.706  34.882  21.077  1.00  0.00     0.007 A 
ENDBRANCH  44  45
ENDBRANCH   7  44
TORSDOF 16
ENDMDL
MODEL 2
REMARK VINA RESULT: -8.023092184      1.570      2.035
REMARK  16 active torsions:
REMARK  status: ('A' for Active; 'I' for Inactive)
REMARK    1  A    between atoms: C2_2  and  C3_3 
REMARK    2  A    between atoms: C3_3  and  N1_4 
REMARK       I    between atoms: N1_4  and  C4_6 
REMARK    3  A    between atoms: C4_6  and  C5_8 
REMARK    4  A    between atoms: C5_8  and  C6_9 
REMARK    5  A    between atoms: C7_10  and  C8_11 
REMARK    6  A    between atoms: C10_13  and  O2_14 
REMARK    7  A    between atoms: N2_19  and  C14_20 
REMARK    8  A    between atoms: C14_20  and  C15_21 
REMARK    9  A    between atoms: C24_31  and  O5_32 
REMARK   10  A    between atoms: C26_35  and  O6_36 
REMARK   11  A    between atoms: O6_36  and  C27_37 
REMARK   12  A    between atoms: C27_37  and  C28_38 
REMARK   13  A    between atoms: C28_38  and  C29_39 
REMARK   14  A    between atoms: C29_39  and  N3_40 
REMARK   15  A    between atoms: N3_40  and  C31_42 
REMARK   16  A    between atoms: C31_42  and  C33_44 
ROOT
HETATM    1  C8  UNL     1      19.589  30.625  15.208  1.00  0.00     0.046 C 
HETATM    2  C9  UNL     1      18.977  31.165  16.492  1.00  0.00     0.060 C 
HETATM    3  C10 UNL     1      18.243  32.425  16.486  1.00  0.00     0.149 C 
HETATM    4  C12 UNL     1      18.927  33.349  17.467  1.00  0.00     0.198 C 
HETATM    5  O3  UNL     1      18.331  33.952  18.315  1.00  0.00    -0.292 OA
HETATM    6  C13 UNL     1      20.408  33.442  17.279  1.00  0.00     0.311 C 
HETATM    7  N2  UNL     1      20.781  34.713  17.863  1.00  0.00     0.102 N 
HETATM    8  C18 UNL     1      20.856  35.648  16.784  1.00  0.00     0.275 C 
HETATM    9  C19 UNL     1      21.381  34.817  15.656  1.00  0.00     0.051 C 
HETATM   10  C20 UNL     1      20.837  33.395  15.877  1.00  0.00     0.069 C 
HETATM   11  C21 UNL     1      22.012  32.488  15.727  1.00  0.00     0.139 C 
HETATM   12  O4  UNL     1      22.622  31.966  16.625  1.00  0.00    -0.297 OA
HETATM   13  C22 UNL     1      22.437  32.232  14.329  1.00  0.00     0.082 C 
HETATM   14  C23 UNL     1      21.331  31.521  13.634  1.00  0.00     0.046 C 
HETATM   15  C24 UNL     1      19.963  31.684  14.250  1.00  0.00     0.072 C 
HETATM   16  C25 UNL     1      19.838  33.116  14.840  1.00  0.00     0.071 C 
HETATM   17  C26 UNL     1      18.401  33.221  15.178  1.00  0.00     0.171 C 
ENDROOT
BRANCH  17  18
HETATM   18  O6  UNL     1      17.903  34.483  15.344  1.00  0.00    -0.382 OA
BRANCH  18  19
HETATM   19  C27 UNL     1      16.625  34.682  14.829  1.00  0.00     0.170 C 
BRANCH  19  20
HETATM   20  C28 UNL     1      15.770  35.237  15.977  1.00  0.00     0.046 C 
BRANCH  20  21
HETATM   21  C29 UNL     1      16.563  36.326  16.679  1.00  0.00     0.119 C 
BRANCH  21  22
HETATM   22  N3  UNL     1      16.023  36.695  17.939  1.00  0.00    -0.412 N 
HETATM   23  C30 UNL     1      15.239  35.723  18.590  1.00  0.00     0.143 C 
BRANCH  22  24
HETATM   24  C31 UNL     1      16.811  37.588  18.674  1.00  0.00     0.082 C 
HETATM   25  C32 UNL     1      18.301  37.503  18.402  1.00  0.00     0.033 C 
BRANCH  24  26
HETATM   26  C33 UNL     1      16.408  39.055  18.599  1.00  0.00    -0.032 C 
HETATM   27  C34 UNL     1      16.777  39.707  17.302  1.00  0.00     0.016 C 
HETATM   28  C35 UNL     1      17.245  39.761  19.683  1.00  0.00     0.016 C 
HETATM   29  C36 UNL     1      14.972  39.282  18.994  1.00  0.00     0.016 C 
ENDBRANCH  24  26
ENDBRANCH  22  24
ENDBRANCH  21  22
ENDBRANCH  20  21
ENDBRANCH  19  20
ENDBRANCH  18  19
ENDBRANCH  17  18
BRANCH   3  30
HETATM   30  O2  UNL     1      16.893  32.337  16.725  1.00  0.00    -0.374 OA
HETATM   31  C11 UNL     1      16.147  31.481  15.989  1.00  0.00     0.203 C 
ENDBRANCH   3  30
BRANCH  15  32
HETATM   32  O5  UNL     1      19.037  31.734  13.216  1.00  0.00    -0.389 OA
ATOM     33  H5  UNL     1      19.075  32.582  12.789  1.00  0.00     0.210 HD
ENDBRANCH  15  32
BRANCH   1  34
HETATM   34  C7  UNL     1      18.811  29.441  14.765  1.00  0.00    -0.022 C 
HETATM   35  C6  UNL     1      19.312  28.242  14.154  1.00  0.00    -0.021 C 
BRANCH  35  36
HETATM   36  C5  UNL     1      20.012  28.108  12.883  1.00  0.00     0.129 C 
BRANCH  36  37
HETATM   37  C4  UNL     1      18.975  28.283  11.766  1.00  0.00     0.221 C 
HETATM   38  N1  UNL     1      18.335  27.175  11.198  1.00  0.00    -0.361 N 
ATOM     39  H1  UNL     1      18.574  26.247  11.547  1.00  0.00     0.162 HD
HETATM   40  O1  UNL     1      18.721  29.439  11.386  1.00  0.00    -0.273 OA
BRANCH  38  41
HETATM   41  C3  UNL     1      17.368  27.278  10.158  1.00  0.00     0.122 C 
BRANCH  41  42
HETATM   42  C2  UNL     1      17.636  26.367   8.974  1.00  0.00     0.015 C 
HETATM   43  C1  UNL     1      18.714  27.041   8.134  1.00  0.00     0.006 C 
ENDBRANCH  41  42
ENDBRANCH  38  41
ENDBRANCH  36  37
ENDBRANCH  35  36
ENDBRANCH   1  34
BRANCH   7  44
HETATM   44  C14 UNL     1      22.050  34.712  18.541  1.00  0.00     0.278 C 
BRANCH  44  45
HETATM   45  C15 UNL     1      22.074  35.563  19.764  1.00  0.00     0.014 A 
HETATM   46  C16 UNL     1      23.091  35.267  20.844  1.00  0.00     0.007 A 
HETATM   47  C17 UNL     1      21.674  34.876  21.052  1.00  0.00     0.007 A 
ENDBRANCH  44  45
ENDBRANCH   7  44
TORSDOF 16
ENDMDL
MODEL 3
REMARK VINA RESULT: -7.910950876      2.264      5.045
REMARK  16 active torsions:
REMARK  status: ('A' for Active; 'I' for Inactive)
REMARK    1  A    between atoms: C2_2  and  C3_3 
REMARK    2  A    between atoms: C3_3  and  N1_4 
REMARK       I    between atoms: N1_4  and  C4_6 
REMARK    3  A    between atoms: C4_6  and  C5_8 
REMARK    4  A    between atoms: C5_8  and  C6_9 
REMARK    5  A    between atoms: C7_10  and  C8_11 
REMARK    6  A    between atoms: C10_13  and  O2_14 
REMARK    7  A    between atoms: N2_19  and  C14_20 
REMARK    8  A    between atoms: C14_20  and  C15_21 
REMARK    9  A    between atoms: C24_31  and  O5_32 
REMARK   10  A    between atoms: C26_35  and  O6_36 
REMARK   11  A    between atoms: O6_36  and  C27_37 
REMARK   12  A    between atoms: C27_37  and  C28_38 
REMARK   13  A    between atoms: C28_38  and  C29_39 
REMARK   14  A    between atoms: C29_39  and  N3_40 
REMARK   15  A    between atoms: N3_40  and  C31_42 
REMARK   16  A    between atoms: C31_42  and  C33_44 
ROOT
HETATM    1  C8  UNL     1      20.794  29.988  13.063  1.00  0.00     0.046 C 
HETATM    2  C9  UNL     1      20.771  31.507  13.159  1.00  0.00     0.060 C 
HETATM    3  C10 UNL     1      21.112  32.172  14.411  1.00  0.00     0.149 C 
HETATM    4  C12 UNL     1      19.921  33.010  14.814  1.00  0.00     0.198 C 
HETATM    5  O3  UNL     1      20.016  34.163  15.129  1.00  0.00    -0.292 OA
HETATM    6  C13 UNL     1      18.622  32.268  14.788  1.00  0.00     0.311 C 
HETATM    7  N2  UNL     1      17.758  32.993  15.696  1.00  0.00     0.102 N 
HETATM    8  C18 UNL     1      17.817  32.304  16.948  1.00  0.00     0.275 C 
HETATM    9  C19 UNL     1      17.942  30.871  16.536  1.00  0.00     0.051 C 
HETATM   10  C20 UNL     1      18.724  30.868  15.212  1.00  0.00     0.069 C 
HETATM   11  C21 UNL     1      17.947  29.992  14.288  1.00  0.00     0.139 C 
HETATM   12  O4  UNL     1      17.224  30.366  13.401  1.00  0.00    -0.297 OA
HETATM   13  C22 UNL     1      18.105  28.535  14.519  1.00  0.00     0.082 C 
HETATM   14  C23 UNL     1      19.525  28.178  14.257  1.00  0.00     0.046 C 
HETATM   15  C24 UNL     1      20.510  29.319  14.347  1.00  0.00     0.072 C 
HETATM   16  C25 UNL     1      20.053  30.299  15.462  1.00  0.00     0.071 C 
HETATM   17  C26 UNL     1      21.210  31.210  15.609  1.00  0.00     0.171 C 
ENDROOT
BRANCH  17  18
HETATM   18  O6  UNL     1      21.278  31.927  16.771  1.00  0.00    -0.382 OA
BRANCH  18  19
HETATM   19  C27 UNL     1      22.567  32.237  17.194  1.00  0.00     0.170 C 
BRANCH  19  20
HETATM   20  C28 UNL     1      22.608  33.758  17.404  1.00  0.00     0.046 C 
BRANCH  20  21
HETATM   21  C29 UNL     1      21.815  34.087  18.658  1.00  0.00     0.119 C 
BRANCH  21  22
HETATM   22  N3  UNL     1      21.051  35.279  18.546  1.00  0.00    -0.412 N 
HETATM   23  C30 UNL     1      19.652  35.125  18.547  1.00  0.00     0.143 C 
BRANCH  22  24
HETATM   24  C31 UNL     1      21.648  36.410  19.116  1.00  0.00     0.082 C 
HETATM   25  C32 UNL     1      22.829  36.124  20.023  1.00  0.00     0.033 C 
BRANCH  24  26
HETATM   26  C33 UNL     1      22.062  37.509  18.145  1.00  0.00    -0.032 C 
HETATM   27  C34 UNL     1      23.544  37.707  18.069  1.00  0.00     0.016 C 
HETATM   28  C35 UNL     1      21.489  38.810  18.740  1.00  0.00     0.016 C 
HETATM   29  C36 UNL     1      21.408  37.366  16.796  1.00  0.00     0.016 C 
ENDBRANCH  24  26
ENDBRANCH  22  24
ENDBRANCH  21  22
ENDBRANCH  20  21
ENDBRANCH  19  20
ENDBRANCH  18  19
ENDBRANCH  17  18
BRANCH   3  30
HETATM   30  O2  UNL     1      22.274  32.905  14.407  1.00  0.00    -0.374 OA
HETATM   31  C11 UNL     1      23.449  32.278  14.172  1.00  0.00     0.203 C 
ENDBRANCH   3  30
BRANCH  15  32
HETATM   32  O5  UNL     1      21.687  28.819  14.890  1.00  0.00    -0.389 OA
ATOM     33  H5  UNL     1      21.745  27.884  14.728  1.00  0.00     0.210 HD
ENDBRANCH  15  32
BRANCH   1  34
HETATM   34  C7  UNL     1      21.954  29.577  12.232  1.00  0.00    -0.022 C 
HETATM   35  C6  UNL     1      22.124  28.345  11.515  1.00  0.00    -0.021 C 
BRANCH  35  36
HETATM   36  C5  UNL     1      22.184  26.993  12.055  1.00  0.00     0.129 C 
BRANCH  36  37
HETATM   37  C4  UNL     1      23.280  26.241  11.289  1.00  0.00     0.221 C 
HETATM   38  N1  UNL     1      23.618  26.600   9.978  1.00  0.00    -0.361 N 
ATOM     39  H1  UNL     1      23.118  27.376   9.545  1.00  0.00     0.162 HD
HETATM   40  O1  UNL     1      23.857  25.306  11.870  1.00  0.00    -0.273 OA
BRANCH  38  41
HETATM   41  C3  UNL     1      24.623  25.935   9.220  1.00  0.00     0.122 C 
BRANCH  41  42
HETATM   42  C2  UNL     1      24.085  25.150   8.038  1.00  0.00     0.015 C 
HETATM   43  C1  UNL     1      23.798  23.741   8.538  1.00  0.00     0.006 C 
ENDBRANCH  41  42
ENDBRANCH  38  41
ENDBRANCH  36  37
ENDBRANCH  35  36
ENDBRANCH   1  34
BRANCH   7  44
HETATM   44  C14 UNL     1      16.380  33.059  15.288  1.00  0.00     0.278 C 
BRANCH  44  45
HETATM   45  C15 UNL     1      15.790  34.424  15.398  1.00  0.00     0.014 A 
HETATM   46  C16 UNL     1      16.542  35.487  16.168  1.00  0.00     0.007 A 
HETATM   47  C17 UNL     1      15.355  34.843  16.785  1.00  0.00     0.007 A 
ENDBRANCH  44  45
ENDBRANCH   7  44
TORSDOF 16
ENDMDL
MODEL 4
REMARK VINA RESULT: -7.894434521      2.331      5.230
REMARK  16 active torsions:
REMARK  status: ('A' for Active; 'I' for Inactive)
REMARK    1  A    between atoms: C2_2  and  C3_3 
REMARK    2  A    between atoms: C3_3  and  N1_4 
REMARK       I    between atoms: N1_4  and  C4_6 
REMARK    3  A    between atoms: C4_6  and  C5_8 
REMARK    4  A    between atoms: C5_8  and  C6_9 
REMARK    5  A    between atoms: C7_10  and  C8_11 
REMARK    6  A    between atoms: C10_13  and  O2_14 
REMARK    7  A    between atoms: N2_19  and  C14_20 
REMARK    8  A    between atoms: C14_20  and  C15_21 
REMARK    9  A    between atoms: C24_31  and  O5_32 
REMARK   10  A    between atoms: C26_35  and  O6_36 
REMARK   11  A    between atoms: O6_36  and  C27_37 
REMARK   12  A    between atoms: C27_37  and  C28_38 
REMARK   13  A    between atoms: C28_38  and  C29_39 
REMARK   14  A    between atoms: C29_39  and  N3_40 
REMARK   15  A    between atoms: N3_40  and  C31_42 
REMARK   16  A    between atoms: C31_42  and  C33_44 
ROOT
HETATM    1  C8  UNL     1      20.773  29.968  13.031  1.00  0.00     0.046 C 
HETATM    2  C9  UNL     1      20.741  31.487  13.132  1.00  0.00     0.060 C 
HETATM    3  C10 UNL     1      21.087  32.150  14.383  1.00  0.00     0.149 C 
HETATM    4  C12 UNL     1      19.894  32.980  14.798  1.00  0.00     0.198 C 
HETATM    5  O3  UNL     1      19.984  34.133  15.115  1.00  0.00    -0.292 OA
HETATM    6  C13 UNL     1      18.600  32.230  14.779  1.00  0.00     0.311 C 
HETATM    7  N2  UNL     1      17.738  32.947  15.695  1.00  0.00     0.102 N 
HETATM    8  C18 UNL     1      17.811  32.254  16.945  1.00  0.00     0.275 C 
HETATM    9  C19 UNL     1      17.941  30.823  16.528  1.00  0.00     0.051 C 
HETATM   10  C20 UNL     1      18.714  30.829  15.198  1.00  0.00     0.069 C 
HETATM   11  C21 UNL     1      17.935  29.950  14.277  1.00  0.00     0.139 C 
HETATM   12  O4  UNL     1      17.203  30.323  13.396  1.00  0.00    -0.297 OA
HETATM   13  C22 UNL     1      18.104  28.494  14.502  1.00  0.00     0.082 C 
HETATM   14  C23 UNL     1      19.524  28.147  14.229  1.00  0.00     0.046 C 
HETATM   15  C24 UNL     1      20.503  29.293  14.315  1.00  0.00     0.072 C 
HETATM   16  C25 UNL     1      20.048  30.267  15.436  1.00  0.00     0.071 C 
HETATM   17  C26 UNL     1      21.200  31.185  15.578  1.00  0.00     0.171 C 
ENDROOT
BRANCH  17  18
HETATM   18  O6  UNL     1      21.272  31.899  16.741  1.00  0.00    -0.382 OA
BRANCH  18  19
HETATM   19  C27 UNL     1      22.563  32.218  17.155  1.00  0.00     0.170 C 
BRANCH  19  20
HETATM   20  C28 UNL     1      22.593  33.738  17.373  1.00  0.00     0.046 C 
BRANCH  20  21
HETATM   21  C29 UNL     1      21.782  34.056  18.618  1.00  0.00     0.119 C 
BRANCH  21  22
HETATM   22  N3  UNL     1      21.024  35.252  18.507  1.00  0.00    -0.412 N 
HETATM   23  C30 UNL     1      19.625  35.103  18.495  1.00  0.00     0.143 C 
BRANCH  22  24
HETATM   24  C31 UNL     1      21.621  36.377  19.089  1.00  0.00     0.082 C 
HETATM   25  C32 UNL     1      22.797  36.081  19.999  1.00  0.00     0.033 C 
BRANCH  24  26
HETATM   26  C33 UNL     1      22.041  37.483  18.129  1.00  0.00    -0.032 C 
HETATM   27  C34 UNL     1      23.521  37.708  18.094  1.00  0.00     0.016 C 
HETATM   28  C35 UNL     1      21.428  38.773  18.707  1.00  0.00     0.016 C 
HETATM   29  C36 UNL     1      21.426  37.328  16.763  1.00  0.00     0.016 C 
ENDBRANCH  24  26
ENDBRANCH  22  24
ENDBRANCH  21  22
ENDBRANCH  20  21
ENDBRANCH  19  20
ENDBRANCH  18  19
ENDBRANCH  17  18
BRANCH   3  30
HETATM   30  O2  UNL     1      22.245  32.890  14.373  1.00  0.00    -0.374 OA
HETATM   31  C11 UNL     1      23.424  32.268  14.146  1.00  0.00     0.203 C 
ENDBRANCH   3  30
BRANCH  15  32
HETATM   32  O5  UNL     1      21.686  28.799  14.848  1.00  0.00    -0.389 OA
ATOM     33  H5  UNL     1      21.638  27.853  14.918  1.00  0.00     0.210 HD
ENDBRANCH  15  32
BRANCH   1  34
HETATM   34  C7  UNL     1      21.929  29.567  12.190  1.00  0.00    -0.022 C 
HETATM   35  C6  UNL     1      22.150  28.300  11.553  1.00  0.00    -0.021 C 
BRANCH  35  36
HETATM   36  C5  UNL     1      22.306  26.994  12.181  1.00  0.00     0.129 C 
BRANCH  36  37
HETATM   37  C4  UNL     1      21.200  26.085  11.632  1.00  0.00     0.221 C 
HETATM   38  N1  UNL     1      20.074  26.625  10.996  1.00  0.00    -0.361 N 
ATOM     39  H1  UNL     1      20.010  27.639  10.905  1.00  0.00     0.162 HD
HETATM   40  O1  UNL     1      21.335  24.858  11.769  1.00  0.00    -0.273 OA
BRANCH  38  41
HETATM   41  C3  UNL     1      19.016  25.830  10.472  1.00  0.00     0.122 C 
BRANCH  41  42
HETATM   42  C2  UNL     1      17.705  26.578  10.310  1.00  0.00     0.015 C 
HETATM   43  C1  UNL     1      17.964  28.018  10.731  1.00  0.00     0.006 C 
ENDBRANCH  41  42
ENDBRANCH  38  41
ENDBRANCH  36  37
ENDBRANCH  35  36
ENDBRANCH   1  34
BRANCH   7  44
HETATM   44  C14 UNL     1      16.356  33.006  15.298  1.00  0.00     0.278 C 
BRANCH  44  45
HETATM   45  C15 UNL     1      15.763  34.369  15.403  1.00  0.00     0.014 A 
HETATM   46  C16 UNL     1      16.522  35.443  16.151  1.00  0.00     0.007 A 
HETATM   47  C17 UNL     1      15.348  34.800  16.793  1.00  0.00     0.007 A 
ENDBRANCH  44  45
ENDBRANCH   7  44
TORSDOF 16
ENDMDL
MODEL 5
REMARK VINA RESULT: -7.497258453      0.998      1.198
REMARK  16 active torsions:
REMARK  status: ('A' for Active; 'I' for Inactive)
REMARK    1  A    between atoms: C2_2  and  C3_3 
REMARK    2  A    between atoms: C3_3  and  N1_4 
REMARK       I    between atoms: N1_4  and  C4_6 
REMARK    3  A    between atoms: C4_6  and  C5_8 
REMARK    4  A    between atoms: C5_8  and  C6_9 
REMARK    5  A    between atoms: C7_10  and  C8_11 
REMARK    6  A    between atoms: C10_13  and  O2_14 
REMARK    7  A    between atoms: N2_19  and  C14_20 
REMARK    8  A    between atoms: C14_20  and  C15_21 
REMARK    9  A    between atoms: C24_31  and  O5_32 
REMARK   10  A    between atoms: C26_35  and  O6_36 
REMARK   11  A    between atoms: O6_36  and  C27_37 
REMARK   12  A    between atoms: C27_37  and  C28_38 
REMARK   13  A    between atoms: C28_38  and  C29_39 
REMARK   14  A    between atoms: C29_39  and  N3_40 
REMARK   15  A    between atoms: N3_40  and  C31_42 
REMARK   16  A    between atoms: C31_42  and  C33_44 
ROOT
HETATM    1  C8  UNL     1      19.013  30.479  15.028  1.00  0.00     0.046 C 
HETATM    2  C9  UNL     1      18.558  31.077  16.352  1.00  0.00     0.060 C 
HETATM    3  C10 UNL     1      17.967  32.409  16.394  1.00  0.00     0.149 C 
HETATM    4  C12 UNL     1      18.818  33.248  17.320  1.00  0.00     0.198 C 
HETATM    5  O3  UNL     1      18.354  33.909  18.207  1.00  0.00    -0.292 OA
HETATM    6  C13 UNL     1      20.282  33.180  17.024  1.00  0.00     0.311 C 
HETATM    7  N2  UNL     1      20.833  34.400  17.575  1.00  0.00     0.102 N 
HETATM    8  C18 UNL     1      20.932  35.326  16.490  1.00  0.00     0.275 C 
HETATM    9  C19 UNL     1      21.279  34.448  15.330  1.00  0.00     0.051 C 
HETATM   10  C20 UNL     1      20.601  33.093  15.595  1.00  0.00     0.069 C 
HETATM   11  C21 UNL     1      21.656  32.064  15.363  1.00  0.00     0.139 C 
HETATM   12  O4  UNL     1      22.268  31.475  16.217  1.00  0.00    -0.297 OA
HETATM   13  C22 UNL     1      21.947  31.770  13.939  1.00  0.00     0.082 C 
HETATM   14  C23 UNL     1      20.723  31.186  13.328  1.00  0.00     0.046 C 
HETATM   15  C24 UNL     1      19.429  31.495  14.042  1.00  0.00     0.072 C 
HETATM   16  C25 UNL     1      19.505  32.929  14.634  1.00  0.00     0.071 C 
HETATM   17  C26 UNL     1      18.116  33.189  15.075  1.00  0.00     0.171 C 
ENDROOT
BRANCH  17  18
HETATM   18  O6  UNL     1      17.773  34.498  15.273  1.00  0.00    -0.382 OA
BRANCH  18  19
HETATM   19  C27 UNL     1      16.504  34.846  14.817  1.00  0.00     0.170 C 
BRANCH  19  20
HETATM   20  C28 UNL     1      15.745  35.419  16.022  1.00  0.00     0.046 C 
BRANCH  20  21
HETATM   21  C29 UNL     1      16.689  36.329  16.791  1.00  0.00     0.119 C 
BRANCH  21  22
HETATM   22  N3  UNL     1      16.157  36.779  18.028  1.00  0.00    -0.412 N 
HETATM   23  C30 UNL     1      15.384  35.849  18.749  1.00  0.00     0.143 C 
BRANCH  22  24
HETATM   24  C31 UNL     1      16.946  37.724  18.693  1.00  0.00     0.082 C 
HETATM   25  C32 UNL     1      18.437  37.610  18.438  1.00  0.00     0.033 C 
BRANCH  24  26
HETATM   26  C33 UNL     1      16.550  39.182  18.499  1.00  0.00    -0.032 C 
HETATM   27  C34 UNL     1      16.903  39.718  17.146  1.00  0.00     0.016 C 
HETATM   28  C35 UNL     1      17.410  39.971  19.506  1.00  0.00     0.016 C 
HETATM   29  C36 UNL     1      15.123  39.453  18.896  1.00  0.00     0.016 C 
ENDBRANCH  24  26
ENDBRANCH  22  24
ENDBRANCH  21  22
ENDBRANCH  20  21
ENDBRANCH  19  20
ENDBRANCH  18  19
ENDBRANCH  17  18
BRANCH   3  30
HETATM   30  O2  UNL     1      16.637  32.468  16.731  1.00  0.00    -0.374 OA
HETATM   31  C11 UNL     1      15.758  31.665  16.089  1.00  0.00     0.203 C 
ENDBRANCH   3  30
BRANCH  15  32
HETATM   32  O5  UNL     1      18.441  31.651  13.078  1.00  0.00    -0.389 OA
ATOM     33  H5  UNL     1      18.833  31.655  12.212  1.00  0.00     0.210 HD
ENDBRANCH  15  32
BRANCH   1  34
HETATM   34  C7  UNL     1      18.080  29.388  14.647  1.00  0.00    -0.022 C 
HETATM   35  C6  UNL     1      18.277  28.375  13.649  1.00  0.00    -0.021 C 
BRANCH  35  36
HETATM   36  C5  UNL     1      18.466  28.553  12.215  1.00  0.00     0.129 C 
BRANCH  36  37
HETATM   37  C4  UNL     1      19.524  27.538  11.763  1.00  0.00     0.221 C 
HETATM   38  N1  UNL     1      20.802  27.956  11.371  1.00  0.00    -0.361 N 
ATOM     39  H1  UNL     1      21.013  28.954  11.396  1.00  0.00     0.162 HD
HETATM   40  O1  UNL     1      19.209  26.336  11.756  1.00  0.00    -0.273 OA
BRANCH  38  41
HETATM   41  C3  UNL     1      21.819  27.060  10.939  1.00  0.00     0.122 C 
BRANCH  41  42
HETATM   42  C2  UNL     1      22.957  26.894  11.929  1.00  0.00     0.015 C 
HETATM   43  C1  UNL     1      22.935  28.119  12.835  1.00  0.00     0.006 C 
ENDBRANCH  41  42
ENDBRANCH  38  41
ENDBRANCH  36  37
ENDBRANCH  35  36
ENDBRANCH   1  34
BRANCH   7  44
HETATM   44  C14 UNL     1      22.141  34.257  18.159  1.00  0.00     0.278 C 
BRANCH  44  45
HETATM   45  C15 UNL     1      22.232  34.779  19.552  1.00  0.00     0.014 A 
HETATM   46  C16 UNL     1      21.043  35.505  20.143  1.00  0.00     0.007 A 
HETATM   47  C17 UNL     1      22.223  36.285  19.693  1.00  0.00     0.007 A 
ENDBRANCH  44  45
ENDBRANCH   7  44
TORSDOF 16
ENDMDL
