MODEL 1
REMARK VINA RESULT: -9.345119626      0.000      0.000
REMARK  15 active torsions:
REMARK  status: ('A' for Active; 'I' for Inactive)
REMARK    1  A    between atoms: C2_2  and  N1_3 
REMARK    2  A    between atoms: C5_6  and  C6_7 
REMARK    3  A    between atoms: C6_7  and  C7_9 
REMARK    4  A    between atoms: C7_9  and  N2_10 
REMARK    5  A    between atoms: N2_10  and  C8_12 
REMARK    6  A    between atoms: C8_12  and  C9_13 
REMARK    7  A    between atoms: C9_13  and  C10_14 
REMARK    8  A    between atoms: C10_14  and  C11_15 
REMARK    9  A    between atoms: C11_15  and  C12_16 
REMARK   10  A    between atoms: C12_16  and  C13_17 
REMARK       I    between atoms: N3_20  and  C16_21 
REMARK   11  A    between atoms: C16_21  and  C17_23 
REMARK   12  A    between atoms: C17_23  and  N4_24 
REMARK   13  A    between atoms: C19_26  and  N5_27 
REMARK   14  A    between atoms: C26_34  and  C27_35 
REMARK       I    between atoms: C27_35  and  N6_37 
REMARK   15  A    between atoms: N6_37  and  C28_39 
ROOT
HETATM    1  C13 UNL     1      21.674  28.075  12.806  1.00  0.00    -0.012 C 
HETATM    2  C14 UNL     1      21.305  28.158  14.258  1.00  0.00     0.024 C 
HETATM    3  C15 UNL     1      20.467  29.419  14.533  1.00  0.00     0.126 C 
HETATM    4  N3  UNL     1      21.232  30.506  13.951  1.00  0.00    -0.351 N 
HETATM    5  C16 UNL     1      21.902  31.496  14.683  1.00  0.00     0.239 C 
HETATM    6  O2  UNL     1      22.545  32.386  14.059  1.00  0.00    -0.271 OA
HETATM    7  C33 UNL     1      21.263  30.502  12.479  1.00  0.00     0.126 C 
HETATM    8  C34 UNL     1      20.910  29.110  11.993  1.00  0.00     0.024 C 
ENDROOT
BRANCH   5   9
HETATM    9  C17 UNL     1      21.905  31.569  16.144  1.00  0.00     0.251 C 
BRANCH   9  10
HETATM   10  N4  UNL     1      21.217  32.704  16.679  1.00  0.00    -0.293 N 
HETATM   11  C18 UNL     1      19.937  33.071  16.347  1.00  0.00     0.141 A 
HETATM   12  C19 UNL     1      19.630  34.206  17.058  1.00  0.00     0.065 A 
HETATM   13  C32 UNL     1      20.756  34.475  17.796  1.00  0.00     0.138 A 
HETATM   14  N7  UNL     1      21.681  33.559  17.545  1.00  0.00    -0.307 N 
ATOM     15  H7  UNL     1      22.611  33.528  17.964  1.00  0.00     0.186 HD
BRANCH  12  16
HETATM   16  N5  UNL     1      18.393  34.975  17.041  1.00  0.00    -0.365 N 
HETATM   17  C20 UNL     1      17.675  34.750  15.834  1.00  0.00     0.124 C 
HETATM   18  C21 UNL     1      16.265  35.242  15.763  1.00  0.00     0.025 C 
HETATM   19  C22 UNL     1      15.590  35.537  17.035  1.00  0.00    -0.008 A 
HETATM   20  C23 UNL     1      14.715  34.631  17.789  1.00  0.00     0.010 A 
HETATM   21  C24 UNL     1      16.133  34.504  18.053  1.00  0.00    -0.008 A 
HETATM   22  C25 UNL     1      16.935  35.341  19.007  1.00  0.00     0.040 C 
HETATM   23  C26 UNL     1      18.185  35.754  18.206  1.00  0.00     0.177 C 
BRANCH  23  24
HETATM   24  C27 UNL     1      18.089  37.219  17.998  1.00  0.00     0.241 C 
HETATM   25  O3  UNL     1      17.315  37.811  18.814  1.00  0.00    -0.271 OA
HETATM   26  N6  UNL     1      18.741  37.979  17.033  1.00  0.00    -0.351 N 
ATOM     27  H6  UNL     1      19.367  37.528  16.367  1.00  0.00     0.163 HD
BRANCH  26  28
HETATM   28  C28 UNL     1      18.532  39.411  16.974  1.00  0.00     0.022 C 
HETATM   29  C29 UNL     1      17.067  39.749  16.743  1.00  0.00     0.037 C 
HETATM   30  C30 UNL     1      18.956  40.083  18.257  1.00  0.00     0.037 C 
HETATM   31  C31 UNL     1      19.316  40.048  15.846  1.00  0.00     0.037 C 
ENDBRANCH  26  28
ENDBRANCH  23  24
ENDBRANCH  12  16
ENDBRANCH   9  10
ENDBRANCH   5   9
BRANCH   1  32
HETATM   32  C12 UNL     1      23.124  28.284  12.519  1.00  0.00     0.005 C 
BRANCH  32  33
HETATM   33  C11 UNL     1      23.829  27.005  12.051  1.00  0.00     0.000 C 
BRANCH  33  34
HETATM   34  C10 UNL     1      24.380  27.185  10.675  1.00  0.00     0.002 C 
BRANCH  34  35
HETATM   35  C9  UNL     1      25.099  26.041  10.067  1.00  0.00     0.019 C 
BRANCH  35  36
HETATM   36  C8  UNL     1      24.413  25.298   8.974  1.00  0.00     0.114 C 
BRANCH  36  37
HETATM   37  N2  UNL     1      23.094  25.762   8.749  1.00  0.00    -0.415 N 
ATOM     38  H2  UNL     1      22.897  26.707   8.420  1.00  0.00     0.153 HD
BRANCH  37  39
HETATM   39  C7  UNL     1      22.062  24.816   9.014  1.00  0.00     0.192 C 
BRANCH  39  40
HETATM   40  C6  UNL     1      21.344  24.966  10.276  1.00  0.00     0.148 C 
HETATM   41  O1  UNL     1      21.755  24.411  11.306  1.00  0.00    -0.296 OA
BRANCH  40  42
HETATM   42  C5  UNL     1      20.121  25.781  10.338  1.00  0.00     0.060 C 
HETATM   43  C4  UNL     1      19.077  25.240  11.283  1.00  0.00     0.042 C 
HETATM   44  C3  UNL     1      17.973  26.294  11.359  1.00  0.00     0.273 C 
HETATM   45  N1  UNL     1      18.237  27.366  10.434  1.00  0.00     0.088 N 
HETATM   46  C36 UNL     1      18.403  26.935   9.072  1.00  0.00     0.273 C 
HETATM   47  C35 UNL     1      19.475  25.843   8.973  1.00  0.00     0.042 C 
BRANCH  45  48
HETATM   48  C2  UNL     1      17.225  28.377  10.534  1.00  0.00     0.268 C 
HETATM   49  C1  UNL     1      17.255  29.032  11.910  1.00  0.00     0.037 C 
ENDBRANCH  45  48
ENDBRANCH  40  42
ENDBRANCH  39  40
ENDBRANCH  37  39
ENDBRANCH  36  37
ENDBRANCH  35  36
ENDBRANCH  34  35
ENDBRANCH  33  34
ENDBRANCH  32  33
ENDBRANCH   1  32
TORSDOF 15
ENDMDL
MODEL 2
REMARK VINA RESULT: -9.061381776      1.826     11.572
REMARK  15 active torsions:
REMARK  status: ('A' for Active; 'I' for Inactive)
REMARK    1  A    between atoms: C2_2  and  N1_3 
REMARK    2  A    between atoms: C5_6  and  C6_7 
REMARK    3  A    between atoms: C6_7  and  C7_9 
REMARK    4  A    between atoms: C7_9  and  N2_10 
REMARK    5  A    between atoms: N2_10  and  C8_12 
REMARK    6  A    between atoms: C8_12  and  C9_13 
REMARK    7  A    between atoms: C9_13  and  C10_14 
REMARK    8  A    between atoms: C10_14  and  C11_15 
REMARK    9  A    between atoms: C11_15  and  C12_16 
REMARK   10  A    between atoms: C12_16  and  C13_17 
REMARK       I    between atoms: N3_20  and  C16_21 
REMARK   11  A    between atoms: C16_21  and  C17_23 
REMARK   12  A    between atoms: C17_23  and  N4_24 
REMARK   13  A    between atoms: C19_26  and  N5_27 
REMARK   14  A    between atoms: C26_34  and  C27_35 
REMARK       I    between atoms: C27_35  and  N6_37 
REMARK   15  A    between atoms: N6_37  and  C28_39 
ROOT
HETATM    1  C13 UNL     1      21.354  33.716  17.429  1.00  0.00    -0.012 C 
HETATM    2  C14 UNL     1      19.959  33.442  16.949  1.00  0.00     0.024 C 
HETATM    3  C15 UNL     1      19.877  32.056  16.286  1.00  0.00     0.126 C 
HETATM    4  N3  UNL     1      20.956  32.046  15.315  1.00  0.00    -0.351 N 
HETATM    5  C16 UNL     1      20.784  32.081  13.925  1.00  0.00     0.239 C 
HETATM    6  O2  UNL     1      21.806  32.079  13.184  1.00  0.00    -0.271 OA
HETATM    7  C33 UNL     1      22.302  31.996  15.910  1.00  0.00     0.126 C 
HETATM    8  C34 UNL     1      22.210  32.460  17.350  1.00  0.00     0.024 C 
ENDROOT
BRANCH   5   9
HETATM    9  C17 UNL     1      19.479  32.121  13.265  1.00  0.00     0.251 C 
BRANCH   9  10
HETATM   10  N4  UNL     1      18.928  30.832  12.971  1.00  0.00    -0.293 N 
HETATM   11  C18 UNL     1      19.548  29.872  12.213  1.00  0.00     0.141 A 
HETATM   12  C19 UNL     1      18.713  28.783  12.153  1.00  0.00     0.065 A 
HETATM   13  C32 UNL     1      17.611  29.143  12.889  1.00  0.00     0.138 A 
HETATM   14  N7  UNL     1      17.775  30.371  13.362  1.00  0.00    -0.307 N 
ATOM     15  H7  UNL     1      17.103  30.876  13.940  1.00  0.00     0.186 HD
BRANCH  12  16
HETATM   16  N5  UNL     1      18.925  27.519  11.461  1.00  0.00    -0.365 N 
HETATM   17  C20 UNL     1      18.239  26.461  12.119  1.00  0.00     0.124 C 
HETATM   18  C21 UNL     1      18.124  25.155  11.401  1.00  0.00     0.025 C 
HETATM   19  C22 UNL     1      18.343  25.165   9.947  1.00  0.00    -0.008 A 
HETATM   20  C23 UNL     1      17.309  25.264   8.909  1.00  0.00     0.010 A 
HETATM   21  C24 UNL     1      17.789  26.521   9.443  1.00  0.00    -0.008 A 
HETATM   22  C25 UNL     1      19.021  27.259   9.001  1.00  0.00     0.040 C 
HETATM   23  C26 UNL     1      19.746  27.625  10.311  1.00  0.00     0.177 C 
BRANCH  23  24
HETATM   24  C27 UNL     1      21.001  26.834  10.334  1.00  0.00     0.241 C 
HETATM   25  O3  UNL     1      21.479  26.651  11.497  1.00  0.00    -0.271 OA
HETATM   26  N6  UNL     1      21.678  26.295   9.247  1.00  0.00    -0.351 N 
ATOM     27  H6  UNL     1      21.315  26.429   8.303  1.00  0.00     0.163 HD
BRANCH  26  28
HETATM   28  C28 UNL     1      22.898  25.542   9.451  1.00  0.00     0.022 C 
HETATM   29  C29 UNL     1      23.389  24.919   8.153  1.00  0.00     0.037 C 
HETATM   30  C30 UNL     1      24.006  26.422   9.978  1.00  0.00     0.037 C 
HETATM   31  C31 UNL     1      22.705  24.412  10.439  1.00  0.00     0.037 C 
ENDBRANCH  26  28
ENDBRANCH  23  24
ENDBRANCH  12  16
ENDBRANCH   9  10
ENDBRANCH   5   9
BRANCH   1  32
HETATM   32  C12 UNL     1      22.076  34.780  16.671  1.00  0.00     0.005 C 
BRANCH  32  33
HETATM   33  C11 UNL     1      22.188  36.096  17.452  1.00  0.00     0.000 C 
BRANCH  33  34
HETATM   34  C10 UNL     1      21.919  35.868  18.902  1.00  0.00     0.002 C 
BRANCH  34  35
HETATM   35  C9  UNL     1      20.685  36.456  19.474  1.00  0.00     0.019 C 
BRANCH  35  36
HETATM   36  C8  UNL     1      19.887  37.363  18.604  1.00  0.00     0.114 C 
BRANCH  36  37
HETATM   37  N2  UNL     1      18.925  38.104  19.332  1.00  0.00    -0.415 N 
ATOM     38  H2  UNL     1      19.055  38.351  20.313  1.00  0.00     0.153 HD
BRANCH  37  39
HETATM   39  C7  UNL     1      17.763  38.480  18.598  1.00  0.00     0.192 C 
BRANCH  39  40
HETATM   40  C6  UNL     1      16.532  37.759  18.904  1.00  0.00     0.148 C 
HETATM   41  O1  UNL     1      15.722  38.215  19.725  1.00  0.00    -0.296 OA
BRANCH  40  42
HETATM   42  C5  UNL     1      16.238  36.481  18.238  1.00  0.00     0.060 C 
HETATM   43  C4  UNL     1      16.689  36.427  16.800  1.00  0.00     0.042 C 
HETATM   44  C3  UNL     1      16.475  34.989  16.331  1.00  0.00     0.273 C 
HETATM   45  N1  UNL     1      15.819  34.218  17.357  1.00  0.00     0.088 N 
HETATM   46  C36 UNL     1      14.568  34.776  17.797  1.00  0.00     0.273 C 
HETATM   47  C35 UNL     1      14.746  36.236  18.231  1.00  0.00     0.042 C 
BRANCH  45  48
HETATM   48  C2  UNL     1      15.656  32.857  16.937  1.00  0.00     0.268 C 
HETATM   49  C1  UNL     1      16.215  32.659  15.533  1.00  0.00     0.037 C 
ENDBRANCH  45  48
ENDBRANCH  40  42
ENDBRANCH  39  40
ENDBRANCH  37  39
ENDBRANCH  36  37
ENDBRANCH  35  36
ENDBRANCH  34  35
ENDBRANCH  33  34
ENDBRANCH  32  33
ENDBRANCH   1  32
TORSDOF 15
ENDMDL
MODEL 3
REMARK VINA RESULT: -9.046420515      2.087     11.318
REMARK  15 active torsions:
REMARK  status: ('A' for Active; 'I' for Inactive)
REMARK    1  A    between atoms: C2_2  and  N1_3 
REMARK    2  A    between atoms: C5_6  and  C6_7 
REMARK    3  A    between atoms: C6_7  and  C7_9 
REMARK    4  A    between atoms: C7_9  and  N2_10 
REMARK    5  A    between atoms: N2_10  and  C8_12 
REMARK    6  A    between atoms: C8_12  and  C9_13 
REMARK    7  A    between atoms: C9_13  and  C10_14 
REMARK    8  A    between atoms: C10_14  and  C11_15 
REMARK    9  A    between atoms: C11_15  and  C12_16 
REMARK   10  A    between atoms: C12_16  and  C13_17 
REMARK       I    between atoms: N3_20  and  C16_21 
REMARK   11  A    between atoms: C16_21  and  C17_23 
REMARK   12  A    between atoms: C17_23  and  N4_24 
REMARK   13  A    between atoms: C19_26  and  N5_27 
REMARK   14  A    between atoms: C26_34  and  C27_35 
REMARK       I    between atoms: C27_35  and  N6_37 
REMARK   15  A    between atoms: N6_37  and  C28_39 
ROOT
HETATM    1  C13 UNL     1      16.405  35.282  17.332  1.00  0.00    -0.012 C 
HETATM    2  C14 UNL     1      16.895  35.262  15.913  1.00  0.00     0.024 C 
HETATM    3  C15 UNL     1      16.088  34.255  15.076  1.00  0.00     0.126 C 
HETATM    4  N3  UNL     1      16.131  33.021  15.838  1.00  0.00    -0.351 N 
HETATM    5  C16 UNL     1      16.847  31.874  15.469  1.00  0.00     0.239 C 
HETATM    6  O2  UNL     1      16.813  30.864  16.225  1.00  0.00    -0.271 OA
HETATM    7  C33 UNL     1      15.341  33.052  17.081  1.00  0.00     0.126 C 
HETATM    8  C34 UNL     1      15.107  34.499  17.467  1.00  0.00     0.024 C 
ENDROOT
BRANCH   5   9
HETATM    9  C17 UNL     1      17.642  31.769  14.245  1.00  0.00     0.251 C 
BRANCH   9  10
HETATM   10  N4  UNL     1      18.222  30.478  14.029  1.00  0.00    -0.293 N 
HETATM   11  C18 UNL     1      18.062  29.729  12.891  1.00  0.00     0.141 A 
HETATM   12  C19 UNL     1      18.762  28.559  13.059  1.00  0.00     0.065 A 
HETATM   13  C32 UNL     1      19.320  28.659  14.309  1.00  0.00     0.138 A 
HETATM   14  N7  UNL     1      18.977  29.816  14.858  1.00  0.00    -0.307 N 
ATOM     15  H7  UNL     1      19.260  30.138  15.784  1.00  0.00     0.186 HD
BRANCH  12  16
HETATM   16  N5  UNL     1      18.890  27.443  12.132  1.00  0.00    -0.365 N 
HETATM   17  C20 UNL     1      18.154  26.316  12.593  1.00  0.00     0.124 C 
HETATM   18  C21 UNL     1      17.953  25.181  11.641  1.00  0.00     0.025 C 
HETATM   19  C22 UNL     1      18.150  25.459  10.211  1.00  0.00    -0.008 A 
HETATM   20  C23 UNL     1      17.108  25.812   9.239  1.00  0.00     0.010 A 
HETATM   21  C24 UNL     1      17.669  26.915   9.991  1.00  0.00    -0.008 A 
HETATM   22  C25 UNL     1      18.934  27.657   9.667  1.00  0.00     0.040 C 
HETATM   23  C26 UNL     1      19.699  27.723  11.003  1.00  0.00     0.177 C 
BRANCH  23  24
HETATM   24  C27 UNL     1      20.906  26.877  10.842  1.00  0.00     0.241 C 
HETATM   25  O3  UNL     1      21.388  26.444  11.935  1.00  0.00    -0.271 OA
HETATM   26  N6  UNL     1      21.536  26.524   9.654  1.00  0.00    -0.351 N 
ATOM     27  H6  UNL     1      21.169  26.859   8.763  1.00  0.00     0.163 HD
BRANCH  26  28
HETATM   28  C28 UNL     1      22.714  25.681   9.679  1.00  0.00     0.022 C 
HETATM   29  C29 UNL     1      23.174  25.331   8.272  1.00  0.00     0.037 C 
HETATM   30  C30 UNL     1      23.866  26.365  10.376  1.00  0.00     0.037 C 
HETATM   31  C31 UNL     1      22.456  24.375  10.399  1.00  0.00     0.037 C 
ENDBRANCH  26  28
ENDBRANCH  23  24
ENDBRANCH  12  16
ENDBRANCH   9  10
ENDBRANCH   5   9
BRANCH   1  32
HETATM   32  C12 UNL     1      17.359  34.712  18.328  1.00  0.00     0.005 C 
BRANCH  32  33
HETATM   33  C11 UNL     1      18.415  35.726  18.789  1.00  0.00     0.000 C 
BRANCH  33  34
HETATM   34  C10 UNL     1      17.902  37.119  18.638  1.00  0.00     0.002 C 
BRANCH  34  35
HETATM   35  C9  UNL     1      18.883  38.226  18.729  1.00  0.00     0.019 C 
BRANCH  35  36
HETATM   36  C8  UNL     1      19.607  38.610  17.486  1.00  0.00     0.114 C 
BRANCH  36  37
HETATM   37  N2  UNL     1      21.001  38.382  17.580  1.00  0.00    -0.415 N 
ATOM     38  H2  UNL     1      21.611  38.962  18.157  1.00  0.00     0.153 HD
BRANCH  37  39
HETATM   39  C7  UNL     1      21.492  37.287  16.812  1.00  0.00     0.192 C 
BRANCH  39  40
HETATM   40  C6  UNL     1      21.844  36.076  17.547  1.00  0.00     0.148 C 
HETATM   41  O1  UNL     1      22.108  36.127  18.757  1.00  0.00    -0.296 OA
BRANCH  40  42
HETATM   42  C5  UNL     1      21.887  34.778  16.856  1.00  0.00     0.060 C 
HETATM   43  C4  UNL     1      20.616  34.441  16.116  1.00  0.00     0.042 C 
HETATM   44  C3  UNL     1      20.902  33.169  15.319  1.00  0.00     0.273 C 
HETATM   45  N1  UNL     1      22.216  32.666  15.630  1.00  0.00     0.088 N 
HETATM   46  C36 UNL     1      22.431  32.419  17.031  1.00  0.00     0.273 C 
HETATM   47  C35 UNL     1      22.107  33.669  17.859  1.00  0.00     0.042 C 
BRANCH  45  48
HETATM   48  C2  UNL     1      22.503  31.496  14.852  1.00  0.00     0.268 C 
HETATM   49  C1  UNL     1      21.739  31.528  13.534  1.00  0.00     0.037 C 
ENDBRANCH  45  48
ENDBRANCH  40  42
ENDBRANCH  39  40
ENDBRANCH  37  39
ENDBRANCH  36  37
ENDBRANCH  35  36
ENDBRANCH  34  35
ENDBRANCH  33  34
ENDBRANCH  32  33
ENDBRANCH   1  32
TORSDOF 15
ENDMDL
MODEL 4
REMARK VINA RESULT: -9.011950468      2.189     11.874
REMARK  15 active torsions:
REMARK  status: ('A' for Active; 'I' for Inactive)
REMARK    1  A    between atoms: C2_2  and  N1_3 
REMARK    2  A    between atoms: C5_6  and  C6_7 
REMARK    3  A    between atoms: C6_7  and  C7_9 
REMARK    4  A    between atoms: C7_9  and  N2_10 
REMARK    5  A    between atoms: N2_10  and  C8_12 
REMARK    6  A    between atoms: C8_12  and  C9_13 
REMARK    7  A    between atoms: C9_13  and  C10_14 
REMARK    8  A    between atoms: C10_14  and  C11_15 
REMARK    9  A    between atoms: C11_15  and  C12_16 
REMARK   10  A    between atoms: C12_16  and  C13_17 
REMARK       I    between atoms: N3_20  and  C16_21 
REMARK   11  A    between atoms: C16_21  and  C17_23 
REMARK   12  A    between atoms: C17_23  and  N4_24 
REMARK   13  A    between atoms: C19_26  and  N5_27 
REMARK   14  A    between atoms: C26_34  and  C27_35 
REMARK       I    between atoms: C27_35  and  N6_37 
REMARK   15  A    between atoms: N6_37  and  C28_39 
ROOT
HETATM    1  C13 UNL     1      21.528  32.221  16.073  1.00  0.00    -0.012 C 
HETATM    2  C14 UNL     1      20.335  31.314  16.166  1.00  0.00     0.024 C 
HETATM    3  C15 UNL     1      20.470  30.140  15.179  1.00  0.00     0.126 C 
HETATM    4  N3  UNL     1      20.768  30.762  13.902  1.00  0.00    -0.351 N 
HETATM    5  C16 UNL     1      19.887  30.819  12.814  1.00  0.00     0.239 C 
HETATM    6  O2  UNL     1      20.260  31.399  11.757  1.00  0.00    -0.271 OA
HETATM    7  C33 UNL     1      22.112  31.357  13.819  1.00  0.00     0.126 C 
HETATM    8  C34 UNL     1      22.624  31.589  15.227  1.00  0.00     0.024 C 
ENDROOT
BRANCH   5   9
HETATM    9  C17 UNL     1      18.542  30.241  12.822  1.00  0.00     0.251 C 
BRANCH   9  10
HETATM   10  N4  UNL     1      18.480  28.890  12.354  1.00  0.00    -0.293 N 
HETATM   11  C18 UNL     1      18.688  28.502  11.055  1.00  0.00     0.141 A 
HETATM   12  C19 UNL     1      18.540  27.137  10.997  1.00  0.00     0.065 A 
HETATM   13  C32 UNL     1      18.244  26.761  12.284  1.00  0.00     0.138 A 
HETATM   14  N7  UNL     1      18.216  27.832  13.065  1.00  0.00    -0.307 N 
ATOM     15  H7  UNL     1      18.019  27.828  14.066  1.00  0.00     0.186 HD
BRANCH  12  16
HETATM   16  N5  UNL     1      18.658  26.264   9.838  1.00  0.00    -0.365 N 
HETATM   17  C20 UNL     1      17.653  25.258   9.858  1.00  0.00     0.124 C 
HETATM   18  C21 UNL     1      17.457  24.448   8.617  1.00  0.00     0.025 C 
HETATM   19  C22 UNL     1      17.995  24.994   7.363  1.00  0.00    -0.008 A 
HETATM   20  C23 UNL     1      17.260  25.787   6.370  1.00  0.00     0.010 A 
HETATM   21  C24 UNL     1      17.838  26.532   7.468  1.00  0.00    -0.008 A 
HETATM   22  C25 UNL     1      19.255  27.023   7.558  1.00  0.00     0.040 C 
HETATM   23  C26 UNL     1      19.722  26.607   8.967  1.00  0.00     0.177 C 
BRANCH  23  24
HETATM   24  C27 UNL     1      20.765  25.570   8.777  1.00  0.00     0.241 C 
HETATM   25  O3  UNL     1      20.784  24.678   9.681  1.00  0.00    -0.271 OA
HETATM   26  N6  UNL     1      21.690  25.484   7.742  1.00  0.00    -0.351 N 
ATOM     27  H6  UNL     1      21.696  26.188   7.004  1.00  0.00     0.163 HD
BRANCH  26  28
HETATM   28  C28 UNL     1      22.645  24.395   7.709  1.00  0.00     0.022 C 
HETATM   29  C29 UNL     1      23.356  24.241   9.046  1.00  0.00     0.037 C 
HETATM   30  C30 UNL     1      21.970  23.080   7.402  1.00  0.00     0.037 C 
HETATM   31  C31 UNL     1      23.715  24.615   6.661  1.00  0.00     0.037 C 
ENDBRANCH  26  28
ENDBRANCH  23  24
ENDBRANCH  12  16
ENDBRANCH   9  10
ENDBRANCH   5   9
BRANCH   1  32
HETATM   32  C12 UNL     1      21.246  33.562  15.483  1.00  0.00     0.005 C 
BRANCH  32  33
HETATM   33  C11 UNL     1      21.134  34.667  16.541  1.00  0.00     0.000 C 
BRANCH  33  34
HETATM   34  C10 UNL     1      21.912  34.302  17.762  1.00  0.00     0.002 C 
BRANCH  34  35
HETATM   35  C9  UNL     1      21.424  34.812  19.065  1.00  0.00     0.019 C 
BRANCH  35  36
HETATM   36  C8  UNL     1      21.517  36.277  19.311  1.00  0.00     0.114 C 
BRANCH  36  37
HETATM   37  N2  UNL     1      20.265  36.852  19.635  1.00  0.00    -0.415 N 
ATOM     38  H2  UNL     1      19.878  36.820  20.578  1.00  0.00     0.153 HD
BRANCH  37  39
HETATM   39  C7  UNL     1      19.584  37.479  18.551  1.00  0.00     0.192 C 
BRANCH  39  40
HETATM   40  C6  UNL     1      18.185  37.111  18.355  1.00  0.00     0.148 C 
HETATM   41  O1  UNL     1      17.282  37.734  18.933  1.00  0.00    -0.296 OA
BRANCH  40  42
HETATM   42  C5  UNL     1      17.833  35.994  17.465  1.00  0.00     0.060 C 
HETATM   43  C4  UNL     1      16.526  36.188  16.736  1.00  0.00     0.042 C 
HETATM   44  C3  UNL     1      16.413  35.039  15.735  1.00  0.00     0.273 C 
HETATM   45  N1  UNL     1      17.506  34.115  15.905  1.00  0.00     0.088 N 
HETATM   46  C36 UNL     1      17.624  33.588  17.238  1.00  0.00     0.273 C 
HETATM   47  C35 UNL     1      17.693  34.722  18.268  1.00  0.00     0.042 C 
BRANCH  45  48
HETATM   48  C2  UNL     1      17.426  33.059  14.938  1.00  0.00     0.268 C 
HETATM   49  C1  UNL     1      16.548  31.925  15.454  1.00  0.00     0.037 C 
ENDBRANCH  45  48
ENDBRANCH  40  42
ENDBRANCH  39  40
ENDBRANCH  37  39
ENDBRANCH  36  37
ENDBRANCH  35  36
ENDBRANCH  34  35
ENDBRANCH  33  34
ENDBRANCH  32  33
ENDBRANCH   1  32
TORSDOF 15
ENDMDL
MODEL 5
REMARK VINA RESULT: -8.976585100      2.186     11.970
REMARK  15 active torsions:
REMARK  status: ('A' for Active; 'I' for Inactive)
REMARK    1  A    between atoms: C2_2  and  N1_3 
REMARK    2  A    between atoms: C5_6  and  C6_7 
REMARK    3  A    between atoms: C6_7  and  C7_9 
REMARK    4  A    between atoms: C7_9  and  N2_10 
REMARK    5  A    between atoms: N2_10  and  C8_12 
REMARK    6  A    between atoms: C8_12  and  C9_13 
REMARK    7  A    between atoms: C9_13  and  C10_14 
REMARK    8  A    between atoms: C10_14  and  C11_15 
REMARK    9  A    between atoms: C11_15  and  C12_16 
REMARK   10  A    between atoms: C12_16  and  C13_17 
REMARK       I    between atoms: N3_20  and  C16_21 
REMARK   11  A    between atoms: C16_21  and  C17_23 
REMARK   12  A    between atoms: C17_23  and  N4_24 
REMARK   13  A    between atoms: C19_26  and  N5_27 
REMARK   14  A    between atoms: C26_34  and  C27_35 
REMARK       I    between atoms: C27_35  and  N6_37 
REMARK   15  A    between atoms: N6_37  and  C28_39 
ROOT
HETATM    1  C13 UNL     1      21.415  31.739  16.143  1.00  0.00    -0.012 C 
HETATM    2  C14 UNL     1      20.323  30.711  16.214  1.00  0.00     0.024 C 
HETATM    3  C15 UNL     1      20.472  29.684  15.078  1.00  0.00     0.126 C 
HETATM    4  N3  UNL     1      20.593  30.481  13.871  1.00  0.00    -0.351 N 
HETATM    5  C16 UNL     1      19.613  30.579  12.874  1.00  0.00     0.239 C 
HETATM    6  O2  UNL     1      19.833  31.317  11.874  1.00  0.00    -0.271 OA
HETATM    7  C33 UNL     1      21.865  31.215  13.758  1.00  0.00     0.126 C 
HETATM    8  C34 UNL     1      22.481  31.327  15.138  1.00  0.00     0.024 C 
ENDROOT
BRANCH   5   9
HETATM    9  C17 UNL     1      18.334  29.871  12.915  1.00  0.00     0.251 C 
BRANCH   9  10
HETATM   10  N4  UNL     1      18.374  28.550  12.366  1.00  0.00    -0.293 N 
HETATM   11  C18 UNL     1      18.539  28.260  11.036  1.00  0.00     0.141 A 
HETATM   12  C19 UNL     1      18.521  26.894  10.899  1.00  0.00     0.065 A 
HETATM   13  C32 UNL     1      18.341  26.415  12.173  1.00  0.00     0.138 A 
HETATM   14  N7  UNL     1      18.257  27.431  13.022  1.00  0.00    -0.307 N 
ATOM     15  H7  UNL     1      18.123  27.349  14.030  1.00  0.00     0.186 HD
BRANCH  12  16
HETATM   16  N5  UNL     1      18.652  26.106   9.681  1.00  0.00    -0.365 N 
HETATM   17  C20 UNL     1      17.637  25.112   9.611  1.00  0.00     0.124 C 
HETATM   18  C21 UNL     1      17.456  24.396   8.311  1.00  0.00     0.025 C 
HETATM   19  C22 UNL     1      18.023  25.026   7.110  1.00  0.00    -0.008 A 
HETATM   20  C23 UNL     1      17.313  25.896   6.164  1.00  0.00     0.010 A 
HETATM   21  C24 UNL     1      17.878  26.553   7.324  1.00  0.00    -0.008 A 
HETATM   22  C25 UNL     1      19.297  27.022   7.474  1.00  0.00     0.040 C 
HETATM   23  C26 UNL     1      19.735  26.499   8.857  1.00  0.00     0.177 C 
BRANCH  23  24
HETATM   24  C27 UNL     1      20.772  25.468   8.610  1.00  0.00     0.241 C 
HETATM   25  O3  UNL     1      20.790  24.533   9.470  1.00  0.00    -0.271 OA
HETATM   26  N6  UNL     1      21.690  25.427   7.567  1.00  0.00    -0.351 N 
ATOM     27  H6  UNL     1      21.695  26.167   6.864  1.00  0.00     0.163 HD
BRANCH  26  28
HETATM   28  C28 UNL     1      22.639  24.337   7.476  1.00  0.00     0.022 C 
HETATM   29  C29 UNL     1      23.616  24.547   6.329  1.00  0.00     0.037 C 
HETATM   30  C30 UNL     1      23.449  24.205   8.743  1.00  0.00     0.037 C 
HETATM   31  C31 UNL     1      21.951  23.010   7.235  1.00  0.00     0.037 C 
ENDBRANCH  26  28
ENDBRANCH  23  24
ENDBRANCH  12  16
ENDBRANCH   9  10
ENDBRANCH   5   9
BRANCH   1  32
HETATM   32  C12 UNL     1      20.959  33.106  15.754  1.00  0.00     0.005 C 
BRANCH  32  33
HETATM   33  C11 UNL     1      19.470  33.341  16.039  1.00  0.00     0.000 C 
BRANCH  33  34
HETATM   34  C10 UNL     1      18.709  33.477  14.763  1.00  0.00     0.002 C 
BRANCH  34  35
HETATM   35  C9  UNL     1      17.287  33.061  14.762  1.00  0.00     0.019 C 
BRANCH  35  36
HETATM   36  C8  UNL     1      16.855  32.083  15.798  1.00  0.00     0.114 C 
BRANCH  36  37
HETATM   37  N2  UNL     1      15.713  32.520  16.512  1.00  0.00    -0.415 N 
ATOM     38  H2  UNL     1      15.034  31.869  16.906  1.00  0.00     0.153 HD
BRANCH  37  39
HETATM   39  C7  UNL     1      15.581  33.933  16.643  1.00  0.00     0.192 C 
BRANCH  39  40
HETATM   40  C6  UNL     1      16.004  34.517  17.912  1.00  0.00     0.148 C 
HETATM   41  O1  UNL     1      15.373  34.285  18.954  1.00  0.00    -0.296 OA
BRANCH  40  42
HETATM   42  C5  UNL     1      17.189  35.387  17.967  1.00  0.00     0.060 C 
HETATM   43  C4  UNL     1      18.240  34.921  18.943  1.00  0.00     0.042 C 
HETATM   44  C3  UNL     1      19.455  35.824  18.736  1.00  0.00     0.273 C 
HETATM   45  N1  UNL     1      19.152  36.865  17.787  1.00  0.00     0.088 N 
HETATM   46  C36 UNL     1      18.009  37.663  18.142  1.00  0.00     0.273 C 
HETATM   47  C35 UNL     1      16.785  36.777  18.401  1.00  0.00     0.042 C 
BRANCH  45  48
HETATM   48  C2  UNL     1      20.304  37.688  17.558  1.00  0.00     0.268 C 
HETATM   49  C1  UNL     1      21.465  36.850  17.037  1.00  0.00     0.037 C 
ENDBRANCH  45  48
ENDBRANCH  40  42
ENDBRANCH  39  40
ENDBRANCH  37  39
ENDBRANCH  36  37
ENDBRANCH  35  36
ENDBRANCH  34  35
ENDBRANCH  33  34
ENDBRANCH  32  33
ENDBRANCH   1  32
TORSDOF 15
ENDMDL
