MODEL 1
REMARK VINA RESULT: -9.107016131      0.000      0.000
REMARK  19 active torsions:
REMARK  status: ('A' for Active; 'I' for Inactive)
REMARK    1  A    between atoms: C1_2  and  C2_3 
REMARK       I    between atoms: C1_2  and  N3_43 
REMARK    2  A    between atoms: C2_3  and  C3_4 
REMARK    3  A    between atoms: C3_4  and  C4_5 
REMARK    4  A    between atoms: C4_5  and  C5_6 
REMARK    5  A    between atoms: C5_6  and  C6_7 
REMARK    6  A    between atoms: C6_7  and  C7_8 
REMARK    7  A    between atoms: C7_8  and  C8_9 
REMARK    8  A    between atoms: C8_9  and  C9_10 
REMARK    9  A    between atoms: C9_10  and  C10_11 
REMARK   10  A    between atoms: C10_11  and  C11_12 
REMARK   11  A    between atoms: C11_12  and  O2_13 
REMARK   12  A    between atoms: N1_16  and  C13_17 
REMARK   13  A    between atoms: C13_17  and  O3_18 
REMARK   14  A    between atoms: C13_17  and  C14_20 
REMARK   15  A    between atoms: C24_32  and  C25_33 
REMARK   16  A    between atoms: C25_33  and  O6_34 
REMARK   17  A    between atoms: C25_33  and  N2_36 
REMARK   18  A    between atoms: N3_43  and  C31_45 
REMARK   19  A    between atoms: C31_45  and  C32_46 
ROOT
HETATM    1  C11 UNL     1      18.059  35.248  17.919  1.00  0.00     0.089 C 
HETATM    2  C12 UNL     1      18.621  34.528  16.681  1.00  0.00     0.164 C 
HETATM    3  N1  UNL     1      17.673  33.396  16.377  1.00  0.00    -0.354 N 
HETATM    4  C21 UNL     1      16.308  33.840  16.398  1.00  0.00     0.087 C 
HETATM    5  C22 UNL     1      15.611  33.759  17.711  1.00  0.00     0.027 C 
HETATM    6  C23 UNL     1      15.692  35.157  18.362  1.00  0.00     0.023 C 
HETATM    7  C24 UNL     1      16.731  35.850  17.574  1.00  0.00     0.059 C 
HETATM    8  C30 UNL     1      16.327  35.356  16.150  1.00  0.00     0.046 C 
ENDROOT
BRANCH   1   9
HETATM    9  C10 UNL     1      19.103  36.099  18.507  1.00  0.00     0.041 C 
BRANCH   9  10
HETATM   10  C9  UNL     1      20.479  36.047  17.944  1.00  0.00     0.003 C 
BRANCH  10  11
HETATM   11  C8  UNL     1      21.548  35.477  18.814  1.00  0.00     0.000 C 
BRANCH  11  12
HETATM   12  C7  UNL     1      22.004  34.124  18.223  1.00  0.00     0.000 C 
BRANCH  12  13
HETATM   13  C6  UNL     1      22.321  34.294  16.776  1.00  0.00     0.000 C 
BRANCH  13  14
HETATM   14  C5  UNL     1      21.947  33.149  15.896  1.00  0.00     0.000 C 
BRANCH  14  15
HETATM   15  C4  UNL     1      23.101  32.541  15.146  1.00  0.00     0.000 C 
BRANCH  15  16
HETATM   16  C3  UNL     1      22.744  31.297  14.413  1.00  0.00     0.009 C 
BRANCH  16  17
HETATM   17  C2  UNL     1      21.955  30.284  15.155  1.00  0.00     0.103 C 
BRANCH  17  18
HETATM   18  C1  UNL     1      21.658  29.057  14.394  1.00  0.00     0.217 C 
HETATM   19  O1  UNL     1      21.012  28.136  14.932  1.00  0.00    -0.274 OA
HETATM   20  N3  UNL     1      22.096  28.910  13.062  1.00  0.00    -0.359 N 
ATOM     21  H3  UNL     1      22.625  29.658  12.612  1.00  0.00     0.162 HD
BRANCH  20  22
HETATM   22  C31 UNL     1      21.795  27.706  12.342  1.00  0.00     0.154 C 
BRANCH  22  23
HETATM   23  C32 UNL     1      22.912  27.199  11.478  1.00  0.00     0.139 C 
HETATM   24  C33 UNL     1      22.861  25.706  11.320  1.00  0.00     0.035 C 
HETATM   25  C34 UNL     1      24.330  25.372  11.035  1.00  0.00     0.029 C 
HETATM   26  C35 UNL     1      25.050  26.549  11.618  1.00  0.00     0.168 C 
HETATM   27  O8  UNL     1      24.108  27.407  12.143  1.00  0.00    -0.384 OA
ENDBRANCH  22  23
ENDBRANCH  20  22
ENDBRANCH  17  18
ENDBRANCH  16  17
ENDBRANCH  15  16
ENDBRANCH  14  15
ENDBRANCH  13  14
ENDBRANCH  12  13
ENDBRANCH  11  12
ENDBRANCH  10  11
ENDBRANCH   9  10
ENDBRANCH   1   9
BRANCH   1  28
HETATM   28  O2  UNL     1      17.888  34.166  18.836  1.00  0.00    -0.387 OA
ATOM     29  H2  UNL     1      17.936  33.376  18.308  1.00  0.00     0.210 HD
ENDBRANCH   1  28
BRANCH   7  30
HETATM   30  C25 UNL     1      16.694  37.301  17.441  1.00  0.00     0.125 C 
BRANCH  30  31
HETATM   31  O6  UNL     1      17.179  37.718  16.295  1.00  0.00    -0.349 OA
ATOM     32  H6  UNL     1      16.501  37.968  15.679  1.00  0.00     0.219 HD
ENDBRANCH  30  31
BRANCH  30  33
HETATM   33  N2  UNL     1      16.261  38.329  18.246  1.00  0.00    -0.361 N 
HETATM   34  C26 UNL     1      16.302  39.708  17.722  1.00  0.00     0.151 C 
HETATM   35  C27 UNL     1      17.006  40.539  18.750  1.00  0.00     0.187 C 
HETATM   36  O7  UNL     1      16.384  40.542  19.974  1.00  0.00    -0.388 OA
HETATM   37  C28 UNL     1      15.371  39.627  20.097  1.00  0.00     0.187 C 
HETATM   38  C29 UNL     1      15.753  38.240  19.573  1.00  0.00     0.151 C 
ENDBRANCH  30  33
ENDBRANCH   7  30
BRANCH   3  39
HETATM   39  C13 UNL     1      18.213  32.150  16.113  1.00  0.00     0.149 C 
BRANCH  39  40
HETATM   40  O3  UNL     1      18.700  31.562  17.181  1.00  0.00    -0.346 OA
ATOM     41  H3  UNL     1      19.084  30.713  16.998  1.00  0.00     0.219 HD
ENDBRANCH  39  40
BRANCH  39  42
HETATM   42  C14 UNL     1      18.348  31.375  14.914  1.00  0.00     0.017 A 
HETATM   43  C15 UNL     1      19.072  31.923  13.822  1.00  0.00     0.018 A 
HETATM   44  C16 UNL     1      19.264  31.261  12.649  1.00  0.00     0.041 A 
HETATM   45  C17 UNL     1      18.743  29.999  12.484  1.00  0.00     0.105 A 
HETATM   46  C18 UNL     1      18.040  29.430  13.505  1.00  0.00     0.105 A 
HETATM   47  O5  UNL     1      18.787  29.119  11.417  1.00  0.00    -0.323 OA
HETATM   48  C19 UNL     1      17.859  30.120  14.684  1.00  0.00     0.055 A 
HETATM   49  O4  UNL     1      17.619  28.150  13.090  1.00  0.00    -0.323 OA
HETATM   50  C20 UNL     1      17.911  28.056  11.698  1.00  0.00     0.352 C 
ENDBRANCH  39  42
ENDBRANCH   3  39
TORSDOF 19
ENDMDL
MODEL 2
REMARK VINA RESULT: -9.088292161      1.578      2.213
REMARK  19 active torsions:
REMARK  status: ('A' for Active; 'I' for Inactive)
REMARK    1  A    between atoms: C1_2  and  C2_3 
REMARK       I    between atoms: C1_2  and  N3_43 
REMARK    2  A    between atoms: C2_3  and  C3_4 
REMARK    3  A    between atoms: C3_4  and  C4_5 
REMARK    4  A    between atoms: C4_5  and  C5_6 
REMARK    5  A    between atoms: C5_6  and  C6_7 
REMARK    6  A    between atoms: C6_7  and  C7_8 
REMARK    7  A    between atoms: C7_8  and  C8_9 
REMARK    8  A    between atoms: C8_9  and  C9_10 
REMARK    9  A    between atoms: C9_10  and  C10_11 
REMARK   10  A    between atoms: C10_11  and  C11_12 
REMARK   11  A    between atoms: C11_12  and  O2_13 
REMARK   12  A    between atoms: N1_16  and  C13_17 
REMARK   13  A    between atoms: C13_17  and  O3_18 
REMARK   14  A    between atoms: C13_17  and  C14_20 
REMARK   15  A    between atoms: C24_32  and  C25_33 
REMARK   16  A    between atoms: C25_33  and  O6_34 
REMARK   17  A    between atoms: C25_33  and  N2_36 
REMARK   18  A    between atoms: N3_43  and  C31_45 
REMARK   19  A    between atoms: C31_45  and  C32_46 
ROOT
HETATM    1  C11 UNL     1      17.976  33.675  16.800  1.00  0.00     0.089 C 
HETATM    2  C12 UNL     1      18.442  32.910  15.550  1.00  0.00     0.164 C 
HETATM    3  N1  UNL     1      17.520  31.726  15.403  1.00  0.00    -0.354 N 
HETATM    4  C21 UNL     1      16.146  32.117  15.542  1.00  0.00     0.087 C 
HETATM    5  C22 UNL     1      15.588  32.082  16.922  1.00  0.00     0.027 C 
HETATM    6  C23 UNL     1      15.671  33.516  17.488  1.00  0.00     0.023 C 
HETATM    7  C24 UNL     1      16.594  34.204  16.563  1.00  0.00     0.059 C 
HETATM    8  C30 UNL     1      16.072  33.616  15.215  1.00  0.00     0.046 C 
ENDROOT
BRANCH   1   9
HETATM    9  C10 UNL     1      19.035  34.598  17.234  1.00  0.00     0.041 C 
BRANCH   9  10
HETATM   10  C9  UNL     1      20.375  34.510  16.594  1.00  0.00     0.003 C 
BRANCH  10  11
HETATM   11  C8  UNL     1      21.482  33.937  17.414  1.00  0.00     0.000 C 
BRANCH  11  12
HETATM   12  C7  UNL     1      22.054  32.700  16.685  1.00  0.00     0.000 C 
BRANCH  12  13
HETATM   13  C6  UNL     1      22.250  33.020  15.241  1.00  0.00     0.000 C 
BRANCH  13  14
HETATM   14  C5  UNL     1      21.771  31.984  14.281  1.00  0.00     0.000 C 
BRANCH  14  15
HETATM   15  C4  UNL     1      22.469  30.656  14.400  1.00  0.00     0.000 C 
BRANCH  15  16
HETATM   16  C3  UNL     1      21.668  29.516  13.882  1.00  0.00     0.009 C 
BRANCH  16  17
HETATM   17  C2  UNL     1      21.321  29.539  12.441  1.00  0.00     0.103 C 
BRANCH  17  18
HETATM   18  C1  UNL     1      21.366  28.224  11.776  1.00  0.00     0.217 C 
HETATM   19  O1  UNL     1      20.889  28.092  10.631  1.00  0.00    -0.274 OA
HETATM   20  N3  UNL     1      21.944  27.110  12.419  1.00  0.00    -0.359 N 
ATOM     21  H3  UNL     1      22.338  27.206  13.355  1.00  0.00     0.162 HD
BRANCH  20  22
HETATM   22  C31 UNL     1      21.975  25.840  11.751  1.00  0.00     0.154 C 
BRANCH  22  23
HETATM   23  C32 UNL     1      23.303  25.482  11.150  1.00  0.00     0.139 C 
HETATM   24  C33 UNL     1      24.422  26.286  11.750  1.00  0.00     0.035 C 
HETATM   25  C34 UNL     1      25.455  26.275  10.618  1.00  0.00     0.029 C 
HETATM   26  C35 UNL     1      24.611  26.004   9.411  1.00  0.00     0.168 C 
HETATM   27  O8  UNL     1      23.302  25.879   9.824  1.00  0.00    -0.384 OA
ENDBRANCH  22  23
ENDBRANCH  20  22
ENDBRANCH  17  18
ENDBRANCH  16  17
ENDBRANCH  15  16
ENDBRANCH  14  15
ENDBRANCH  13  14
ENDBRANCH  12  13
ENDBRANCH  11  12
ENDBRANCH  10  11
ENDBRANCH   9  10
ENDBRANCH   1   9
BRANCH   1  28
HETATM   28  O2  UNL     1      17.946  32.640  17.784  1.00  0.00    -0.387 OA
ATOM     29  H2  UNL     1      17.043  32.343  17.813  1.00  0.00     0.210 HD
ENDBRANCH   1  28
BRANCH   7  30
HETATM   30  C25 UNL     1      16.480  35.643  16.359  1.00  0.00     0.125 C 
BRANCH  30  31
HETATM   31  O6  UNL     1      16.534  35.982  15.093  1.00  0.00    -0.349 OA
ATOM     32  H6  UNL     1      16.370  36.907  14.953  1.00  0.00     0.219 HD
ENDBRANCH  30  31
BRANCH  30  33
HETATM   33  N2  UNL     1      16.323  36.723  17.198  1.00  0.00    -0.361 N 
HETATM   34  C26 UNL     1      17.226  37.879  17.044  1.00  0.00     0.151 C 
HETATM   35  C27 UNL     1      17.778  38.178  18.404  1.00  0.00     0.187 C 
HETATM   36  O7  UNL     1      16.814  38.482  19.333  1.00  0.00    -0.388 OA
HETATM   37  C28 UNL     1      15.530  38.247  18.916  1.00  0.00     0.187 C 
HETATM   38  C29 UNL     1      15.364  36.884  18.237  1.00  0.00     0.151 C 
ENDBRANCH  30  33
ENDBRANCH   7  30
BRANCH   3  39
HETATM   39  C13 UNL     1      18.086  30.490  15.151  1.00  0.00     0.149 C 
BRANCH  39  40
HETATM   40  O3  UNL     1      18.902  30.091  16.099  1.00  0.00    -0.346 OA
ATOM     41  H3  UNL     1      19.483  29.393  15.823  1.00  0.00     0.219 HD
ENDBRANCH  39  40
BRANCH  39  42
HETATM   42  C14 UNL     1      17.962  29.559  14.066  1.00  0.00     0.017 A 
HETATM   43  C15 UNL     1      17.557  30.040  12.793  1.00  0.00     0.018 A 
HETATM   44  C16 UNL     1      17.423  29.238  11.702  1.00  0.00     0.041 A 
HETATM   45  C17 UNL     1      17.685  27.893  11.808  1.00  0.00     0.105 A 
HETATM   46  C18 UNL     1      18.079  27.383  13.010  1.00  0.00     0.105 A 
HETATM   47  O5  UNL     1      17.630  26.871  10.877  1.00  0.00    -0.323 OA
HETATM   48  C19 UNL     1      18.208  28.216  14.100  1.00  0.00     0.055 A 
HETATM   49  O4  UNL     1      18.284  25.997  12.855  1.00  0.00    -0.323 OA
HETATM   50  C20 UNL     1      17.789  25.654  11.563  1.00  0.00     0.352 C 
ENDBRANCH  39  42
ENDBRANCH   3  39
TORSDOF 19
ENDMDL
MODEL 3
REMARK VINA RESULT: -8.848576385      2.517      8.884
REMARK  19 active torsions:
REMARK  status: ('A' for Active; 'I' for Inactive)
REMARK    1  A    between atoms: C1_2  and  C2_3 
REMARK       I    between atoms: C1_2  and  N3_43 
REMARK    2  A    between atoms: C2_3  and  C3_4 
REMARK    3  A    between atoms: C3_4  and  C4_5 
REMARK    4  A    between atoms: C4_5  and  C5_6 
REMARK    5  A    between atoms: C5_6  and  C6_7 
REMARK    6  A    between atoms: C6_7  and  C7_8 
REMARK    7  A    between atoms: C7_8  and  C8_9 
REMARK    8  A    between atoms: C8_9  and  C9_10 
REMARK    9  A    between atoms: C9_10  and  C10_11 
REMARK   10  A    between atoms: C10_11  and  C11_12 
REMARK   11  A    between atoms: C11_12  and  O2_13 
REMARK   12  A    between atoms: N1_16  and  C13_17 
REMARK   13  A    between atoms: C13_17  and  O3_18 
REMARK   14  A    between atoms: C13_17  and  C14_20 
REMARK   15  A    between atoms: C24_32  and  C25_33 
REMARK   16  A    between atoms: C25_33  and  O6_34 
REMARK   17  A    between atoms: C25_33  and  N2_36 
REMARK   18  A    between atoms: N3_43  and  C31_45 
REMARK   19  A    between atoms: C31_45  and  C32_46 
ROOT
HETATM    1  C11 UNL     1      19.159  29.636  13.182  1.00  0.00     0.089 C 
HETATM    2  C12 UNL     1      18.672  28.192  13.384  1.00  0.00     0.164 C 
HETATM    3  N1  UNL     1      19.467  27.334  12.433  1.00  0.00    -0.354 N 
HETATM    4  C21 UNL     1      20.868  27.642  12.503  1.00  0.00     0.087 C 
HETATM    5  C22 UNL     1      21.354  28.705  11.581  1.00  0.00     0.027 C 
HETATM    6  C23 UNL     1      21.399  30.024  12.382  1.00  0.00     0.023 C 
HETATM    7  C24 UNL     1      20.598  29.728  13.587  1.00  0.00     0.059 C 
HETATM    8  C30 UNL     1      21.116  28.285  13.876  1.00  0.00     0.046 C 
ENDROOT
BRANCH   1   9
HETATM    9  C10 UNL     1      18.186  30.568  13.769  1.00  0.00     0.041 C 
BRANCH   9  10
HETATM   10  C9  UNL     1      17.511  30.201  15.043  1.00  0.00     0.003 C 
BRANCH  10  11
HETATM   11  C8  UNL     1      17.029  31.320  15.904  1.00  0.00     0.000 C 
BRANCH  11  12
HETATM   12  C7  UNL     1      16.879  32.588  15.035  1.00  0.00     0.000 C 
BRANCH  12  13
HETATM   13  C6  UNL     1      16.076  33.605  15.772  1.00  0.00     0.000 C 
BRANCH  13  14
HETATM   14  C5  UNL     1      15.354  33.106  16.978  1.00  0.00     0.000 C 
BRANCH  14  15
HETATM   15  C4  UNL     1      15.396  34.041  18.157  1.00  0.00     0.000 C 
BRANCH  15  16
HETATM   16  C3  UNL     1      14.675  35.320  17.926  1.00  0.00     0.009 C 
BRANCH  16  17
HETATM   17  C2  UNL     1      15.324  36.557  18.426  1.00  0.00     0.103 C 
BRANCH  17  18
HETATM   18  C1  UNL     1      16.704  36.763  17.950  1.00  0.00     0.217 C 
HETATM   19  O1  UNL     1      16.917  36.961  16.737  1.00  0.00    -0.274 OA
HETATM   20  N3  UNL     1      17.789  36.739  18.850  1.00  0.00    -0.359 N 
ATOM     21  H3  UNL     1      17.626  36.578  19.844  1.00  0.00     0.162 HD
BRANCH  20  22
HETATM   22  C31 UNL     1      19.123  36.942  18.363  1.00  0.00     0.154 C 
BRANCH  22  23
HETATM   23  C32 UNL     1      20.202  36.710  19.379  1.00  0.00     0.139 C 
HETATM   24  C33 UNL     1      21.570  36.747  18.759  1.00  0.00     0.035 C 
HETATM   25  C34 UNL     1      22.375  35.873  19.727  1.00  0.00     0.029 C 
HETATM   26  C35 UNL     1      21.311  35.039  20.373  1.00  0.00     0.168 C 
HETATM   27  O8  UNL     1      20.097  35.408  19.837  1.00  0.00    -0.384 OA
ENDBRANCH  22  23
ENDBRANCH  20  22
ENDBRANCH  17  18
ENDBRANCH  16  17
ENDBRANCH  15  16
ENDBRANCH  14  15
ENDBRANCH  13  14
ENDBRANCH  12  13
ENDBRANCH  11  12
ENDBRANCH  10  11
ENDBRANCH   9  10
ENDBRANCH   1   9
BRANCH   1  28
HETATM   28  O2  UNL     1      19.032  29.794  11.768  1.00  0.00    -0.387 OA
ATOM     29  H2  UNL     1      19.901  29.637  11.417  1.00  0.00     0.210 HD
ENDBRANCH   1  28
BRANCH   7  30
HETATM   30  C25 UNL     1      20.875  30.432  14.834  1.00  0.00     0.125 C 
BRANCH  30  31
HETATM   31  O6  UNL     1      20.741  29.665  15.889  1.00  0.00    -0.349 OA
ATOM     32  H6  UNL     1      20.647  28.747  15.666  1.00  0.00     0.219 HD
ENDBRANCH  30  31
BRANCH  30  33
HETATM   33  N2  UNL     1      21.250  31.718  15.148  1.00  0.00    -0.361 N 
HETATM   34  C26 UNL     1      22.643  31.971  15.564  1.00  0.00     0.151 C 
HETATM   35  C27 UNL     1      22.576  32.748  16.843  1.00  0.00     0.187 C 
HETATM   36  O7  UNL     1      21.919  33.948  16.722  1.00  0.00    -0.388 OA
HETATM   37  C28 UNL     1      21.262  34.117  15.531  1.00  0.00     0.187 C 
HETATM   38  C29 UNL     1      20.443  32.890  15.122  1.00  0.00     0.151 C 
ENDBRANCH  30  33
ENDBRANCH   7  30
BRANCH   3  39
HETATM   39  C13 UNL     1      18.785  26.402  11.673  1.00  0.00     0.149 C 
BRANCH  39  40
HETATM   40  O3  UNL     1      18.331  25.392  12.378  1.00  0.00    -0.346 OA
ATOM     41  H3  UNL     1      18.975  24.706  12.507  1.00  0.00     0.219 HD
ENDBRANCH  39  40
BRANCH  39  42
HETATM   42  C14 UNL     1      18.477  26.315  10.275  1.00  0.00     0.017 A 
HETATM   43  C15 UNL     1      17.553  25.331   9.836  1.00  0.00     0.018 A 
HETATM   44  C16 UNL     1      17.189  25.179   8.534  1.00  0.00     0.041 A 
HETATM   45  C17 UNL     1      17.726  26.004   7.574  1.00  0.00     0.105 A 
HETATM   46  C18 UNL     1      18.618  26.967   7.946  1.00  0.00     0.105 A 
HETATM   47  O5  UNL     1      17.535  26.067   6.206  1.00  0.00    -0.323 OA
HETATM   48  C19 UNL     1      18.971  27.101   9.271  1.00  0.00     0.055 A 
HETATM   49  O4  UNL     1      19.014  27.671   6.791  1.00  0.00    -0.323 OA
HETATM   50  C20 UNL     1      18.489  26.953   5.676  1.00  0.00     0.352 C 
ENDBRANCH  39  42
ENDBRANCH   3  39
TORSDOF 19
ENDMDL
MODEL 4
REMARK VINA RESULT: -8.834392802      2.489      7.678
REMARK  19 active torsions:
REMARK  status: ('A' for Active; 'I' for Inactive)
REMARK    1  A    between atoms: C1_2  and  C2_3 
REMARK       I    between atoms: C1_2  and  N3_43 
REMARK    2  A    between atoms: C2_3  and  C3_4 
REMARK    3  A    between atoms: C3_4  and  C4_5 
REMARK    4  A    between atoms: C4_5  and  C5_6 
REMARK    5  A    between atoms: C5_6  and  C6_7 
REMARK    6  A    between atoms: C6_7  and  C7_8 
REMARK    7  A    between atoms: C7_8  and  C8_9 
REMARK    8  A    between atoms: C8_9  and  C9_10 
REMARK    9  A    between atoms: C9_10  and  C10_11 
REMARK   10  A    between atoms: C10_11  and  C11_12 
REMARK   11  A    between atoms: C11_12  and  O2_13 
REMARK   12  A    between atoms: N1_16  and  C13_17 
REMARK   13  A    between atoms: C13_17  and  O3_18 
REMARK   14  A    between atoms: C13_17  and  C14_20 
REMARK   15  A    between atoms: C24_32  and  C25_33 
REMARK   16  A    between atoms: C25_33  and  O6_34 
REMARK   17  A    between atoms: C25_33  and  N2_36 
REMARK   18  A    between atoms: N3_43  and  C31_45 
REMARK   19  A    between atoms: C31_45  and  C32_46 
ROOT
HETATM    1  C11 UNL     1      19.614  32.766  15.318  1.00  0.00     0.089 C 
HETATM    2  C12 UNL     1      19.344  31.468  16.097  1.00  0.00     0.164 C 
HETATM    3  N1  UNL     1      20.385  30.474  15.650  1.00  0.00    -0.354 N 
HETATM    4  C21 UNL     1      21.697  31.059  15.651  1.00  0.00     0.087 C 
HETATM    5  C22 UNL     1      22.123  31.720  14.387  1.00  0.00     0.027 C 
HETATM    6  C23 UNL     1      21.848  33.232  14.543  1.00  0.00     0.023 C 
HETATM    7  C24 UNL     1      20.954  33.305  15.716  1.00  0.00     0.059 C 
HETATM    8  C30 UNL     1      21.655  32.247  16.624  1.00  0.00     0.046 C 
ENDROOT
BRANCH   1   9
HETATM    9  C10 UNL     1      18.435  33.640  15.397  1.00  0.00     0.041 C 
BRANCH   9  10
HETATM   10  C9  UNL     1      17.133  33.144  14.875  1.00  0.00     0.003 C 
BRANCH  10  11
HETATM   11  C8  UNL     1      15.898  33.640  15.550  1.00  0.00     0.000 C 
BRANCH  11  12
HETATM   12  C7  UNL     1      15.690  32.843  16.857  1.00  0.00     0.000 C 
BRANCH  12  13
HETATM   13  C6  UNL     1      15.334  33.781  17.960  1.00  0.00     0.000 C 
BRANCH  13  14
HETATM   14  C5  UNL     1      15.023  35.179  17.544  1.00  0.00     0.000 C 
BRANCH  14  15
HETATM   15  C4  UNL     1      15.233  36.209  18.620  1.00  0.00     0.000 C 
BRANCH  15  16
HETATM   16  C3  UNL     1      16.011  37.392  18.166  1.00  0.00     0.009 C 
BRANCH  16  17
HETATM   17  C2  UNL     1      16.968  37.180  17.054  1.00  0.00     0.103 C 
BRANCH  17  18
HETATM   18  C1  UNL     1      17.829  38.338  16.753  1.00  0.00     0.217 C 
HETATM   19  O1  UNL     1      17.312  39.431  16.450  1.00  0.00    -0.274 OA
HETATM   20  N3  UNL     1      19.233  38.226  16.805  1.00  0.00    -0.359 N 
ATOM     21  H3  UNL     1      19.667  37.336  17.052  1.00  0.00     0.162 HD
BRANCH  20  22
HETATM   22  C31 UNL     1      20.050  39.367  16.507  1.00  0.00     0.154 C 
BRANCH  22  23
HETATM   23  C32 UNL     1      21.522  39.083  16.443  1.00  0.00     0.139 C 
HETATM   24  C33 UNL     1      22.010  38.385  17.681  1.00  0.00     0.035 C 
HETATM   25  C34 UNL     1      23.487  38.795  17.708  1.00  0.00     0.029 C 
HETATM   26  C35 UNL     1      23.491  40.050  16.889  1.00  0.00     0.168 C 
HETATM   27  O8  UNL     1      22.200  40.289  16.470  1.00  0.00    -0.384 OA
ENDBRANCH  22  23
ENDBRANCH  20  22
ENDBRANCH  17  18
ENDBRANCH  16  17
ENDBRANCH  15  16
ENDBRANCH  14  15
ENDBRANCH  13  14
ENDBRANCH  12  13
ENDBRANCH  11  12
ENDBRANCH  10  11
ENDBRANCH   9  10
ENDBRANCH   1   9
BRANCH   1  28
HETATM   28  O2  UNL     1      19.651  32.297  13.969  1.00  0.00    -0.387 OA
ATOM     29  H2  UNL     1      20.549  32.020  13.822  1.00  0.00     0.210 HD
ENDBRANCH   1  28
BRANCH   7  30
HETATM   30  C25 UNL     1      20.948  34.501  16.551  1.00  0.00     0.125 C 
BRANCH  30  31
HETATM   31  O6  UNL     1      20.969  35.608  15.849  1.00  0.00    -0.349 OA
ATOM     32  H6  UNL     1      21.684  36.184  16.093  1.00  0.00     0.219 HD
ENDBRANCH  30  31
BRANCH  30  33
HETATM   33  N2  UNL     1      20.920  34.725  17.908  1.00  0.00    -0.361 N 
HETATM   34  C26 UNL     1      19.615  34.893  18.574  1.00  0.00     0.151 C 
HETATM   35  C27 UNL     1      19.703  36.151  19.383  1.00  0.00     0.187 C 
HETATM   36  O7  UNL     1      20.692  36.124  20.335  1.00  0.00    -0.388 OA
HETATM   37  C28 UNL     1      21.549  35.060  20.231  1.00  0.00     0.187 C 
HETATM   38  C29 UNL     1      22.028  34.817  18.797  1.00  0.00     0.151 C 
ENDBRANCH  30  33
ENDBRANCH   7  30
BRANCH   3  39
HETATM   39  C13 UNL     1      19.968  29.195  15.331  1.00  0.00     0.149 C 
BRANCH  39  40
HETATM   40  O3  UNL     1      20.019  28.366  16.349  1.00  0.00    -0.346 OA
ATOM     41  H3  UNL     1      19.532  27.564  16.203  1.00  0.00     0.219 HD
ENDBRANCH  39  40
BRANCH  39  42
HETATM   42  C14 UNL     1      19.495  28.592  14.119  1.00  0.00     0.017 A 
HETATM   43  C15 UNL     1      18.147  28.152  14.052  1.00  0.00     0.018 A 
HETATM   44  C16 UNL     1      17.604  27.580  12.943  1.00  0.00     0.041 A 
HETATM   45  C17 UNL     1      18.375  27.406  11.818  1.00  0.00     0.105 A 
HETATM   46  C18 UNL     1      19.677  27.814  11.832  1.00  0.00     0.105 A 
HETATM   47  O5  UNL     1      18.083  26.864  10.580  1.00  0.00    -0.323 OA
HETATM   48  C19 UNL     1      20.203  28.391  12.968  1.00  0.00     0.055 A 
HETATM   49  O4  UNL     1      20.242  27.529  10.573  1.00  0.00    -0.323 OA
HETATM   50  C20 UNL     1      19.289  26.735   9.869  1.00  0.00     0.352 C 
ENDBRANCH  39  42
ENDBRANCH   3  39
TORSDOF 19
ENDMDL
MODEL 5
REMARK VINA RESULT: -8.783125764      2.597      8.602
REMARK  19 active torsions:
REMARK  status: ('A' for Active; 'I' for Inactive)
REMARK    1  A    between atoms: C1_2  and  C2_3 
REMARK       I    between atoms: C1_2  and  N3_43 
REMARK    2  A    between atoms: C2_3  and  C3_4 
REMARK    3  A    between atoms: C3_4  and  C4_5 
REMARK    4  A    between atoms: C4_5  and  C5_6 
REMARK    5  A    between atoms: C5_6  and  C6_7 
REMARK    6  A    between atoms: C6_7  and  C7_8 
REMARK    7  A    between atoms: C7_8  and  C8_9 
REMARK    8  A    between atoms: C8_9  and  C9_10 
REMARK    9  A    between atoms: C9_10  and  C10_11 
REMARK   10  A    between atoms: C10_11  and  C11_12 
REMARK   11  A    between atoms: C11_12  and  O2_13 
REMARK   12  A    between atoms: N1_16  and  C13_17 
REMARK   13  A    between atoms: C13_17  and  O3_18 
REMARK   14  A    between atoms: C13_17  and  C14_20 
REMARK   15  A    between atoms: C24_32  and  C25_33 
REMARK   16  A    between atoms: C25_33  and  O6_34 
REMARK   17  A    between atoms: C25_33  and  N2_36 
REMARK   18  A    between atoms: N3_43  and  C31_45 
REMARK   19  A    between atoms: C31_45  and  C32_46 
ROOT
HETATM    1  C11 UNL     1      19.319  30.264  13.575  1.00  0.00     0.089 C 
HETATM    2  C12 UNL     1      18.640  28.888  13.666  1.00  0.00     0.164 C 
HETATM    3  N1  UNL     1      19.537  27.918  12.940  1.00  0.00    -0.354 N 
HETATM    4  C21 UNL     1      20.907  28.077  13.342  1.00  0.00     0.087 C 
HETATM    5  C22 UNL     1      21.714  29.048  12.555  1.00  0.00     0.027 C 
HETATM    6  C23 UNL     1      21.715  30.383  13.333  1.00  0.00     0.023 C 
HETATM    7  C24 UNL     1      20.623  30.216  14.313  1.00  0.00     0.059 C 
HETATM    8  C30 UNL     1      20.892  28.736  14.729  1.00  0.00     0.046 C 
ENDROOT
BRANCH   1   9
HETATM    9  C10 UNL     1      18.346  31.315  13.904  1.00  0.00     0.041 C 
BRANCH   9  10
HETATM   10  C9  UNL     1      17.095  30.942  14.618  1.00  0.00     0.003 C 
BRANCH  10  11
HETATM   11  C8  UNL     1      17.015  31.280  16.069  1.00  0.00     0.000 C 
BRANCH  11  12
HETATM   12  C7  UNL     1      15.701  32.049  16.331  1.00  0.00     0.000 C 
BRANCH  12  13
HETATM   13  C6  UNL     1      15.682  33.295  15.511  1.00  0.00     0.000 C 
BRANCH  13  14
HETATM   14  C5  UNL     1      16.079  34.543  16.225  1.00  0.00     0.000 C 
BRANCH  14  15
HETATM   15  C4  UNL     1      15.222  34.877  17.415  1.00  0.00     0.000 C 
BRANCH  15  16
HETATM   16  C3  UNL     1      15.995  35.384  18.580  1.00  0.00     0.009 C 
BRANCH  16  17
HETATM   17  C2  UNL     1      17.473  35.382  18.457  1.00  0.00     0.103 C 
BRANCH  17  18
HETATM   18  C1  UNL     1      18.078  36.716  18.291  1.00  0.00     0.217 C 
HETATM   19  O1  UNL     1      17.628  37.497  17.429  1.00  0.00    -0.274 OA
HETATM   20  N3  UNL     1      19.163  37.121  19.095  1.00  0.00    -0.359 N 
ATOM     21  H3  UNL     1      19.539  36.490  19.804  1.00  0.00     0.162 HD
BRANCH  20  22
HETATM   22  C31 UNL     1      19.735  38.424  18.914  1.00  0.00     0.154 C 
BRANCH  22  23
HETATM   23  C32 UNL     1      21.233  38.441  18.821  1.00  0.00     0.139 C 
HETATM   24  C33 UNL     1      21.711  38.054  17.450  1.00  0.00     0.035 C 
HETATM   25  C34 UNL     1      23.109  37.502  17.751  1.00  0.00     0.029 C 
HETATM   26  C35 UNL     1      23.005  37.126  19.198  1.00  0.00     0.168 C 
HETATM   27  O8  UNL     1      21.732  37.433  19.627  1.00  0.00    -0.384 OA
ENDBRANCH  22  23
ENDBRANCH  20  22
ENDBRANCH  17  18
ENDBRANCH  16  17
ENDBRANCH  15  16
ENDBRANCH  14  15
ENDBRANCH  13  14
ENDBRANCH  12  13
ENDBRANCH  11  12
ENDBRANCH  10  11
ENDBRANCH   9  10
ENDBRANCH   1   9
BRANCH   1  28
HETATM   28  O2  UNL     1      19.551  30.386  12.171  1.00  0.00    -0.387 OA
ATOM     29  H2  UNL     1      20.494  30.332  12.064  1.00  0.00     0.210 HD
ENDBRANCH   1  28
BRANCH   7  30
HETATM   30  C25 UNL     1      20.673  30.929  15.584  1.00  0.00     0.125 C 
BRANCH  30  31
HETATM   31  O6  UNL     1      20.361  30.167  16.605  1.00  0.00    -0.349 OA
ATOM     32  H6  UNL     1      20.633  30.538  17.436  1.00  0.00     0.219 HD
ENDBRANCH  30  31
BRANCH  30  33
HETATM   33  N2  UNL     1      20.978  32.220  15.950  1.00  0.00    -0.361 N 
HETATM   34  C26 UNL     1      22.371  32.544  16.313  1.00  0.00     0.151 C 
HETATM   35  C27 UNL     1      22.319  33.249  17.634  1.00  0.00     0.187 C 
HETATM   36  O7  UNL     1      21.580  34.406  17.611  1.00  0.00    -0.388 OA
HETATM   37  C28 UNL     1      20.853  34.591  16.463  1.00  0.00     0.187 C 
HETATM   38  C29 UNL     1      20.095  33.333  16.027  1.00  0.00     0.151 C 
ENDBRANCH  30  33
ENDBRANCH   7  30
BRANCH   3  39
HETATM   39  C13 UNL     1      18.955  27.038  12.046  1.00  0.00     0.149 C 
BRANCH  39  40
HETATM   40  O3  UNL     1      18.106  26.212  12.612  1.00  0.00    -0.346 OA
ATOM     41  H3  UNL     1      17.379  25.979  12.048  1.00  0.00     0.219 HD
ENDBRANCH  39  40
BRANCH  39  42
HETATM   42  C14 UNL     1      19.093  26.846  10.631  1.00  0.00     0.017 A 
HETATM   43  C15 UNL     1      18.075  27.335   9.771  1.00  0.00     0.018 A 
HETATM   44  C16 UNL     1      18.121  27.211   8.417  1.00  0.00     0.041 A 
HETATM   45  C17 UNL     1      19.193  26.587   7.825  1.00  0.00     0.105 A 
HETATM   46  C18 UNL     1      20.198  26.101   8.610  1.00  0.00     0.105 A 
HETATM   47  O5  UNL     1      19.489  26.329   6.498  1.00  0.00    -0.323 OA
HETATM   48  C19 UNL     1      20.128  26.239   9.979  1.00  0.00     0.055 A 
HETATM   49  O4  UNL     1      21.168  25.515   7.771  1.00  0.00    -0.323 OA
HETATM   50  C20 UNL     1      20.604  25.475   6.462  1.00  0.00     0.352 C 
ENDBRANCH  39  42
ENDBRANCH   3  39
TORSDOF 19
ENDMDL
