MODEL 1
REMARK VINA RESULT: -8.437835043      0.000      0.000
REMARK  2 active torsions:
REMARK  status: ('A' for Active; 'I' for Inactive)
REMARK    1  A    between atoms: C12_12  and  C14_14 
REMARK    2  A    between atoms: C18_19  and  O2_20 
ROOT
HETATM    1  C1  UNL     1      74.760  38.666  72.415  1.00  0.00     0.015 C 
HETATM    2  C2  UNL     1      75.686  38.246  71.292  1.00  0.00    -0.044 C 
HETATM    3  C3  UNL     1      76.514  37.080  71.727  1.00  0.00     0.015 C 
HETATM    4  C4  UNL     1      74.801  37.900  70.082  1.00  0.00     0.010 C 
HETATM    5  C5  UNL     1      75.372  38.374  68.779  1.00  0.00     0.012 C 
HETATM    6  C6  UNL     1      75.512  39.906  68.699  1.00  0.00    -0.017 C 
HETATM    7  C7  UNL     1      74.307  40.466  68.029  1.00  0.00     0.018 C 
HETATM    8  C8  UNL     1      75.482  40.323  70.150  1.00  0.00     0.017 C 
HETATM    9  C9  UNL     1      76.496  39.408  70.789  1.00  0.00    -0.006 C 
HETATM   10  C10 UNL     1      77.306  40.164  71.717  1.00  0.00     0.006 C 
HETATM   11  C11 UNL     1      77.879  41.380  71.055  1.00  0.00     0.017 C 
HETATM   12  C12 UNL     1      78.473  41.273  69.720  1.00  0.00     0.018 C 
HETATM   13  C13 UNL     1      79.510  40.165  69.707  1.00  0.00     0.023 C 
HETATM   14  C15 UNL     1      77.641  41.347  68.506  1.00  0.00    -0.007 C 
HETATM   15  C16 UNL     1      76.976  42.687  68.383  1.00  0.00     0.018 C 
HETATM   16  C17 UNL     1      78.679  41.370  67.345  1.00  0.00     0.018 C 
HETATM   17  C18 UNL     1      76.815  40.195  68.083  1.00  0.00     0.135 C 
ENDROOT
BRANCH  12  18
HETATM   18  C14 UNL     1      79.304  42.555  69.635  1.00  0.00     0.241 C 
HETATM   19  O1  UNL     1      79.607  43.208  70.591  1.00  0.00    -0.306 OA
ENDBRANCH  12  18
BRANCH  17  20
HETATM   20  O2  UNL     1      76.545  40.342  66.692  1.00  0.00    -0.394 OA
ATOM     21  H2  UNL     1      76.657  41.268  66.514  1.00  0.00     0.210 HD
ENDBRANCH  17  20
TORSDOF 2
ENDMDL
MODEL 2
REMARK VINA RESULT: -8.331952167      2.132      4.406
REMARK  2 active torsions:
REMARK  status: ('A' for Active; 'I' for Inactive)
REMARK    1  A    between atoms: C12_12  and  C14_14 
REMARK    2  A    between atoms: C18_19  and  O2_20 
ROOT
HETATM    1  C1  UNL     1      74.710  42.092  67.346  1.00  0.00     0.015 C 
HETATM    2  C2  UNL     1      75.597  40.865  67.327  1.00  0.00    -0.044 C 
HETATM    3  C3  UNL     1      74.947  39.782  66.527  1.00  0.00     0.015 C 
HETATM    4  C4  UNL     1      76.946  41.292  66.723  1.00  0.00     0.010 C 
HETATM    5  C5  UNL     1      78.124  40.672  67.414  1.00  0.00     0.012 C 
HETATM    6  C6  UNL     1      78.244  41.080  68.894  1.00  0.00    -0.017 C 
HETATM    7  C7  UNL     1      79.173  42.238  69.001  1.00  0.00     0.018 C 
HETATM    8  C8  UNL     1      76.850  41.561  69.224  1.00  0.00     0.017 C 
HETATM    9  C9  UNL     1      75.975  40.443  68.719  1.00  0.00    -0.006 C 
HETATM   10  C10 UNL     1      74.936  40.173  69.686  1.00  0.00     0.006 C 
HETATM   11  C11 UNL     1      75.521  39.952  71.049  1.00  0.00     0.017 C 
HETATM   12  C12 UNL     1      76.698  39.095  71.207  1.00  0.00     0.018 C 
HETATM   13  C13 UNL     1      76.446  37.750  70.551  1.00  0.00     0.023 C 
HETATM   14  C15 UNL     1      78.060  39.625  71.014  1.00  0.00    -0.007 C 
HETATM   15  C16 UNL     1      78.379  40.688  72.025  1.00  0.00     0.018 C 
HETATM   16  C17 UNL     1      78.982  38.448  71.449  1.00  0.00     0.018 C 
HETATM   17  C18 UNL     1      78.591  39.872  69.656  1.00  0.00     0.135 C 
ENDROOT
BRANCH  12  18
HETATM   18  C14 UNL     1      76.669  38.785  72.705  1.00  0.00     0.241 C 
HETATM   19  O1  UNL     1      75.896  38.021  73.204  1.00  0.00    -0.306 OA
ENDBRANCH  12  18
BRANCH  17  20
HETATM   20  O2  UNL     1      80.012  39.880  69.739  1.00  0.00    -0.394 OA
ATOM     21  H2  UNL     1      80.313  39.975  68.843  1.00  0.00     0.210 HD
ENDBRANCH  17  20
TORSDOF 2
ENDMDL
MODEL 3
REMARK VINA RESULT: -8.196081093      1.131      1.194
REMARK  2 active torsions:
REMARK  status: ('A' for Active; 'I' for Inactive)
REMARK    1  A    between atoms: C12_12  and  C14_14 
REMARK    2  A    between atoms: C18_19  and  O2_20 
ROOT
HETATM    1  C1  UNL     1      74.314  37.766  71.613  1.00  0.00     0.015 C 
HETATM    2  C2  UNL     1      75.390  37.671  70.552  1.00  0.00    -0.044 C 
HETATM    3  C3  UNL     1      76.038  36.325  70.607  1.00  0.00     0.015 C 
HETATM    4  C4  UNL     1      74.711  37.924  69.195  1.00  0.00     0.010 C 
HETATM    5  C5  UNL     1      75.538  38.765  68.270  1.00  0.00     0.012 C 
HETATM    6  C6  UNL     1      75.805  40.182  68.811  1.00  0.00    -0.017 C 
HETATM    7  C7  UNL     1      74.783  41.111  68.256  1.00  0.00     0.018 C 
HETATM    8  C8  UNL     1      75.548  40.029  70.292  1.00  0.00     0.017 C 
HETATM    9  C9  UNL     1      76.361  38.813  70.656  1.00  0.00    -0.006 C 
HETATM   10  C10 UNL     1      77.048  39.051  71.905  1.00  0.00     0.006 C 
HETATM   11  C11 UNL     1      77.819  40.335  71.853  1.00  0.00     0.017 C 
HETATM   12  C12 UNL     1      78.630  40.651  70.675  1.00  0.00     0.018 C 
HETATM   13  C13 UNL     1      79.568  39.496  70.372  1.00  0.00     0.023 C 
HETATM   14  C15 UNL     1      78.036  41.285  69.484  1.00  0.00    -0.007 C 
HETATM   15  C16 UNL     1      77.505  42.652  69.804  1.00  0.00     0.018 C 
HETATM   16  C17 UNL     1      79.262  41.595  68.576  1.00  0.00     0.018 C 
HETATM   17  C18 UNL     1      77.214  40.498  68.539  1.00  0.00     0.135 C 
ENDROOT
BRANCH  12  18
HETATM   18  C14 UNL     1      79.557  41.745  71.208  1.00  0.00     0.241 C 
HETATM   19  O1  UNL     1      80.279  41.595  72.150  1.00  0.00    -0.306 OA
ENDBRANCH  12  18
BRANCH  17  20
HETATM   20  O2  UNL     1      77.207  41.186  67.292  1.00  0.00    -0.394 OA
ATOM     21  H2  UNL     1      77.472  40.539  66.649  1.00  0.00     0.210 HD
ENDBRANCH  17  20
TORSDOF 2
ENDMDL
MODEL 4
REMARK VINA RESULT: -7.702774238      1.722      4.411
REMARK  2 active torsions:
REMARK  status: ('A' for Active; 'I' for Inactive)
REMARK    1  A    between atoms: C12_12  and  C14_14 
REMARK    2  A    between atoms: C18_19  and  O2_20 
ROOT
HETATM    1  C1  UNL     1      80.484  39.450  70.924  1.00  0.00     0.015 C 
HETATM    2  C2  UNL     1      79.326  40.401  71.141  1.00  0.00    -0.044 C 
HETATM    3  C3  UNL     1      79.069  40.560  72.605  1.00  0.00     0.015 C 
HETATM    4  C4  UNL     1      79.707  41.736  70.478  1.00  0.00     0.010 C 
HETATM    5  C5  UNL     1      78.560  42.388  69.764  1.00  0.00     0.012 C 
HETATM    6  C6  UNL     1      78.015  41.546  68.596  1.00  0.00    -0.017 C 
HETATM    7  C7  UNL     1      78.664  41.995  67.334  1.00  0.00     0.018 C 
HETATM    8  C8  UNL     1      78.518  40.158  68.918  1.00  0.00     0.017 C 
HETATM    9  C9  UNL     1      78.116  39.975  70.359  1.00  0.00    -0.006 C 
HETATM   10  C10 UNL     1      77.583  38.644  70.543  1.00  0.00     0.006 C 
HETATM   11  C11 UNL     1      76.503  38.360  69.543  1.00  0.00     0.017 C 
HETATM   12  C12 UNL     1      75.473  39.366  69.277  1.00  0.00     0.018 C 
HETATM   13  C13 UNL     1      74.837  39.808  70.583  1.00  0.00     0.023 C 
HETATM   14  C15 UNL     1      75.698  40.454  68.307  1.00  0.00    -0.007 C 
HETATM   15  C16 UNL     1      75.892  39.913  66.920  1.00  0.00     0.018 C 
HETATM   16  C17 UNL     1      74.313  41.159  68.211  1.00  0.00     0.018 C 
HETATM   17  C18 UNL     1      76.548  41.613  68.655  1.00  0.00     0.135 C 
ENDROOT
BRANCH  12  18
HETATM   18  C14 UNL     1      74.381  38.535  68.600  1.00  0.00     0.241 C 
HETATM   19  O1  UNL     1      74.091  37.426  68.941  1.00  0.00    -0.306 OA
ENDBRANCH  12  18
BRANCH  17  20
HETATM   20  O2  UNL     1      76.190  42.688  67.792  1.00  0.00    -0.394 OA
ATOM     21  H2  UNL     1      76.985  43.196  67.685  1.00  0.00     0.210 HD
ENDBRANCH  17  20
TORSDOF 2
ENDMDL
MODEL 5
REMARK VINA RESULT: -7.569720137      2.095      5.102
REMARK  2 active torsions:
REMARK  status: ('A' for Active; 'I' for Inactive)
REMARK    1  A    between atoms: C12_12  and  C14_14 
REMARK    2  A    between atoms: C18_19  and  O2_20 
ROOT
HETATM    1  C1  UNL     1      75.500  42.372  67.447  1.00  0.00     0.015 C 
HETATM    2  C2  UNL     1      76.411  41.163  67.498  1.00  0.00    -0.044 C 
HETATM    3  C3  UNL     1      76.416  40.477  66.170  1.00  0.00     0.015 C 
HETATM    4  C4  UNL     1      77.811  41.668  67.887  1.00  0.00     0.010 C 
HETATM    5  C5  UNL     1      78.519  40.759  68.847  1.00  0.00     0.012 C 
HETATM    6  C6  UNL     1      77.796  40.621  70.199  1.00  0.00    -0.017 C 
HETATM    7  C7  UNL     1      78.379  41.596  71.160  1.00  0.00     0.018 C 
HETATM    8  C8  UNL     1      76.388  41.064  69.874  1.00  0.00     0.017 C 
HETATM    9  C9  UNL     1      76.054  40.259  68.644  1.00  0.00    -0.006 C 
HETATM   10  C10 UNL     1      74.705  39.752  68.755  1.00  0.00     0.006 C 
HETATM   11  C11 UNL     1      74.512  39.031  70.054  1.00  0.00     0.017 C 
HETATM   12  C12 UNL     1      75.529  38.084  70.521  1.00  0.00     0.018 C 
HETATM   13  C13 UNL     1      75.827  37.071  69.430  1.00  0.00     0.023 C 
HETATM   14  C15 UNL     1      76.712  38.542  71.271  1.00  0.00    -0.007 C 
HETATM   15  C16 UNL     1      76.320  39.162  72.581  1.00  0.00     0.018 C 
HETATM   16  C17 UNL     1      77.408  37.220  71.711  1.00  0.00     0.018 C 
HETATM   17  C18 UNL     1      77.839  39.201  70.577  1.00  0.00     0.135 C 
ENDROOT
BRANCH  12  18
HETATM   18  C14 UNL     1      74.759  37.279  71.569  1.00  0.00     0.241 C 
HETATM   19  O1  UNL     1      73.949  36.443  71.294  1.00  0.00    -0.306 OA
ENDBRANCH  12  18
BRANCH  17  20
HETATM   20  O2  UNL     1      78.993  39.071  71.402  1.00  0.00    -0.394 OA
ATOM     21  H2  UNL     1      79.724  39.316  70.847  1.00  0.00     0.210 HD
ENDBRANCH  17  20
TORSDOF 2
ENDMDL
