MODEL 1
REMARK VINA RESULT: -5.509095197      0.000      0.000
REMARK  1 active torsions:
REMARK  status: ('A' for Active; 'I' for Inactive)
REMARK    1  A    between atoms: C5_7  and  C6_8 
ROOT
HETATM    1  C6  UNL     1      76.561  39.373  69.937  1.00  0.00     0.041 A 
HETATM    2  N2  UNL     1      76.439  39.379  71.268  1.00  0.00    -0.353 N 
ATOM      3  H2  UNL     1      76.999  39.966  71.887  1.00  0.00     0.166 HD
HETATM    4  C7  UNL     1      75.490  38.519  71.704  1.00  0.00     0.068 A 
HETATM    5  C8  UNL     1      75.028  38.196  72.961  1.00  0.00     0.074 A 
HETATM    6  N3  UNL     1      75.587  38.825  74.103  1.00  0.00    -0.100 NA
HETATM    7  C9  UNL     1      74.031  37.269  73.115  1.00  0.00     0.035 A 
HETATM    8  C10 UNL     1      73.490  36.654  72.004  1.00  0.00    -0.059 A 
HETATM    9  C11 UNL     1      72.394  35.633  72.145  1.00  0.00     0.048 C 
HETATM   10  C12 UNL     1      73.951  36.977  70.751  1.00  0.00     0.021 A 
HETATM   11  C13 UNL     1      74.962  37.917  70.582  1.00  0.00     0.001 A 
HETATM   12  C14 UNL     1      75.618  38.438  69.491  1.00  0.00    -0.023 A 
HETATM   13  C15 UNL     1      75.359  38.069  68.086  1.00  0.00     0.051 C 
ENDROOT
BRANCH   1  14
HETATM   14  C5  UNL     1      77.418  40.143  69.058  1.00  0.00     0.056 C 
HETATM   15  C4  UNL     1      78.192  41.147  69.475  1.00  0.00     0.029 A 
HETATM   16  C3  UNL     1      78.201  41.515  70.891  1.00  0.00     0.176 A 
HETATM   17  N4  UNL     1      78.996  41.869  68.554  1.00  0.00    -0.360 N 
HETATM   18  N1  UNL     1      78.963  42.707  71.124  1.00  0.00    -0.386 N 
HETATM   19  C2  UNL     1      79.671  43.357  70.299  1.00  0.00     0.023 A 
ATOM     20  H1  UNL     1      78.932  43.078  72.074  1.00  0.00     0.159 HD
HETATM   21  C1  UNL     1      80.424  44.585  70.670  1.00  0.00     0.070 C 
HETATM   22  C16 UNL     1      79.685  42.891  68.907  1.00  0.00     0.027 A 
HETATM   23  C17 UNL     1      80.510  43.618  67.925  1.00  0.00     0.070 C 
ATOM     24  H4  UNL     1      79.027  41.565  67.581  1.00  0.00     0.165 HD
ENDBRANCH   1  14
TORSDOF 1
ENDMDL
MODEL 2
REMARK VINA RESULT: -5.451435351      3.864     10.040
REMARK  1 active torsions:
REMARK  status: ('A' for Active; 'I' for Inactive)
REMARK    1  A    between atoms: C5_7  and  C6_8 
ROOT
HETATM    1  C6  UNL     1      81.578  46.016  70.190  1.00  0.00     0.041 A 
HETATM    2  N2  UNL     1      81.151  47.270  70.016  1.00  0.00    -0.353 N 
ATOM      3  H2  UNL     1      80.545  47.562  69.249  1.00  0.00     0.166 HD
HETATM    4  C7  UNL     1      81.613  48.110  70.971  1.00  0.00     0.068 A 
HETATM    5  C8  UNL     1      81.439  49.459  71.193  1.00  0.00     0.074 A 
HETATM    6  N3  UNL     1      80.638  50.223  70.306  1.00  0.00    -0.100 NA
HETATM    7  C9  UNL     1      82.036  50.067  72.266  1.00  0.00     0.035 A 
HETATM    8  C10 UNL     1      82.818  49.323  73.126  1.00  0.00    -0.059 A 
HETATM    9  C11 UNL     1      83.485  49.965  74.313  1.00  0.00     0.048 C 
HETATM   10  C12 UNL     1      82.991  47.978  72.905  1.00  0.00     0.021 A 
HETATM   11  C13 UNL     1      82.389  47.350  71.820  1.00  0.00     0.001 A 
HETATM   12  C14 UNL     1      82.372  46.060  71.343  1.00  0.00    -0.023 A 
HETATM   13  C15 UNL     1      83.075  44.917  71.958  1.00  0.00     0.051 C 
ENDROOT
BRANCH   1  14
HETATM   14  C5  UNL     1      81.311  44.808  69.435  1.00  0.00     0.056 C 
HETATM   15  C4  UNL     1      80.319  43.963  69.722  1.00  0.00     0.029 A 
HETATM   16  C3  UNL     1      79.433  44.242  70.853  1.00  0.00     0.176 A 
HETATM   17  N4  UNL     1      80.123  42.789  68.947  1.00  0.00    -0.360 N 
HETATM   18  N1  UNL     1      78.534  43.152  71.103  1.00  0.00    -0.386 N 
HETATM   19  C2  UNL     1      78.370  42.100  70.418  1.00  0.00     0.023 A 
ATOM     20  H1  UNL     1      77.954  43.236  71.939  1.00  0.00     0.159 HD
HETATM   21  C1  UNL     1      77.393  41.041  70.784  1.00  0.00     0.070 C 
HETATM   22  C16 UNL     1      79.235  41.915  69.246  1.00  0.00     0.027 A 
HETATM   23  C17 UNL     1      79.059  40.707  68.420  1.00  0.00     0.070 C 
ATOM     24  H4  UNL     1      80.709  42.637  68.126  1.00  0.00     0.165 HD
ENDBRANCH   1  14
TORSDOF 1
ENDMDL
MODEL 3
REMARK VINA RESULT: -5.349761162      1.457      7.183
REMARK  1 active torsions:
REMARK  status: ('A' for Active; 'I' for Inactive)
REMARK    1  A    between atoms: C5_7  and  C6_8 
ROOT
HETATM    1  C6  UNL     1      77.082  40.018  68.908  1.00  0.00     0.041 A 
HETATM    2  N2  UNL     1      77.643  40.464  70.037  1.00  0.00    -0.353 N 
ATOM      3  H2  UNL     1      77.417  40.102  70.964  1.00  0.00     0.166 HD
HETATM    4  C7  UNL     1      78.543  41.448  69.812  1.00  0.00     0.068 A 
HETATM    5  C8  UNL     1      79.346  42.189  70.651  1.00  0.00     0.074 A 
HETATM    6  N3  UNL     1      79.302  41.964  72.051  1.00  0.00    -0.100 NA
HETATM    7  C9  UNL     1      80.186  43.144  70.141  1.00  0.00     0.035 A 
HETATM    8  C10 UNL     1      80.225  43.364  68.780  1.00  0.00    -0.059 A 
HETATM    9  C11 UNL     1      81.139  44.406  68.193  1.00  0.00     0.048 C 
HETATM   10  C12 UNL     1      79.425  42.625  67.943  1.00  0.00     0.021 A 
HETATM   11  C13 UNL     1      78.568  41.653  68.449  1.00  0.00     0.001 A 
HETATM   12  C14 UNL     1      77.670  40.775  67.888  1.00  0.00    -0.023 A 
HETATM   13  C15 UNL     1      77.384  40.658  66.444  1.00  0.00     0.051 C 
ENDROOT
BRANCH   1  14
HETATM   14  C5  UNL     1      76.106  38.971  68.682  1.00  0.00     0.056 C 
HETATM   15  C4  UNL     1      75.430  38.367  69.661  1.00  0.00     0.029 A 
HETATM   16  C3  UNL     1      75.663  38.760  71.051  1.00  0.00     0.176 A 
HETATM   17  N4  UNL     1      74.498  37.337  69.367  1.00  0.00    -0.360 N 
HETATM   18  N1  UNL     1      74.971  37.900  71.968  1.00  0.00    -0.386 N 
HETATM   19  C2  UNL     1      74.149  36.974  71.703  1.00  0.00     0.023 A 
ATOM     20  H1  UNL     1      75.167  38.055  72.957  1.00  0.00     0.159 HD
HETATM   21  C1  UNL     1      73.490  36.153  72.754  1.00  0.00     0.070 C 
HETATM   22  C16 UNL     1      73.895  36.680  70.288  1.00  0.00     0.027 A 
HETATM   23  C17 UNL     1      72.933  35.616  69.947  1.00  0.00     0.070 C 
ATOM     24  H4  UNL     1      74.300  37.115  68.391  1.00  0.00     0.165 HD
ENDBRANCH   1  14
TORSDOF 1
ENDMDL
MODEL 4
REMARK VINA RESULT: -5.310947888      1.220      1.521
REMARK  1 active torsions:
REMARK  status: ('A' for Active; 'I' for Inactive)
REMARK    1  A    between atoms: C5_7  and  C6_8 
ROOT
HETATM    1  C6  UNL     1      77.601  39.946  69.031  1.00  0.00     0.041 A 
HETATM    2  N2  UNL     1      77.508  39.575  70.312  1.00  0.00    -0.353 N 
ATOM      3  H2  UNL     1      78.131  39.912  71.047  1.00  0.00     0.166 HD
HETATM    4  C7  UNL     1      76.495  38.704  70.525  1.00  0.00     0.068 A 
HETATM    5  C8  UNL     1      76.033  38.068  71.656  1.00  0.00     0.074 A 
HETATM    6  N3  UNL     1      76.669  38.293  72.904  1.00  0.00    -0.100 NA
HETATM    7  C9  UNL     1      74.961  37.217  71.583  1.00  0.00     0.035 A 
HETATM    8  C10 UNL     1      74.345  36.996  70.368  1.00  0.00    -0.059 A 
HETATM    9  C11 UNL     1      73.165  36.067  70.259  1.00  0.00     0.048 C 
HETATM   10  C12 UNL     1      74.806  37.630  69.240  1.00  0.00     0.021 A 
HETATM   11  C13 UNL     1      75.893  38.496  69.302  1.00  0.00     0.001 A 
HETATM   12  C14 UNL     1      76.571  39.258  68.379  1.00  0.00    -0.023 A 
HETATM   13  C15 UNL     1      76.251  39.333  66.940  1.00  0.00     0.051 C 
ENDROOT
BRANCH   1  14
HETATM   14  C5  UNL     1      78.504  40.868  68.372  1.00  0.00     0.056 C 
HETATM   15  C4  UNL     1      79.091  41.895  68.990  1.00  0.00     0.029 A 
HETATM   16  C3  UNL     1      78.831  42.131  70.410  1.00  0.00     0.176 A 
HETATM   17  N4  UNL     1      79.955  42.769  68.277  1.00  0.00    -0.360 N 
HETATM   18  N1  UNL     1      79.416  43.361  70.859  1.00  0.00    -0.386 N 
HETATM   19  C2  UNL     1      80.176  44.145  70.218  1.00  0.00     0.023 A 
ATOM     20  H1  UNL     1      79.192  43.639  71.815  1.00  0.00     0.159 HD
HETATM   21  C1  UNL     1      80.727  45.396  70.805  1.00  0.00     0.070 C 
HETATM   22  C16 UNL     1      80.466  43.812  68.819  1.00  0.00     0.027 A 
HETATM   23  C17 UNL     1      81.359  44.698  68.050  1.00  0.00     0.070 C 
ATOM     24  H4  UNL     1      80.175  42.558  67.304  1.00  0.00     0.165 HD
ENDBRANCH   1  14
TORSDOF 1
ENDMDL
MODEL 5
REMARK VINA RESULT: -5.123703444      1.740      7.485
REMARK  1 active torsions:
REMARK  status: ('A' for Active; 'I' for Inactive)
REMARK    1  A    between atoms: C5_7  and  C6_8 
ROOT
HETATM    1  C6  UNL     1      78.376  39.816  70.143  1.00  0.00     0.041 A 
HETATM    2  N2  UNL     1      78.483  40.394  68.943  1.00  0.00    -0.353 N 
ATOM      3  H2  UNL     1      78.113  39.989  68.083  1.00  0.00     0.166 HD
HETATM    4  C7  UNL     1      79.138  41.577  68.996  1.00  0.00     0.068 A 
HETATM    5  C8  UNL     1      79.475  42.502  68.032  1.00  0.00     0.074 A 
HETATM    6  N3  UNL     1      79.120  42.273  66.678  1.00  0.00    -0.100 NA
HETATM    7  C9  UNL     1      80.154  43.641  68.374  1.00  0.00     0.035 A 
HETATM    8  C10 UNL     1      80.503  43.861  69.691  1.00  0.00    -0.059 A 
HETATM    9  C11 UNL     1      81.248  45.105  70.095  1.00  0.00     0.048 C 
HETATM   10  C12 UNL     1      80.166  42.939  70.652  1.00  0.00     0.021 A 
HETATM   11  C13 UNL     1      79.476  41.778  70.317  1.00  0.00     0.001 A 
HETATM   12  C14 UNL     1      79.010  40.697  71.028  1.00  0.00    -0.023 A 
HETATM   13  C15 UNL     1      79.157  40.510  72.485  1.00  0.00     0.051 C 
ENDROOT
BRANCH   1  14
HETATM   14  C5  UNL     1      77.739  38.579  70.549  1.00  0.00     0.056 C 
HETATM   15  C4  UNL     1      76.584  38.528  71.216  1.00  0.00     0.029 A 
HETATM   16  C3  UNL     1      75.897  39.769  71.572  1.00  0.00     0.176 A 
HETATM   17  N4  UNL     1      76.024  37.279  71.594  1.00  0.00    -0.360 N 
HETATM   18  N1  UNL     1      74.765  39.525  72.417  1.00  0.00    -0.386 N 
HETATM   19  C2  UNL     1      74.273  38.410  72.764  1.00  0.00     0.023 A 
ATOM     20  H1  UNL     1      74.296  40.353  72.786  1.00  0.00     0.159 HD
HETATM   21  C1  UNL     1      73.082  38.290  73.647  1.00  0.00     0.070 C 
HETATM   22  C16 UNL     1      74.962  37.197  72.308  1.00  0.00     0.027 A 
HETATM   23  C17 UNL     1      74.407  35.883  72.683  1.00  0.00     0.070 C 
ATOM     24  H4  UNL     1      76.481  36.420  71.288  1.00  0.00     0.165 HD
ENDBRANCH   1  14
TORSDOF 1
ENDMDL
