MODEL 1
REMARK VINA RESULT: -7.678599477      0.000      0.000
REMARK  3 active torsions:
REMARK  status: ('A' for Active; 'I' for Inactive)
REMARK    1  A    between atoms: C2_2  and  C5_5 
REMARK    2  A    between atoms: C11_13  and  N2_14 
REMARK    3  A    between atoms: N2_14  and  C12_16 
ROOT
HETATM    1  C5  UNL     1      74.806  37.575  71.317  1.00  0.00    -0.003 C 
HETATM    2  C6  UNL     1      73.577  36.892  70.780  1.00  0.00     0.005 C 
HETATM    3  C7  UNL     1      73.943  36.451  69.366  1.00  0.00     0.005 C 
HETATM    4  C8  UNL     1      74.163  37.661  68.528  1.00  0.00     0.054 C 
HETATM    5  C9  UNL     1      75.019  38.712  69.082  1.00  0.00     0.109 A 
HETATM    6  C10 UNL     1      75.128  38.823  70.552  1.00  0.00     0.059 C 
HETATM    7  N1  UNL     1      76.282  38.855  68.387  1.00  0.00    -0.336 N 
ATOM      8  H1  UNL     1      77.094  38.239  68.343  1.00  0.00     0.165 HD
HETATM    9  C11 UNL     1      76.062  39.998  67.844  1.00  0.00     0.175 A 
HETATM   10  N3  UNL     1      74.782  40.000  68.465  1.00  0.00    -0.336 N 
ATOM     11  H3  UNL     1      74.000  40.655  68.472  1.00  0.00     0.165 HD
ENDROOT
BRANCH   1  12
HETATM   12  C2  UNL     1      74.626  37.832  72.776  1.00  0.00    -0.048 C 
HETATM   13  C1  UNL     1      74.497  39.283  73.109  1.00  0.00     0.015 C 
HETATM   14  C3  UNL     1      75.740  37.255  73.618  1.00  0.00     0.015 C 
HETATM   15  C4  UNL     1      73.345  37.124  73.216  1.00  0.00     0.015 C 
ENDBRANCH   1  12
BRANCH   9  16
HETATM   16  N2  UNL     1      76.723  40.927  66.994  1.00  0.00    -0.358 N 
ATOM     17  H2  UNL     1      76.659  40.810  65.982  1.00  0.00     0.163 HD
BRANCH  16  18
HETATM   18  C12 UNL     1      77.483  42.035  67.532  1.00  0.00     0.084 C 
HETATM   19  C13 UNL     1      78.956  41.850  67.388  1.00  0.00     0.025 C 
HETATM   20  C14 UNL     1      79.484  40.881  68.431  1.00  0.00     0.002 C 
HETATM   21  C15 UNL     1      79.274  41.587  69.773  1.00  0.00     0.000 C 
HETATM   22  C16 UNL     1      77.808  41.703  70.004  1.00  0.00     0.002 C 
HETATM   23  C17 UNL     1      77.043  42.376  68.925  1.00  0.00     0.025 C 
ENDBRANCH  16  18
ENDBRANCH   9  16
TORSDOF 3
ENDMDL
MODEL 2
REMARK VINA RESULT: -7.573323835      1.323      5.981
REMARK  3 active torsions:
REMARK  status: ('A' for Active; 'I' for Inactive)
REMARK    1  A    between atoms: C2_2  and  C5_5 
REMARK    2  A    between atoms: C11_13  and  N2_14 
REMARK    3  A    between atoms: N2_14  and  C12_16 
ROOT
HETATM    1  C5  UNL     1      77.473  41.705  69.090  1.00  0.00    -0.003 C 
HETATM    2  C6  UNL     1      77.148  42.368  67.778  1.00  0.00     0.005 C 
HETATM    3  C7  UNL     1      75.625  42.399  67.705  1.00  0.00     0.005 C 
HETATM    4  C8  UNL     1      75.120  41.003  67.617  1.00  0.00     0.054 C 
HETATM    5  C9  UNL     1      75.668  40.032  68.568  1.00  0.00     0.109 A 
HETATM    6  C10 UNL     1      77.016  40.279  69.120  1.00  0.00     0.059 C 
HETATM    7  N1  UNL     1      74.704  39.579  69.550  1.00  0.00    -0.336 N 
ATOM      8  H1  UNL     1      74.263  40.069  70.328  1.00  0.00     0.165 HD
HETATM    9  C11 UNL     1      74.578  38.369  69.137  1.00  0.00     0.175 A 
HETATM   10  N3  UNL     1      75.518  38.667  68.111  1.00  0.00    -0.336 N 
ATOM     11  H3  UNL     1      75.926  38.127  67.347  1.00  0.00     0.165 HD
ENDROOT
BRANCH   1  12
HETATM   12  C2  UNL     1      78.934  41.841  69.359  1.00  0.00    -0.048 C 
HETATM   13  C1  UNL     1      79.578  40.562  69.787  1.00  0.00     0.015 C 
HETATM   14  C3  UNL     1      79.248  42.894  70.396  1.00  0.00     0.015 C 
HETATM   15  C4  UNL     1      79.604  42.303  68.064  1.00  0.00     0.015 C 
ENDBRANCH   1  12
BRANCH   9  16
HETATM   16  N2  UNL     1      73.859  37.189  69.473  1.00  0.00    -0.358 N 
ATOM     17  H2  UNL     1      72.984  36.985  68.992  1.00  0.00     0.163 HD
BRANCH  16  18
HETATM   18  C12 UNL     1      74.343  36.273  70.484  1.00  0.00     0.084 C 
HETATM   19  C13 UNL     1      73.559  36.343  71.751  1.00  0.00     0.025 C 
HETATM   20  C14 UNL     1      73.952  37.565  72.562  1.00  0.00     0.002 C 
HETATM   21  C15 UNL     1      75.406  37.319  72.975  1.00  0.00     0.000 C 
HETATM   22  C16 UNL     1      76.240  37.341  71.742  1.00  0.00     0.002 C 
HETATM   23  C17 UNL     1      75.825  36.399  70.674  1.00  0.00     0.025 C 
ENDBRANCH  16  18
ENDBRANCH   9  16
TORSDOF 3
ENDMDL
MODEL 3
REMARK VINA RESULT: -7.286985701      2.102      6.716
REMARK  3 active torsions:
REMARK  status: ('A' for Active; 'I' for Inactive)
REMARK    1  A    between atoms: C2_2  and  C5_5 
REMARK    2  A    between atoms: C11_13  and  N2_14 
REMARK    3  A    between atoms: N2_14  and  C12_16 
ROOT
HETATM    1  C5  UNL     1      78.494  40.867  69.157  1.00  0.00    -0.003 C 
HETATM    2  C6  UNL     1      79.156  41.957  69.956  1.00  0.00     0.005 C 
HETATM    3  C7  UNL     1      79.678  41.276  71.218  1.00  0.00     0.005 C 
HETATM    4  C8  UNL     1      78.519  40.801  72.020  1.00  0.00     0.054 C 
HETATM    5  C9  UNL     1      77.475  40.057  71.311  1.00  0.00     0.109 A 
HETATM    6  C10 UNL     1      77.298  40.308  69.865  1.00  0.00     0.059 C 
HETATM    7  N1  UNL     1      77.412  38.657  71.677  1.00  0.00    -0.336 N 
ATOM      8  H1  UNL     1      78.060  37.890  71.496  1.00  0.00     0.165 HD
HETATM    9  C11 UNL     1      76.289  38.682  72.300  1.00  0.00     0.175 A 
HETATM   10  N3  UNL     1      76.211  40.073  72.016  1.00  0.00    -0.336 N 
ATOM     11  H3  UNL     1      75.528  40.801  72.227  1.00  0.00     0.165 HD
ENDROOT
BRANCH   1  12
HETATM   12  C2  UNL     1      78.161  41.387  67.799  1.00  0.00    -0.048 C 
HETATM   13  C1  UNL     1      77.791  40.311  66.829  1.00  0.00     0.015 C 
HETATM   14  C3  UNL     1      79.277  42.203  67.190  1.00  0.00     0.015 C 
HETATM   15  C4  UNL     1      76.967  42.331  67.945  1.00  0.00     0.015 C 
ENDBRANCH   1  12
BRANCH   9  16
HETATM   16  N2  UNL     1      75.428  37.789  72.995  1.00  0.00    -0.358 N 
ATOM     17  H2  UNL     1      75.002  38.088  73.872  1.00  0.00     0.163 HD
BRANCH  16  18
HETATM   18  C12 UNL     1      75.141  36.465  72.483  1.00  0.00     0.084 C 
HETATM   19  C13 UNL     1      75.502  36.310  71.045  1.00  0.00     0.025 C 
HETATM   20  C14 UNL     1      74.462  36.963  70.153  1.00  0.00     0.002 C 
HETATM   21  C15 UNL     1      73.186  36.143  70.361  1.00  0.00     0.000 C 
HETATM   22  C16 UNL     1      72.733  36.351  71.764  1.00  0.00     0.002 C 
HETATM   23  C17 UNL     1      73.739  36.044  72.811  1.00  0.00     0.025 C 
ENDBRANCH  16  18
ENDBRANCH   9  16
TORSDOF 3
ENDMDL
MODEL 4
REMARK VINA RESULT: -6.857971928      3.938      5.296
REMARK  3 active torsions:
REMARK  status: ('A' for Active; 'I' for Inactive)
REMARK    1  A    between atoms: C2_2  and  C5_5 
REMARK    2  A    between atoms: C11_13  and  N2_14 
REMARK    3  A    between atoms: N2_14  and  C12_16 
ROOT
HETATM    1  C5  UNL     1      77.338  39.624  71.549  1.00  0.00    -0.003 C 
HETATM    2  C6  UNL     1      78.256  38.614  70.915  1.00  0.00     0.005 C 
HETATM    3  C7  UNL     1      79.664  39.031  71.327  1.00  0.00     0.005 C 
HETATM    4  C8  UNL     1      79.977  40.345  70.704  1.00  0.00     0.054 C 
HETATM    5  C9  UNL     1      78.967  41.400  70.824  1.00  0.00     0.109 A 
HETATM    6  C10 UNL     1      77.555  40.999  70.993  1.00  0.00     0.059 C 
HETATM    7  N1  UNL     1      79.373  42.494  71.681  1.00  0.00    -0.336 N 
ATOM      8  H1  UNL     1      79.514  42.536  72.691  1.00  0.00     0.165 HD
HETATM    9  C11 UNL     1      79.502  43.397  70.776  1.00  0.00     0.175 A 
HETATM   10  N3  UNL     1      79.116  42.424  69.812  1.00  0.00    -0.336 N 
ATOM     11  H3  UNL     1      78.992  42.441  68.800  1.00  0.00     0.165 HD
ENDROOT
BRANCH   1  12
HETATM   12  C2  UNL     1      75.926  39.166  71.399  1.00  0.00    -0.048 C 
HETATM   13  C1  UNL     1      75.102  39.378  72.628  1.00  0.00     0.015 C 
HETATM   14  C3  UNL     1      75.817  37.711  71.007  1.00  0.00     0.015 C 
HETATM   15  C4  UNL     1      75.297  39.966  70.258  1.00  0.00     0.015 C 
ENDBRANCH   1  12
BRANCH   9  16
HETATM   16  N2  UNL     1      79.861  44.768  70.671  1.00  0.00    -0.358 N 
ATOM     17  H2  UNL     1      79.218  45.480  71.018  1.00  0.00     0.163 HD
BRANCH  16  18
HETATM   18  C12 UNL     1      81.119  45.177  70.082  1.00  0.00     0.084 C 
HETATM   19  C13 UNL     1      82.301  44.719  70.868  1.00  0.00     0.025 C 
HETATM   20  C14 UNL     1      82.504  45.590  72.095  1.00  0.00     0.002 C 
HETATM   21  C15 UNL     1      82.868  46.973  71.547  1.00  0.00     0.000 C 
HETATM   22  C16 UNL     1      81.675  47.511  70.837  1.00  0.00     0.002 C 
HETATM   23  C17 UNL     1      81.125  46.643  69.766  1.00  0.00     0.025 C 
ENDBRANCH  16  18
ENDBRANCH   9  16
TORSDOF 3
ENDMDL
MODEL 5
REMARK VINA RESULT: -6.848799108      1.407      5.937
REMARK  3 active torsions:
REMARK  status: ('A' for Active; 'I' for Inactive)
REMARK    1  A    between atoms: C2_2  and  C5_5 
REMARK    2  A    between atoms: C11_13  and  N2_14 
REMARK    3  A    between atoms: N2_14  and  C12_16 
ROOT
HETATM    1  C5  UNL     1      77.217  41.396  68.516  1.00  0.00    -0.003 C 
HETATM    2  C6  UNL     1      76.825  41.633  67.083  1.00  0.00     0.005 C 
HETATM    3  C7  UNL     1      75.305  41.498  67.050  1.00  0.00     0.005 C 
HETATM    4  C8  UNL     1      74.943  40.090  67.366  1.00  0.00     0.054 C 
HETATM    5  C9  UNL     1      75.586  39.479  68.532  1.00  0.00     0.109 A 
HETATM    6  C10 UNL     1      76.904  39.997  68.953  1.00  0.00     0.059 C 
HETATM    7  N1  UNL     1      74.675  39.227  69.629  1.00  0.00    -0.336 N 
ATOM      8  H1  UNL     1      74.189  39.870  70.254  1.00  0.00     0.165 HD
HETATM    9  C11 UNL     1      74.670  37.944  69.571  1.00  0.00     0.175 A 
HETATM   10  N3  UNL     1      75.572  38.033  68.475  1.00  0.00    -0.336 N 
ATOM     11  H3  UNL     1      76.032  37.344  67.879  1.00  0.00     0.165 HD
ENDROOT
BRANCH   1  12
HETATM   12  C2  UNL     1      78.658  41.740  68.694  1.00  0.00    -0.048 C 
HETATM   13  C1  UNL     1      78.878  42.913  69.593  1.00  0.00     0.015 C 
HETATM   14  C3  UNL     1      79.365  42.011  67.387  1.00  0.00     0.015 C 
HETATM   15  C4  UNL     1      79.351  40.526  69.313  1.00  0.00     0.015 C 
ENDBRANCH   1  12
BRANCH   9  16
HETATM   16  N2  UNL     1      74.073  36.842  70.242  1.00  0.00    -0.358 N 
ATOM     17  H2  UNL     1      73.281  36.365  69.810  1.00  0.00     0.163 HD
BRANCH  16  18
HETATM   18  C12 UNL     1      74.564  36.382  71.523  1.00  0.00     0.084 C 
HETATM   19  C13 UNL     1      73.696  36.802  72.660  1.00  0.00     0.025 C 
HETATM   20  C14 UNL     1      73.930  38.261  73.009  1.00  0.00     0.002 C 
HETATM   21  C15 UNL     1      75.369  38.321  73.528  1.00  0.00     0.000 C 
HETATM   22  C16 UNL     1      76.278  38.004  72.393  1.00  0.00     0.002 C 
HETATM   23  C17 UNL     1      76.015  36.715  71.705  1.00  0.00     0.025 C 
ENDBRANCH  16  18
ENDBRANCH   9  16
TORSDOF 3
ENDMDL
