MODEL 1
REMARK VINA RESULT: -8.672358802      0.000      0.000
REMARK  4 active torsions:
REMARK  status: ('A' for Active; 'I' for Inactive)
REMARK    1  A    between atoms: C2_2  and  C3_3 
REMARK    2  A    between atoms: C5_7  and  C6_8 
REMARK    3  A    between atoms: C11_13  and  C12_14 
REMARK    4  A    between atoms: C16_19  and  O1_20 
ROOT
HETATM    1  C12 UNL     1      79.232  40.692  70.063  1.00  0.00     0.071 C 
HETATM    2  C13 UNL     1      79.839  41.038  68.720  1.00  0.00     0.036 C 
HETATM    3  C14 UNL     1      80.187  39.766  70.775  1.00  0.00     0.036 C 
HETATM    4  C15 UNL     1      78.943  41.891  70.845  1.00  0.00     0.073 C 
HETATM    5  N2  UNL     1      78.700  42.842  71.471  1.00  0.00    -0.196 NA
ENDROOT
BRANCH   1   6
HETATM    6  C11 UNL     1      77.932  40.022  69.798  1.00  0.00    -0.000 A 
HETATM    7  C10 UNL     1      77.114  40.446  68.749  1.00  0.00     0.022 A 
HETATM    8  C5  UNL     1      75.904  39.851  68.472  1.00  0.00    -0.021 A 
HETATM    9  C4  UNL     1      75.516  38.804  69.278  1.00  0.00     0.070 A 
HETATM   10  N1  UNL     1      74.432  38.044  69.262  1.00  0.00    -0.344 N 
HETATM   11  C17 UNL     1      76.329  38.395  70.308  1.00  0.00     0.095 A 
HETATM   12  C3  UNL     1      74.512  37.142  70.261  1.00  0.00     0.081 A 
ATOM     13  H1  UNL     1      73.660  38.129  68.600  1.00  0.00     0.167 HD
HETATM   14  N3  UNL     1      75.678  37.370  70.891  1.00  0.00    -0.342 N 
ATOM     15  H3  UNL     1      76.021  36.844  71.694  1.00  0.00     0.167 HD
HETATM   16  C16 UNL     1      77.546  38.982  70.599  1.00  0.00     0.102 A 
BRANCH   8  17
HETATM   17  C6  UNL     1      75.112  40.364  67.357  1.00  0.00    -0.022 C 
HETATM   18  C7  UNL     1      74.889  41.851  67.556  1.00  0.00     0.019 C 
HETATM   19  C8  UNL     1      75.827  40.188  66.064  1.00  0.00     0.019 C 
HETATM   20  C9  UNL     1      73.746  39.729  67.248  1.00  0.00     0.019 C 
ENDBRANCH   8  17
BRANCH  12  21
HETATM   21  C2  UNL     1      73.507  36.089  70.609  1.00  0.00     0.072 C 
HETATM   22  C1  UNL     1      73.162  36.205  72.066  1.00  0.00     0.013 C 
ENDBRANCH  12  21
BRANCH  16  23
HETATM   23  O1  UNL     1      78.338  38.526  71.662  1.00  0.00    -0.358 OA
ATOM     24  H1  UNL     1      77.986  37.979  72.355  1.00  0.00     0.217 HD
ENDBRANCH  16  23
ENDBRANCH   1   6
TORSDOF 4
ENDMDL
MODEL 2
REMARK VINA RESULT: -8.361171178      1.533      1.903
REMARK  4 active torsions:
REMARK  status: ('A' for Active; 'I' for Inactive)
REMARK    1  A    between atoms: C2_2  and  C3_3 
REMARK    2  A    between atoms: C5_7  and  C6_8 
REMARK    3  A    between atoms: C11_13  and  C12_14 
REMARK    4  A    between atoms: C16_19  and  O1_20 
ROOT
HETATM    1  C12 UNL     1      78.898  42.115  70.190  1.00  0.00     0.071 C 
HETATM    2  C13 UNL     1      80.040  41.566  71.017  1.00  0.00     0.036 C 
HETATM    3  C14 UNL     1      78.475  43.428  70.804  1.00  0.00     0.036 C 
HETATM    4  C15 UNL     1      79.273  42.261  68.787  1.00  0.00     0.073 C 
HETATM    5  N2  UNL     1      79.561  42.370  67.664  1.00  0.00    -0.196 NA
ENDROOT
BRANCH   1   6
HETATM    6  C11 UNL     1      77.796  41.119  70.245  1.00  0.00    -0.000 A 
HETATM    7  C10 UNL     1      76.929  40.958  69.163  1.00  0.00     0.022 A 
HETATM    8  C5  UNL     1      75.897  40.046  69.175  1.00  0.00    -0.021 A 
HETATM    9  C4  UNL     1      75.743  39.283  70.309  1.00  0.00     0.070 A 
HETATM   10  N1  UNL     1      74.865  38.340  70.615  1.00  0.00    -0.344 N 
HETATM   11  C17 UNL     1      76.602  39.450  71.369  1.00  0.00     0.095 A 
HETATM   12  C3  UNL     1      75.127  37.880  71.856  1.00  0.00     0.081 A 
ATOM     13  H1  UNL     1      74.111  38.014  70.010  1.00  0.00     0.167 HD
HETATM   14  N3  UNL     1      76.192  38.570  72.303  1.00  0.00    -0.342 N 
ATOM     15  H3  UNL     1      76.627  38.445  73.216  1.00  0.00     0.167 HD
HETATM   16  C16 UNL     1      77.642  40.360  71.372  1.00  0.00     0.102 A 
BRANCH   8  17
HETATM   17  C6  UNL     1      75.036  39.950  67.998  1.00  0.00    -0.022 C 
HETATM   18  C7  UNL     1      74.084  41.130  67.989  1.00  0.00     0.019 C 
HETATM   19  C8  UNL     1      75.833  40.008  66.743  1.00  0.00     0.019 C 
HETATM   20  C9  UNL     1      74.185  38.703  67.977  1.00  0.00     0.019 C 
ENDBRANCH   8  17
BRANCH  12  21
HETATM   21  C2  UNL     1      74.386  36.813  72.599  1.00  0.00     0.072 C 
HETATM   22  C1  UNL     1      73.285  36.284  71.725  1.00  0.00     0.013 C 
ENDBRANCH  12  21
BRANCH  16  23
HETATM   23  O1  UNL     1      78.491  40.491  72.481  1.00  0.00    -0.358 OA
ATOM     24  H1  UNL     1      78.213  40.922  73.281  1.00  0.00     0.217 HD
ENDBRANCH  16  23
ENDBRANCH   1   6
TORSDOF 4
ENDMDL
MODEL 3
REMARK VINA RESULT: -8.240108580      1.358      1.482
REMARK  4 active torsions:
REMARK  status: ('A' for Active; 'I' for Inactive)
REMARK    1  A    between atoms: C2_2  and  C3_3 
REMARK    2  A    between atoms: C5_7  and  C6_8 
REMARK    3  A    between atoms: C11_13  and  C12_14 
REMARK    4  A    between atoms: C16_19  and  O1_20 
ROOT
HETATM    1  C12 UNL     1      79.184  41.423  70.161  1.00  0.00     0.071 C 
HETATM    2  C13 UNL     1      79.526  41.410  68.687  1.00  0.00     0.036 C 
HETATM    3  C14 UNL     1      80.323  40.769  70.904  1.00  0.00     0.036 C 
HETATM    4  C15 UNL     1      78.922  42.778  70.639  1.00  0.00     0.073 C 
HETATM    5  N2  UNL     1      78.701  43.853  71.025  1.00  0.00    -0.196 NA
ENDROOT
BRANCH   1   6
HETATM    6  C11 UNL     1      77.924  40.652  70.326  1.00  0.00    -0.000 A 
HETATM    7  C10 UNL     1      77.047  40.483  69.253  1.00  0.00     0.022 A 
HETATM    8  C5  UNL     1      75.871  39.776  69.367  1.00  0.00    -0.021 A 
HETATM    9  C4  UNL     1      75.579  39.230  70.595  1.00  0.00     0.070 A 
HETATM   10  N1  UNL     1      74.548  38.510  71.009  1.00  0.00    -0.344 N 
HETATM   11  C17 UNL     1      76.449  39.402  71.646  1.00  0.00     0.095 A 
HETATM   12  C3  UNL     1      74.719  38.202  72.311  1.00  0.00     0.081 A 
ATOM     13  H1  UNL     1      73.752  38.232  70.434  1.00  0.00     0.167 HD
HETATM   14  N3  UNL     1      75.886  38.756  72.685  1.00  0.00    -0.342 N 
ATOM     15  H3  UNL     1      76.288  38.696  73.620  1.00  0.00     0.167 HD
HETATM   16  C16 UNL     1      77.633  40.109  71.548  1.00  0.00     0.102 A 
BRANCH   8  17
HETATM   17  C6  UNL     1      75.012  39.655  68.190  1.00  0.00    -0.022 C 
HETATM   18  C7  UNL     1      74.027  40.808  68.182  1.00  0.00     0.019 C 
HETATM   19  C8  UNL     1      75.806  39.736  66.935  1.00  0.00     0.019 C 
HETATM   20  C9  UNL     1      74.197  38.385  68.170  1.00  0.00     0.019 C 
ENDBRANCH   8  17
BRANCH  12  21
HETATM   21  C2  UNL     1      73.797  37.404  73.179  1.00  0.00     0.072 C 
HETATM   22  C1  UNL     1      73.244  36.259  72.379  1.00  0.00     0.013 C 
ENDBRANCH  12  21
BRANCH  16  23
HETATM   23  O1  UNL     1      78.486  40.255  72.651  1.00  0.00    -0.358 OA
ATOM     24  H1  UNL     1      78.273  40.824  73.381  1.00  0.00     0.217 HD
ENDBRANCH  16  23
ENDBRANCH   1   6
TORSDOF 4
ENDMDL
MODEL 4
REMARK VINA RESULT: -8.189073458      0.983      1.383
REMARK  4 active torsions:
REMARK  status: ('A' for Active; 'I' for Inactive)
REMARK    1  A    between atoms: C2_2  and  C3_3 
REMARK    2  A    between atoms: C5_7  and  C6_8 
REMARK    3  A    between atoms: C11_13  and  C12_14 
REMARK    4  A    between atoms: C16_19  and  O1_20 
ROOT
HETATM    1  C12 UNL     1      79.047  41.037  70.363  1.00  0.00     0.071 C 
HETATM    2  C13 UNL     1      78.650  42.020  71.444  1.00  0.00     0.036 C 
HETATM    3  C14 UNL     1      79.596  41.829  69.201  1.00  0.00     0.036 C 
HETATM    4  C15 UNL     1      80.006  40.053  70.859  1.00  0.00     0.073 C 
HETATM    5  N2  UNL     1      80.762  39.259  71.249  1.00  0.00    -0.196 NA
ENDROOT
BRANCH   1   6
HETATM    6  C11 UNL     1      77.822  40.293  69.974  1.00  0.00    -0.000 A 
HETATM    7  C10 UNL     1      77.116  40.639  68.820  1.00  0.00     0.022 A 
HETATM    8  C5  UNL     1      75.977  39.974  68.426  1.00  0.00    -0.021 A 
HETATM    9  C4  UNL     1      75.545  38.936  69.220  1.00  0.00     0.070 A 
HETATM   10  N1  UNL     1      74.507  38.122  69.106  1.00  0.00    -0.344 N 
HETATM   11  C17 UNL     1      76.246  38.604  70.354  1.00  0.00     0.095 A 
HETATM   12  C3  UNL     1      74.509  37.258  70.142  1.00  0.00     0.081 A 
ATOM     13  H1  UNL     1      73.816  38.145  68.355  1.00  0.00     0.167 HD
HETATM   14  N3  UNL     1      75.579  37.568  70.896  1.00  0.00    -0.342 N 
ATOM     15  H3  UNL     1      75.847  37.086  71.754  1.00  0.00     0.167 HD
HETATM   16  C16 UNL     1      77.391  39.262  70.763  1.00  0.00     0.102 A 
BRANCH   8  17
HETATM   17  C6  UNL     1      75.301  40.409  67.205  1.00  0.00    -0.022 C 
HETATM   18  C7  UNL     1      74.846  41.845  67.381  1.00  0.00     0.019 C 
HETATM   19  C8  UNL     1      76.223  40.371  66.038  1.00  0.00     0.019 C 
HETATM   20  C9  UNL     1      74.070  39.598  66.880  1.00  0.00     0.019 C 
ENDBRANCH   8  17
BRANCH  12  21
HETATM   21  C2  UNL     1      73.519  36.168  70.410  1.00  0.00     0.072 C 
HETATM   22  C1  UNL     1      73.168  36.175  71.870  1.00  0.00     0.013 C 
ENDBRANCH  12  21
BRANCH  16  23
HETATM   23  O1  UNL     1      78.070  38.883  71.930  1.00  0.00    -0.358 OA
ATOM     24  H1  UNL     1      77.843  38.097  72.414  1.00  0.00     0.217 HD
ENDBRANCH  16  23
ENDBRANCH   1   6
TORSDOF 4
ENDMDL
MODEL 5
REMARK VINA RESULT: -8.183766384      2.003      4.188
REMARK  4 active torsions:
REMARK  status: ('A' for Active; 'I' for Inactive)
REMARK    1  A    between atoms: C2_2  and  C3_3 
REMARK    2  A    between atoms: C5_7  and  C6_8 
REMARK    3  A    between atoms: C11_13  and  C12_14 
REMARK    4  A    between atoms: C16_19  and  O1_20 
ROOT
HETATM    1  C12 UNL     1      76.407  40.702  66.869  1.00  0.00     0.071 C 
HETATM    2  C13 UNL     1      75.248  41.674  66.922  1.00  0.00     0.036 C 
HETATM    3  C14 UNL     1      76.119  39.703  65.775  1.00  0.00     0.036 C 
HETATM    4  C15 UNL     1      77.677  41.391  66.663  1.00  0.00     0.073 C 
HETATM    5  N2  UNL     1      78.695  41.934  66.510  1.00  0.00    -0.196 NA
ENDROOT
BRANCH   1   6
HETATM    6  C11 UNL     1      76.483  40.036  68.196  1.00  0.00    -0.000 A 
HETATM    7  C10 UNL     1      77.620  40.171  68.995  1.00  0.00     0.022 A 
HETATM    8  C5  UNL     1      77.728  39.571  70.229  1.00  0.00    -0.021 A 
HETATM    9  C4  UNL     1      76.661  38.816  70.660  1.00  0.00     0.070 A 
HETATM   10  N1  UNL     1      76.469  38.132  71.778  1.00  0.00    -0.344 N 
HETATM   11  C17 UNL     1      75.547  38.688  69.865  1.00  0.00     0.095 A 
HETATM   12  C3  UNL     1      75.250  37.556  71.737  1.00  0.00     0.081 A 
ATOM     13  H1  UNL     1      77.136  38.054  72.545  1.00  0.00     0.167 HD
HETATM   14  N3  UNL     1      74.700  37.906  70.560  1.00  0.00    -0.342 N 
ATOM     15  H3  UNL     1      73.775  37.620  70.241  1.00  0.00     0.167 HD
HETATM   16  C16 UNL     1      75.423  39.285  68.625  1.00  0.00     0.102 A 
BRANCH   8  17
HETATM   17  C6  UNL     1      78.958  39.764  70.995  1.00  0.00    -0.022 C 
HETATM   18  C7  UNL     1      80.005  40.389  70.093  1.00  0.00     0.019 C 
HETATM   19  C8  UNL     1      78.739  40.693  72.136  1.00  0.00     0.019 C 
HETATM   20  C9  UNL     1      79.547  38.477  71.520  1.00  0.00     0.019 C 
ENDBRANCH   8  17
BRANCH  12  21
HETATM   21  C2  UNL     1      74.624  36.694  72.788  1.00  0.00     0.072 C 
HETATM   22  C1  UNL     1      73.243  36.305  72.342  1.00  0.00     0.013 C 
ENDBRANCH  12  21
BRANCH  16  23
HETATM   23  O1  UNL     1      74.263  39.123  67.852  1.00  0.00    -0.358 OA
ATOM     24  H1  UNL     1      73.552  39.752  67.873  1.00  0.00     0.217 HD
ENDBRANCH  16  23
ENDBRANCH   1   6
TORSDOF 4
ENDMDL
