MODEL 1
REMARK VINA RESULT: -6.295025452      0.000      0.000
REMARK  9 active torsions:
REMARK  status: ('A' for Active; 'I' for Inactive)
REMARK    1  A    between atoms: N1_1  and  C1_4 
REMARK    2  A    between atoms: C4_11  and  S1_12 
REMARK    3  A    between atoms: S1_12  and  C5_13 
REMARK    4  A    between atoms: C5_13  and  C6_14 
REMARK    5  A    between atoms: C6_14  and  C7_15 
REMARK    6  A    between atoms: C7_15  and  C8_16 
REMARK    7  A    between atoms: C8_16  and  N4_17 
REMARK    8  A    between atoms: C9_23  and  N6_24 
REMARK    9  A    between atoms: N7_27  and  N8_28 
ROOT
HETATM    1  C1  UNL     1      13.616  45.016  49.203  1.00  0.00     0.692 A 
HETATM    2  N2  UNL     1      14.380  44.310  48.191  1.00  0.00    -0.183 N 
ATOM      3  H2  UNL     1      13.932  43.578  47.638  1.00  0.00     0.184 HD
HETATM    4  C2  UNL     1      15.736  44.625  47.964  1.00  0.00     0.140 A 
HETATM    5  C3  UNL     1      16.349  45.624  48.719  1.00  0.00     0.178 A 
HETATM    6  N3  UNL     1      17.664  45.940  48.508  1.00  0.00    -0.318 N 
ATOM      7  H3  UNL     1      18.097  46.674  49.068  1.00  0.00     0.169 HD
HETATM    8  C4  UNL     1      18.393  45.303  47.579  1.00  0.00     0.147 A 
HETATM    9  N5  UNL     1      17.823  44.344  46.846  1.00  0.00    -0.321 N 
ATOM     10  H5  UNL     1      18.378  43.861  46.140  1.00  0.00     0.169 HD
HETATM   11  C9  UNL     1      16.502  43.991  47.023  1.00  0.00     0.132 A 
HETATM   12  N7  UNL     1      15.609  46.312  49.703  1.00  0.00    -0.169 N 
HETATM   13  N9  UNL     1      14.269  46.016  49.942  1.00  0.00    -0.110 N 
ATOM     14  H9  UNL     1      13.758  46.529  50.660  1.00  0.00     0.208 HD
ENDROOT
BRANCH   8  15
HETATM   15  S1  UNL     1      20.114  45.785  47.366  1.00  0.00    -0.094 SA
BRANCH  15  16
HETATM   16  C5  UNL     1      20.226  47.602  47.099  1.00  0.00     0.082 C 
BRANCH  16  17
HETATM   17  C6  UNL     1      21.070  47.874  45.907  1.00  0.00     0.012 C 
BRANCH  17  18
HETATM   18  C7  UNL     1      21.240  49.288  45.484  1.00  0.00     0.028 C 
BRANCH  18  19
HETATM   19  C8  UNL     1      20.910  49.620  44.069  1.00  0.00     0.229 C 
BRANCH  19  20
HETATM   20  N4  UNL     1      20.074  50.764  43.861  1.00  0.00    -0.079 N 
ATOM     21  H43 UNL     1      19.686  51.072  44.752  1.00  0.00     0.274 HD
ATOM     22  H42 UNL     1      20.651  51.571  43.622  1.00  0.00     0.274 HD
ATOM     23  H41 UNL     1      19.326  50.661  43.176  1.00  0.00     0.274 HD
ENDBRANCH  19  20
ENDBRANCH  18  19
ENDBRANCH  17  18
ENDBRANCH  16  17
ENDBRANCH  15  16
ENDBRANCH   8  15
BRANCH  11  24
HETATM   24  N6  UNL     1      16.005  43.067  46.297  1.00  0.00    -0.383 N 
ATOM     25  H62 UNL     1      15.007  42.867  46.365  1.00  0.00     0.157 HD
ATOM     26  H61 UNL     1      16.596  42.534  45.659  1.00  0.00     0.157 HD
ENDBRANCH  11  24
BRANCH  12  27
HETATM   27  N8  UNL     1      16.260  47.307  50.441  1.00  0.00    -0.322 N 
ATOM     28  H82 UNL     1      16.586  47.120  51.389  1.00  0.00     0.179 HD
ATOM     29  H81 UNL     1      16.396  48.218  50.004  1.00  0.00     0.179 HD
ENDBRANCH  12  27
BRANCH   1  30
HETATM   30  N1  UNL     1      12.393  44.721  49.399  1.00  0.00    -0.233 N 
ATOM     31  H12 UNL     1      11.991  43.838  49.083  1.00  0.00     0.174 HD
ATOM     32  H11 UNL     1      11.781  45.377  49.885  1.00  0.00     0.174 HD
ENDBRANCH   1  30
TORSDOF 9
ENDMDL
MODEL 2
REMARK VINA RESULT: -6.270955530      2.741      3.259
REMARK  9 active torsions:
REMARK  status: ('A' for Active; 'I' for Inactive)
REMARK    1  A    between atoms: N1_1  and  C1_4 
REMARK    2  A    between atoms: C4_11  and  S1_12 
REMARK    3  A    between atoms: S1_12  and  C5_13 
REMARK    4  A    between atoms: C5_13  and  C6_14 
REMARK    5  A    between atoms: C6_14  and  C7_15 
REMARK    6  A    between atoms: C7_15  and  C8_16 
REMARK    7  A    between atoms: C8_16  and  N4_17 
REMARK    8  A    between atoms: C9_23  and  N6_24 
REMARK    9  A    between atoms: N7_27  and  N8_28 
ROOT
HETATM    1  C1  UNL     1      12.195  46.835  47.258  1.00  0.00     0.692 A 
HETATM    2  N2  UNL     1      12.842  45.942  46.314  1.00  0.00    -0.183 N 
ATOM      3  H2  UNL     1      12.294  45.515  45.566  1.00  0.00     0.184 HD
HETATM    4  C2  UNL     1      14.219  45.658  46.422  1.00  0.00     0.140 A 
HETATM    5  C3  UNL     1      14.967  46.240  47.444  1.00  0.00     0.178 A 
HETATM    6  N3  UNL     1      16.304  45.974  47.558  1.00  0.00    -0.318 N 
ATOM      7  H3  UNL     1      16.838  46.408  48.310  1.00  0.00     0.169 HD
HETATM    8  C4  UNL     1      16.927  45.151  46.699  1.00  0.00     0.147 A 
HETATM    9  N5  UNL     1      16.227  44.585  45.714  1.00  0.00    -0.321 N 
ATOM     10  H5  UNL     1      16.701  43.960  45.061  1.00  0.00     0.169 HD
HETATM   11  C9  UNL     1      14.878  44.824  45.559  1.00  0.00     0.132 A 
HETATM   12  N7  UNL     1      14.341  47.110  48.362  1.00  0.00    -0.169 N 
HETATM   13  N9  UNL     1      12.983  47.402  48.273  1.00  0.00    -0.110 N 
ATOM     14  H9  UNL     1      12.556  48.034  48.951  1.00  0.00     0.208 HD
ENDROOT
BRANCH   8  15
HETATM   15  S1  UNL     1      18.688  44.859  46.922  1.00  0.00    -0.094 SA
BRANCH  15  16
HETATM   16  C5  UNL     1      19.539  46.440  47.325  1.00  0.00     0.082 C 
BRANCH  16  17
HETATM   17  C6  UNL     1      20.995  46.295  47.076  1.00  0.00     0.012 C 
BRANCH  17  18
HETATM   18  C7  UNL     1      21.863  45.919  48.222  1.00  0.00     0.028 C 
BRANCH  18  19
HETATM   19  C8  UNL     1      21.360  46.232  49.589  1.00  0.00     0.229 C 
BRANCH  19  20
HETATM   20  N4  UNL     1      21.971  47.344  50.254  1.00  0.00    -0.079 N 
ATOM     21  H43 UNL     1      22.310  48.013  49.563  1.00  0.00     0.274 HD
ATOM     22  H42 UNL     1      21.254  47.903  50.716  1.00  0.00     0.274 HD
ATOM     23  H41 UNL     1      22.715  47.124  50.914  1.00  0.00     0.274 HD
ENDBRANCH  19  20
ENDBRANCH  18  19
ENDBRANCH  17  18
ENDBRANCH  16  17
ENDBRANCH  15  16
ENDBRANCH   8  15
BRANCH  11  24
HETATM   24  N6  UNL     1      14.254  44.256  44.601  1.00  0.00    -0.383 N 
ATOM     25  H62 UNL     1      14.286  44.677  43.672  1.00  0.00     0.157 HD
ATOM     26  H61 UNL     1      13.731  43.396  44.760  1.00  0.00     0.157 HD
ENDBRANCH  11  24
BRANCH  12  27
HETATM   27  N8  UNL     1      15.126  47.673  49.375  1.00  0.00    -0.322 N 
ATOM     28  H82 UNL     1      15.900  47.150  49.782  1.00  0.00     0.179 HD
ATOM     29  H81 UNL     1      14.900  48.617  49.688  1.00  0.00     0.179 HD
ENDBRANCH  12  27
BRANCH   1  30
HETATM   30  N1  UNL     1      10.950  47.083  47.151  1.00  0.00    -0.233 N 
ATOM     31  H12 UNL     1      10.569  47.612  46.367  1.00  0.00     0.174 HD
ATOM     32  H11 UNL     1      10.300  46.749  47.863  1.00  0.00     0.174 HD
ENDBRANCH   1  30
TORSDOF 9
ENDMDL
MODEL 3
REMARK VINA RESULT: -6.230644821      2.061      3.220
REMARK  9 active torsions:
REMARK  status: ('A' for Active; 'I' for Inactive)
REMARK    1  A    between atoms: N1_1  and  C1_4 
REMARK    2  A    between atoms: C4_11  and  S1_12 
REMARK    3  A    between atoms: S1_12  and  C5_13 
REMARK    4  A    between atoms: C5_13  and  C6_14 
REMARK    5  A    between atoms: C6_14  and  C7_15 
REMARK    6  A    between atoms: C7_15  and  C8_16 
REMARK    7  A    between atoms: C8_16  and  N4_17 
REMARK    8  A    between atoms: C9_23  and  N6_24 
REMARK    9  A    between atoms: N7_27  and  N8_28 
ROOT
HETATM    1  C1  UNL     1      12.334  46.636  47.073  1.00  0.00     0.692 A 
HETATM    2  N2  UNL     1      13.337  46.965  48.069  1.00  0.00    -0.183 N 
ATOM      3  H2  UNL     1      13.067  47.482  48.906  1.00  0.00     0.184 HD
HETATM    4  C2  UNL     1      14.682  46.578  47.889  1.00  0.00     0.140 A 
HETATM    5  C3  UNL     1      15.051  45.872  46.745  1.00  0.00     0.178 A 
HETATM    6  N3  UNL     1      16.351  45.489  46.560  1.00  0.00    -0.318 N 
ATOM      7  H3  UNL     1      16.606  44.973  45.719  1.00  0.00     0.169 HD
HETATM    8  C4  UNL     1      17.299  45.781  47.465  1.00  0.00     0.147 A 
HETATM    9  N5  UNL     1      16.964  46.456  48.566  1.00  0.00    -0.321 N 
ATOM     10  H5  UNL     1      17.685  46.677  49.254  1.00  0.00     0.169 HD
HETATM   11  C9  UNL     1      15.667  46.862  48.796  1.00  0.00     0.132 A 
HETATM   12  N7  UNL     1      14.077  45.550  45.776  1.00  0.00    -0.169 N 
HETATM   13  N9  UNL     1      12.745  45.923  45.934  1.00  0.00    -0.110 N 
ATOM     14  H9  UNL     1      12.063  45.678  45.218  1.00  0.00     0.208 HD
ENDROOT
BRANCH   8  15
HETATM   15  S1  UNL     1      18.984  45.237  47.142  1.00  0.00    -0.094 SA
BRANCH  15  16
HETATM   16  C5  UNL     1      20.169  46.567  47.602  1.00  0.00     0.082 C 
BRANCH  16  17
HETATM   17  C6  UNL     1      21.282  46.598  46.619  1.00  0.00     0.012 C 
BRANCH  17  18
HETATM   18  C7  UNL     1      21.317  47.717  45.643  1.00  0.00     0.028 C 
BRANCH  18  19
HETATM   19  C8  UNL     1      20.601  48.970  46.015  1.00  0.00     0.229 C 
BRANCH  19  20
HETATM   20  N4  UNL     1      21.359  50.182  45.946  1.00  0.00    -0.079 N 
ATOM     21  H43 UNL     1      22.305  49.978  45.624  1.00  0.00     0.274 HD
ATOM     22  H42 UNL     1      21.020  50.756  45.174  1.00  0.00     0.274 HD
ATOM     23  H41 UNL     1      21.399  50.741  46.798  1.00  0.00     0.274 HD
ENDBRANCH  19  20
ENDBRANCH  18  19
ENDBRANCH  17  18
ENDBRANCH  16  17
ENDBRANCH  15  16
ENDBRANCH   8  15
BRANCH  11  24
HETATM   24  N6  UNL     1      15.399  47.506  49.865  1.00  0.00    -0.383 N 
ATOM     25  H62 UNL     1      14.436  47.531  50.199  1.00  0.00     0.157 HD
ATOM     26  H61 UNL     1      16.136  47.989  50.378  1.00  0.00     0.157 HD
ENDBRANCH  11  24
BRANCH  12  27
HETATM   27  N8  UNL     1      14.488  44.842  44.641  1.00  0.00    -0.322 N 
ATOM     28  H82 UNL     1      15.414  44.993  44.242  1.00  0.00     0.179 HD
ATOM     29  H81 UNL     1      13.836  44.174  44.229  1.00  0.00     0.179 HD
ENDBRANCH  12  27
BRANCH   1  30
HETATM   30  N1  UNL     1      11.123  46.992  47.245  1.00  0.00    -0.233 N 
ATOM     31  H12 UNL     1      10.878  47.892  47.660  1.00  0.00     0.174 HD
ATOM     32  H11 UNL     1      10.363  46.371  46.967  1.00  0.00     0.174 HD
ENDBRANCH   1  30
TORSDOF 9
ENDMDL
MODEL 4
REMARK VINA RESULT: -6.227173753      2.677      4.016
REMARK  9 active torsions:
REMARK  status: ('A' for Active; 'I' for Inactive)
REMARK    1  A    between atoms: N1_1  and  C1_4 
REMARK    2  A    between atoms: C4_11  and  S1_12 
REMARK    3  A    between atoms: S1_12  and  C5_13 
REMARK    4  A    between atoms: C5_13  and  C6_14 
REMARK    5  A    between atoms: C6_14  and  C7_15 
REMARK    6  A    between atoms: C7_15  and  C8_16 
REMARK    7  A    between atoms: C8_16  and  N4_17 
REMARK    8  A    between atoms: C9_23  and  N6_24 
REMARK    9  A    between atoms: N7_27  and  N8_28 
ROOT
HETATM    1  C1  UNL     1      12.274  46.709  47.196  1.00  0.00     0.692 A 
HETATM    2  N2  UNL     1      13.314  47.009  48.163  1.00  0.00    -0.183 N 
ATOM      3  H2  UNL     1      13.083  47.535  49.006  1.00  0.00     0.184 HD
HETATM    4  C2  UNL     1      14.641  46.579  47.948  1.00  0.00     0.140 A 
HETATM    5  C3  UNL     1      14.956  45.860  46.797  1.00  0.00     0.178 A 
HETATM    6  N3  UNL     1      16.239  45.437  46.578  1.00  0.00    -0.318 N 
ATOM      7  H3  UNL     1      16.455  44.911  45.732  1.00  0.00     0.169 HD
HETATM    8  C4  UNL     1      17.220  45.701  47.456  1.00  0.00     0.147 A 
HETATM    9  N5  UNL     1      16.936  46.388  48.564  1.00  0.00    -0.321 N 
ATOM     10  H5  UNL     1      17.681  46.588  49.232  1.00  0.00     0.169 HD
HETATM   11  C9  UNL     1      15.659  46.835  48.828  1.00  0.00     0.132 A 
HETATM   12  N7  UNL     1      13.948  45.566  45.855  1.00  0.00    -0.169 N 
HETATM   13  N9  UNL     1      12.633  45.981  46.048  1.00  0.00    -0.110 N 
ATOM     14  H9  UNL     1      11.924  45.756  45.351  1.00  0.00     0.208 HD
ENDROOT
BRANCH   8  15
HETATM   15  S1  UNL     1      18.877  45.103  47.090  1.00  0.00    -0.094 SA
BRANCH  15  16
HETATM   16  C5  UNL     1      20.065  46.508  47.106  1.00  0.00     0.082 C 
BRANCH  16  17
HETATM   17  C6  UNL     1      21.453  45.981  47.065  1.00  0.00     0.012 C 
BRANCH  17  18
HETATM   18  C7  UNL     1      22.153  45.765  48.358  1.00  0.00     0.028 C 
BRANCH  18  19
HETATM   19  C8  UNL     1      21.434  46.170  49.599  1.00  0.00     0.229 C 
BRANCH  19  20
HETATM   20  N4  UNL     1      21.888  47.369  50.237  1.00  0.00    -0.079 N 
ATOM     21  H43 UNL     1      22.346  47.137  51.117  1.00  0.00     0.274 HD
ATOM     22  H42 UNL     1      22.674  47.758  49.716  1.00  0.00     0.274 HD
ATOM     23  H41 UNL     1      21.187  48.092  50.394  1.00  0.00     0.274 HD
ENDBRANCH  19  20
ENDBRANCH  18  19
ENDBRANCH  17  18
ENDBRANCH  16  17
ENDBRANCH  15  16
ENDBRANCH   8  15
BRANCH  11  24
HETATM   24  N6  UNL     1      15.439  47.489  49.901  1.00  0.00    -0.383 N 
ATOM     25  H62 UNL     1      15.313  46.978  50.775  1.00  0.00     0.157 HD
ATOM     26  H61 UNL     1      15.391  48.507  49.888  1.00  0.00     0.157 HD
ENDBRANCH  11  24
BRANCH  12  27
HETATM   27  N8  UNL     1      14.305  44.843  44.711  1.00  0.00    -0.322 N 
ATOM     28  H82 UNL     1      14.584  43.865  44.783  1.00  0.00     0.179 HD
ATOM     29  H81 UNL     1      14.276  45.323  43.812  1.00  0.00     0.179 HD
ENDBRANCH  12  27
BRANCH   1  30
HETATM   30  N1  UNL     1      11.081  47.103  47.400  1.00  0.00    -0.233 N 
ATOM     31  H12 UNL     1      10.503  47.489  46.653  1.00  0.00     0.174 HD
ATOM     32  H11 UNL     1      10.674  47.038  48.333  1.00  0.00     0.174 HD
ENDBRANCH   1  30
TORSDOF 9
ENDMDL
MODEL 5
REMARK VINA RESULT: -6.193907300      4.492      6.231
REMARK  9 active torsions:
REMARK  status: ('A' for Active; 'I' for Inactive)
REMARK    1  A    between atoms: N1_1  and  C1_4 
REMARK    2  A    between atoms: C4_11  and  S1_12 
REMARK    3  A    between atoms: S1_12  and  C5_13 
REMARK    4  A    between atoms: C5_13  and  C6_14 
REMARK    5  A    between atoms: C6_14  and  C7_15 
REMARK    6  A    between atoms: C7_15  and  C8_16 
REMARK    7  A    between atoms: C8_16  and  N4_17 
REMARK    8  A    between atoms: C9_23  and  N6_24 
REMARK    9  A    between atoms: N7_27  and  N8_28 
ROOT
HETATM    1  C1  UNL     1      13.731  48.129  50.961  1.00  0.00     0.692 A 
HETATM    2  N2  UNL     1      12.900  47.782  49.823  1.00  0.00    -0.183 N 
ATOM      3  H2  UNL     1      11.953  48.157  49.755  1.00  0.00     0.184 HD
HETATM    4  C2  UNL     1      13.389  46.932  48.809  1.00  0.00     0.140 A 
HETATM    5  C3  UNL     1      14.682  46.420  48.901  1.00  0.00     0.178 A 
HETATM    6  N3  UNL     1      15.169  45.595  47.923  1.00  0.00    -0.318 N 
ATOM      7  H3  UNL     1      16.117  45.230  48.004  1.00  0.00     0.169 HD
HETATM    8  C4  UNL     1      14.422  45.258  46.860  1.00  0.00     0.147 A 
HETATM    9  N5  UNL     1      13.181  45.739  46.756  1.00  0.00    -0.321 N 
ATOM     10  H5  UNL     1      12.614  45.483  45.947  1.00  0.00     0.169 HD
HETATM   11  C9  UNL     1      12.648  46.573  47.715  1.00  0.00     0.132 A 
HETATM   12  N7  UNL     1      15.492  46.756  50.006  1.00  0.00    -0.169 N 
HETATM   13  N9  UNL     1      15.028  47.594  51.017  1.00  0.00    -0.110 N 
ATOM     14  H9  UNL     1      15.635  47.820  51.805  1.00  0.00     0.208 HD
ENDROOT
BRANCH   8  15
HETATM   15  S1  UNL     1      15.142  44.171  45.621  1.00  0.00    -0.094 SA
BRANCH  15  16
HETATM   16  C5  UNL     1      15.621  42.571  46.395  1.00  0.00     0.082 C 
BRANCH  16  17
HETATM   17  C6  UNL     1      14.819  41.474  45.798  1.00  0.00     0.012 C 
BRANCH  17  18
HETATM   18  C7  UNL     1      13.733  41.841  44.852  1.00  0.00     0.028 C 
BRANCH  18  19
HETATM   19  C8  UNL     1      12.338  41.831  45.379  1.00  0.00     0.229 C 
BRANCH  19  20
HETATM   20  N4  UNL     1      12.195  41.824  46.803  1.00  0.00    -0.079 N 
ATOM     21  H43 UNL     1      11.331  42.297  47.064  1.00  0.00     0.274 HD
ATOM     22  H42 UNL     1      11.991  40.877  47.123  1.00  0.00     0.274 HD
ATOM     23  H41 UNL     1      12.973  42.208  47.339  1.00  0.00     0.274 HD
ENDBRANCH  19  20
ENDBRANCH  18  19
ENDBRANCH  17  18
ENDBRANCH  16  17
ENDBRANCH  15  16
ENDBRANCH   8  15
BRANCH  11  24
HETATM   24  N6  UNL     1      11.456  47.005  47.568  1.00  0.00    -0.383 N 
ATOM     25  H62 UNL     1      11.226  47.943  47.896  1.00  0.00     0.157 HD
ATOM     26  H61 UNL     1      10.743  46.421  47.130  1.00  0.00     0.157 HD
ENDBRANCH  11  24
BRANCH  12  27
HETATM   27  N8  UNL     1      16.784  46.221  50.062  1.00  0.00    -0.322 N 
ATOM     28  H82 UNL     1      17.577  46.741  49.688  1.00  0.00     0.179 HD
ATOM     29  H81 UNL     1      16.905  45.303  50.488  1.00  0.00     0.179 HD
ENDBRANCH  12  27
BRANCH   1  30
HETATM   30  N1  UNL     1      13.277  48.897  51.871  1.00  0.00    -0.233 N 
ATOM     31  H12 UNL     1      13.126  49.893  51.713  1.00  0.00     0.174 HD
ATOM     32  H11 UNL     1      13.053  48.520  52.792  1.00  0.00     0.174 HD
ENDBRANCH   1  30
TORSDOF 9
ENDMDL
