MODEL 1
REMARK VINA RESULT: -7.246466179      0.000      0.000
REMARK  7 active torsions:
REMARK  status: ('A' for Active; 'I' for Inactive)
REMARK    1  A    between atoms: C2_2  and  N1_3 
REMARK    2  A    between atoms: C2_2  and  N2_7 
REMARK    3  A    between atoms: C3_9  and  C4_10 
REMARK    4  A    between atoms: C4_10  and  N3_11 
REMARK    5  A    between atoms: C4_10  and  C9_28 
REMARK    6  A    between atoms: N4_13  and  C5_15 
REMARK    7  A    between atoms: C7_20  and  N7_21 
ROOT
HETATM    1  N3  UNL     1      17.404  46.721  47.676  1.00  0.00    -0.316 N 
ATOM      2  H3  UNL     1      17.898  47.613  47.702  1.00  0.00     0.181 HD
HETATM    3  N4  UNL     1      16.313  46.709  47.082  1.00  0.00    -0.296 N 
ATOM      4  H4  UNL     1      16.005  47.591  46.672  1.00  0.00     0.187 HD
ENDROOT
BRANCH   1   5
HETATM    5  C4  UNL     1      18.044  45.618  48.328  1.00  0.00     0.238 C 
BRANCH   5   6
HETATM    6  C3  UNL     1      19.503  45.823  48.237  1.00  0.00     0.095 C 
HETATM    7  N2  UNL     1      20.172  45.897  49.309  1.00  0.00    -0.373 N 
ATOM      8  H2  UNL     1      19.652  45.810  50.182  1.00  0.00     0.160 HD
BRANCH   7   9
HETATM    9  C2  UNL     1      21.568  46.090  49.418  1.00  0.00     0.277 C 
HETATM   10  C1  UNL     1      22.162  45.933  48.028  1.00  0.00     0.063 C 
BRANCH   9  11
HETATM   11  N1  UNL     1      21.938  47.351  50.019  1.00  0.00    -0.059 N 
ATOM     12  H13 UNL     1      21.992  48.093  49.321  1.00  0.00     0.276 HD
ATOM     13  H12 UNL     1      21.183  47.727  50.592  1.00  0.00     0.276 HD
ATOM     14  H11 UNL     1      22.806  47.276  50.549  1.00  0.00     0.276 HD
ENDBRANCH   9  11
ENDBRANCH   7   9
ENDBRANCH   5   6
BRANCH   5  15
HETATM   15  C9  UNL     1      17.707  45.552  49.782  1.00  0.00     0.203 C 
HETATM   16  O2  UNL     1      17.181  46.563  50.316  1.00  0.00    -0.646 OA
HETATM   17  O3  UNL     1      17.944  44.442  50.558  1.00  0.00    -0.646 OA
ENDBRANCH   5  15
ENDBRANCH   1   5
BRANCH   3  18
HETATM   18  C5  UNL     1      15.457  45.604  46.916  1.00  0.00     0.158 A 
HETATM   19  C6  UNL     1      14.351  45.527  47.755  1.00  0.00     0.165 A 
HETATM   20  N5  UNL     1      14.103  46.527  48.735  1.00  0.00    -0.079 NA
HETATM   21  N6  UNL     1      13.547  44.461  47.577  1.00  0.00    -0.176 N 
HETATM   22  C7  UNL     1      13.801  43.524  46.641  1.00  0.00     0.680 A 
ATOM     23  H6  UNL     1      12.721  44.359  48.168  1.00  0.00     0.185 HD
HETATM   24  N8  UNL     1      14.868  43.583  45.822  1.00  0.00    -0.154 N 
HETATM   25  C8  UNL     1      15.699  44.631  45.963  1.00  0.00     0.291 A 
ATOM     26  H8  UNL     1      15.039  42.861  45.122  1.00  0.00     0.187 HD
HETATM   27  O1  UNL     1      16.698  44.696  45.202  1.00  0.00    -0.265 OA
BRANCH  22  28
HETATM   28  N7  UNL     1      13.005  42.524  46.510  1.00  0.00    -0.234 N 
ATOM     29  H72 UNL     1      12.049  42.717  46.208  1.00  0.00     0.174 HD
ATOM     30  H71 UNL     1      13.341  41.582  46.707  1.00  0.00     0.174 HD
ENDBRANCH  22  28
ENDBRANCH   3  18
TORSDOF 7
ENDMDL
MODEL 2
REMARK VINA RESULT: -7.215791467      3.044      6.642
REMARK  7 active torsions:
REMARK  status: ('A' for Active; 'I' for Inactive)
REMARK    1  A    between atoms: C2_2  and  N1_3 
REMARK    2  A    between atoms: C2_2  and  N2_7 
REMARK    3  A    between atoms: C3_9  and  C4_10 
REMARK    4  A    between atoms: C4_10  and  N3_11 
REMARK    5  A    between atoms: C4_10  and  C9_28 
REMARK    6  A    between atoms: N4_13  and  C5_15 
REMARK    7  A    between atoms: C7_20  and  N7_21 
ROOT
HETATM    1  N3  UNL     1      19.065  45.805  48.206  1.00  0.00    -0.316 N 
ATOM      2  H3  UNL     1      18.928  45.259  49.057  1.00  0.00     0.181 HD
HETATM    3  N4  UNL     1      20.116  46.461  48.132  1.00  0.00    -0.296 N 
ATOM      4  H4  UNL     1      20.752  46.398  48.928  1.00  0.00     0.187 HD
ENDROOT
BRANCH   1   5
HETATM    5  C4  UNL     1      18.023  45.730  47.225  1.00  0.00     0.238 C 
BRANCH   5   6
HETATM    6  C3  UNL     1      17.354  44.422  47.375  1.00  0.00     0.095 C 
HETATM    7  N2  UNL     1      16.139  44.321  47.037  1.00  0.00    -0.373 N 
ATOM      8  H2  UNL     1      15.691  45.164  46.678  1.00  0.00     0.160 HD
BRANCH   7   9
HETATM    9  C2  UNL     1      15.340  43.158  47.107  1.00  0.00     0.277 C 
HETATM   10  C1  UNL     1      13.893  43.584  46.921  1.00  0.00     0.063 C 
BRANCH   9  11
HETATM   11  N1  UNL     1      15.721  42.130  46.165  1.00  0.00    -0.059 N 
ATOM     12  H13 UNL     1      15.251  42.255  45.268  1.00  0.00     0.276 HD
ATOM     13  H12 UNL     1      16.686  42.246  45.856  1.00  0.00     0.276 HD
ATOM     14  H11 UNL     1      15.561  41.196  46.540  1.00  0.00     0.276 HD
ENDBRANCH   9  11
ENDBRANCH   7   9
ENDBRANCH   5   6
BRANCH   5  15
HETATM   15  C9  UNL     1      16.977  46.776  47.437  1.00  0.00     0.203 C 
HETATM   16  O2  UNL     1      16.983  47.412  48.522  1.00  0.00    -0.646 OA
HETATM   17  O3  UNL     1      16.014  47.073  46.501  1.00  0.00    -0.646 OA
ENDBRANCH   5  15
ENDBRANCH   1   5
BRANCH   3  18
HETATM   18  C5  UNL     1      20.522  47.283  47.064  1.00  0.00     0.158 A 
HETATM   19  C6  UNL     1      21.191  46.669  46.010  1.00  0.00     0.165 A 
HETATM   20  N5  UNL     1      21.447  45.270  46.020  1.00  0.00    -0.079 NA
HETATM   21  N6  UNL     1      21.569  47.475  45.000  1.00  0.00    -0.176 N 
HETATM   22  C7  UNL     1      21.315  48.800  45.011  1.00  0.00     0.680 A 
ATOM     23  H6  UNL     1      22.062  47.073  44.203  1.00  0.00     0.185 HD
HETATM   24  N8  UNL     1      20.671  49.410  46.024  1.00  0.00    -0.154 N 
HETATM   25  C8  UNL     1      20.273  48.643  47.055  1.00  0.00     0.291 A 
ATOM     26  H8  UNL     1      20.491  50.414  46.009  1.00  0.00     0.187 HD
HETATM   27  O1  UNL     1      19.669  49.204  48.006  1.00  0.00    -0.265 OA
BRANCH  22  28
HETATM   28  N7  UNL     1      21.697  49.529  44.024  1.00  0.00    -0.234 N 
ATOM     29  H72 UNL     1      22.214  49.073  43.272  1.00  0.00     0.174 HD
ATOM     30  H71 UNL     1      21.478  50.525  44.019  1.00  0.00     0.174 HD
ENDBRANCH  22  28
ENDBRANCH   3  18
TORSDOF 7
ENDMDL
MODEL 3
REMARK VINA RESULT: -7.125739858      3.901      6.720
REMARK  7 active torsions:
REMARK  status: ('A' for Active; 'I' for Inactive)
REMARK    1  A    between atoms: C2_2  and  N1_3 
REMARK    2  A    between atoms: C2_2  and  N2_7 
REMARK    3  A    between atoms: C3_9  and  C4_10 
REMARK    4  A    between atoms: C4_10  and  N3_11 
REMARK    5  A    between atoms: C4_10  and  C9_28 
REMARK    6  A    between atoms: N4_13  and  C5_15 
REMARK    7  A    between atoms: C7_20  and  N7_21 
ROOT
HETATM    1  N3  UNL     1      12.731  45.007  48.731  1.00  0.00    -0.316 N 
ATOM      2  H3  UNL     1      12.057  44.326  48.383  1.00  0.00     0.181 HD
HETATM    3  N4  UNL     1      12.920  45.022  49.958  1.00  0.00    -0.296 N 
ATOM      4  H4  UNL     1      12.386  44.352  50.511  1.00  0.00     0.187 HD
ENDROOT
BRANCH   1   5
HETATM    5  C4  UNL     1      13.356  45.845  47.751  1.00  0.00     0.238 C 
BRANCH   5   6
HETATM    6  C3  UNL     1      13.589  45.029  46.542  1.00  0.00     0.095 C 
HETATM    7  N2  UNL     1      13.531  43.770  46.642  1.00  0.00    -0.373 N 
ATOM      8  H2  UNL     1      13.325  43.391  47.566  1.00  0.00     0.160 HD
BRANCH   7   9
HETATM    9  C2  UNL     1      13.724  42.834  45.601  1.00  0.00     0.277 C 
HETATM   10  C1  UNL     1      12.513  41.916  45.580  1.00  0.00     0.063 C 
BRANCH   9  11
HETATM   11  N1  UNL     1      13.961  43.437  44.309  1.00  0.00    -0.059 N 
ATOM     12  H13 UNL     1      13.368  43.022  43.591  1.00  0.00     0.276 HD
ATOM     13  H12 UNL     1      13.608  44.393  44.274  1.00  0.00     0.276 HD
ATOM     14  H11 UNL     1      14.946  43.394  44.047  1.00  0.00     0.276 HD
ENDBRANCH   9  11
ENDBRANCH   7   9
ENDBRANCH   5   6
BRANCH   5  15
HETATM   15  C9  UNL     1      12.479  46.983  47.342  1.00  0.00     0.203 C 
HETATM   16  O2  UNL     1      13.026  48.071  47.026  1.00  0.00    -0.646 OA
HETATM   17  O3  UNL     1      11.108  46.893  47.296  1.00  0.00    -0.646 OA
ENDBRANCH   5  15
ENDBRANCH   1   5
BRANCH   3  18
HETATM   18  C5  UNL     1      13.795  45.868  50.665  1.00  0.00     0.158 A 
HETATM   19  C6  UNL     1      13.254  47.024  51.216  1.00  0.00     0.165 A 
HETATM   20  N5  UNL     1      11.873  47.330  51.066  1.00  0.00    -0.079 NA
HETATM   21  N6  UNL     1      14.111  47.817  51.887  1.00  0.00    -0.176 N 
HETATM   22  C7  UNL     1      15.417  47.507  52.017  1.00  0.00     0.680 A 
ATOM     23  H6  UNL     1      13.762  48.678  52.310  1.00  0.00     0.185 HD
HETATM   24  N8  UNL     1      15.958  46.393  51.489  1.00  0.00    -0.154 N 
HETATM   25  C8  UNL     1      15.138  45.570  50.810  1.00  0.00     0.291 A 
ATOM     26  H8  UNL     1      16.949  46.181  51.600  1.00  0.00     0.187 HD
HETATM   27  O1  UNL     1      15.633  44.525  50.314  1.00  0.00    -0.265 OA
BRANCH  22  28
HETATM   28  N7  UNL     1      16.196  48.296  52.666  1.00  0.00    -0.234 N 
ATOM     29  H72 UNL     1      16.518  49.140  52.191  1.00  0.00     0.174 HD
ATOM     30  H71 UNL     1      16.467  48.063  53.622  1.00  0.00     0.174 HD
ENDBRANCH  22  28
ENDBRANCH   3  18
TORSDOF 7
ENDMDL
MODEL 4
REMARK VINA RESULT: -7.065091745      1.175      1.845
REMARK  7 active torsions:
REMARK  status: ('A' for Active; 'I' for Inactive)
REMARK    1  A    between atoms: C2_2  and  N1_3 
REMARK    2  A    between atoms: C2_2  and  N2_7 
REMARK    3  A    between atoms: C3_9  and  C4_10 
REMARK    4  A    between atoms: C4_10  and  N3_11 
REMARK    5  A    between atoms: C4_10  and  C9_28 
REMARK    6  A    between atoms: N4_13  and  C5_15 
REMARK    7  A    between atoms: C7_20  and  N7_21 
ROOT
HETATM    1  N3  UNL     1      17.436  46.670  47.657  1.00  0.00    -0.316 N 
ATOM      2  H3  UNL     1      17.953  47.549  47.635  1.00  0.00     0.181 HD
HETATM    3  N4  UNL     1      16.336  46.660  47.080  1.00  0.00    -0.296 N 
ATOM      4  H4  UNL     1      16.045  47.530  46.636  1.00  0.00     0.187 HD
ENDROOT
BRANCH   1   5
HETATM    5  C4  UNL     1      18.059  45.580  48.349  1.00  0.00     0.238 C 
BRANCH   5   6
HETATM    6  C3  UNL     1      19.520  45.779  48.284  1.00  0.00     0.095 C 
HETATM    7  N2  UNL     1      20.164  45.891  49.367  1.00  0.00    -0.373 N 
ATOM      8  H2  UNL     1      19.624  45.836  50.231  1.00  0.00     0.160 HD
BRANCH   7   9
HETATM    9  C2  UNL     1      21.558  46.084  49.502  1.00  0.00     0.277 C 
HETATM   10  C1  UNL     1      22.182  45.884  48.130  1.00  0.00     0.063 C 
BRANCH   9  11
HETATM   11  N1  UNL     1      21.918  47.362  50.073  1.00  0.00    -0.059 N 
ATOM     12  H13 UNL     1      22.890  47.597  49.874  1.00  0.00     0.276 HD
ATOM     13  H12 UNL     1      21.465  48.131  49.580  1.00  0.00     0.276 HD
ATOM     14  H11 UNL     1      21.725  47.396  51.073  1.00  0.00     0.276 HD
ENDBRANCH   9  11
ENDBRANCH   7   9
ENDBRANCH   5   6
BRANCH   5  15
HETATM   15  C9  UNL     1      17.690  45.551  49.796  1.00  0.00     0.203 C 
HETATM   16  O2  UNL     1      17.140  46.569  50.290  1.00  0.00    -0.646 OA
HETATM   17  O3  UNL     1      17.925  44.466  50.608  1.00  0.00    -0.646 OA
ENDBRANCH   5  15
ENDBRANCH   1   5
BRANCH   3  18
HETATM   18  C5  UNL     1      15.450  45.571  46.977  1.00  0.00     0.158 A 
HETATM   19  C6  UNL     1      15.761  44.587  46.045  1.00  0.00     0.165 A 
HETATM   20  N5  UNL     1      16.927  44.685  45.237  1.00  0.00    -0.079 NA
HETATM   21  N6  UNL     1      14.899  43.555  45.964  1.00  0.00    -0.176 N 
HETATM   22  C7  UNL     1      13.798  43.483  46.741  1.00  0.00     0.680 A 
ATOM     23  H6  UNL     1      15.083  42.807  45.295  1.00  0.00     0.185 HD
HETATM   24  N8  UNL     1      13.483  44.427  47.647  1.00  0.00    -0.154 N 
HETATM   25  C8  UNL     1      14.317  45.477  47.763  1.00  0.00     0.291 A 
ATOM     26  H8  UNL     1      12.644  44.350  48.222  1.00  0.00     0.187 HD
HETATM   27  O1  UNL     1      14.031  46.364  48.607  1.00  0.00    -0.265 OA
BRANCH  22  28
HETATM   28  N7  UNL     1      13.005  42.479  46.627  1.00  0.00    -0.234 N 
ATOM     29  H72 UNL     1      13.423  41.560  46.483  1.00  0.00     0.174 HD
ATOM     30  H71 UNL     1      11.997  42.624  46.682  1.00  0.00     0.174 HD
ENDBRANCH  22  28
ENDBRANCH   3  18
TORSDOF 7
ENDMDL
MODEL 5
REMARK VINA RESULT: -6.944565260      3.520      5.286
REMARK  7 active torsions:
REMARK  status: ('A' for Active; 'I' for Inactive)
REMARK    1  A    between atoms: C2_2  and  N1_3 
REMARK    2  A    between atoms: C2_2  and  N2_7 
REMARK    3  A    between atoms: C3_9  and  C4_10 
REMARK    4  A    between atoms: C4_10  and  N3_11 
REMARK    5  A    between atoms: C4_10  and  C9_28 
REMARK    6  A    between atoms: N4_13  and  C5_15 
REMARK    7  A    between atoms: C7_20  and  N7_21 
ROOT
HETATM    1  N3  UNL     1      15.192  47.037  48.469  1.00  0.00    -0.316 N 
ATOM      2  H3  UNL     1      15.495  47.977  48.726  1.00  0.00     0.181 HD
HETATM    3  N4  UNL     1      15.924  46.415  47.682  1.00  0.00    -0.296 N 
ATOM      4  H4  UNL     1      16.763  46.898  47.359  1.00  0.00     0.187 HD
ENDROOT
BRANCH   1   5
HETATM    5  C4  UNL     1      13.969  46.578  49.057  1.00  0.00     0.238 C 
BRANCH   5   6
HETATM    6  C3  UNL     1      13.889  47.130  50.424  1.00  0.00     0.095 C 
HETATM    7  N2  UNL     1      13.217  48.185  50.612  1.00  0.00    -0.373 N 
ATOM      8  H2  UNL     1      12.766  48.594  49.794  1.00  0.00     0.160 HD
BRANCH   7   9
HETATM    9  C2  UNL     1      13.028  48.854  51.843  1.00  0.00     0.277 C 
HETATM   10  C1  UNL     1      11.764  48.296  52.478  1.00  0.00     0.063 C 
BRANCH   9  11
HETATM   11  N1  UNL     1      14.160  48.765  52.736  1.00  0.00    -0.059 N 
ATOM     12  H13 UNL     1      14.895  48.175  52.347  1.00  0.00     0.276 HD
ATOM     13  H12 UNL     1      14.670  49.647  52.781  1.00  0.00     0.276 HD
ATOM     14  H11 UNL     1      13.884  48.448  53.666  1.00  0.00     0.276 HD
ENDBRANCH   9  11
ENDBRANCH   7   9
ENDBRANCH   5   6
BRANCH   5  15
HETATM   15  C9  UNL     1      12.769  47.076  48.319  1.00  0.00     0.203 C 
HETATM   16  O2  UNL     1      12.947  47.891  47.377  1.00  0.00    -0.646 OA
HETATM   17  O3  UNL     1      11.487  46.684  48.622  1.00  0.00    -0.646 OA
ENDBRANCH   5  15
ENDBRANCH   1   5
BRANCH   3  18
HETATM   18  C5  UNL     1      15.715  45.114  47.188  1.00  0.00     0.158 A 
HETATM   19  C6  UNL     1      16.219  44.061  47.942  1.00  0.00     0.165 A 
HETATM   20  N5  UNL     1      16.914  44.299  49.160  1.00  0.00    -0.079 NA
HETATM   21  N6  UNL     1      16.007  42.825  47.449  1.00  0.00    -0.176 N 
HETATM   22  C7  UNL     1      15.345  42.623  46.292  1.00  0.00     0.680 A 
ATOM     23  H6  UNL     1      16.358  42.019  47.967  1.00  0.00     0.185 HD
HETATM   24  N8  UNL     1      14.851  43.631  45.549  1.00  0.00    -0.154 N 
HETATM   25  C8  UNL     1      15.039  44.884  46.003  1.00  0.00     0.291 A 
ATOM     26  H8  UNL     1      14.354  43.453  44.676  1.00  0.00     0.187 HD
HETATM   27  O1  UNL     1      14.580  45.833  45.317  1.00  0.00    -0.265 OA
BRANCH  22  28
HETATM   28  N7  UNL     1      15.168  41.425  45.862  1.00  0.00    -0.234 N 
ATOM     29  H72 UNL     1      15.996  40.890  45.600  1.00  0.00     0.174 HD
ATOM     30  H71 UNL     1      14.223  41.048  45.794  1.00  0.00     0.174 HD
ENDBRANCH  22  28
ENDBRANCH   3  18
TORSDOF 7
ENDMDL
