MODEL 1
REMARK VINA RESULT: -8.539281242      0.000      0.000
REMARK  14 active torsions:
REMARK  status: ('A' for Active; 'I' for Inactive)
REMARK    1  A    between atoms: O1_2  and  C2_3 
REMARK    2  A    between atoms: C2_3  and  C3_5 
REMARK    3  A    between atoms: C3_5  and  C4_7 
REMARK    4  A    between atoms: C6_10  and  O5_11 
REMARK    5  A    between atoms: C8_14  and  O6_15 
REMARK    6  A    between atoms: C10_18  and  O7_19 
REMARK    7  A    between atoms: O7_19  and  C11_20 
REMARK    8  A    between atoms: C15_25  and  C16_26 
REMARK    9  A    between atoms: C16_26  and  O9_27 
REMARK   10  A    between atoms: O9_27  and  C17_28 
REMARK   11  A    between atoms: C17_28  and  N1_29 
REMARK   12  A    between atoms: C17_28  and  C21_36 
REMARK   13  A    between atoms: C23_42  and  N6_43 
REMARK   14  A    between atoms: N6_43  and  O10_44 
ROOT
HETATM    1  N1  UNL     1      13.385   8.927   8.097  1.00  0.00    -0.321 N 
ATOM      2  H1  UNL     1      12.785   8.133   8.322  1.00  0.00     0.169 HD
HETATM    3  C18 UNL     1      13.575   9.677   9.083  1.00  0.00     0.197 C 
HETATM    4  C19 UNL     1      14.415  10.853   8.937  1.00  0.00     0.129 C 
HETATM    5  N2  UNL     1      15.105  11.773   8.803  1.00  0.00    -0.189 NA
HETATM    6  C20 UNL     1      12.963   9.375  10.349  1.00  0.00     0.129 C 
HETATM    7  N3  UNL     1      12.449   9.147  11.381  1.00  0.00    -0.189 NA
ENDROOT
BRANCH   1   8
HETATM    8  C17 UNL     1      13.799   8.920   6.763  1.00  0.00     0.150 C 
BRANCH   8   9
HETATM    9  O9  UNL     1      15.151   8.647   6.565  1.00  0.00    -0.307 OA
BRANCH   9  10
HETATM   10  C16 UNL     1      15.986   8.004   7.429  1.00  0.00     0.153 C 
BRANCH  10  11
HETATM   11  C15 UNL     1      16.679   7.116   7.884  1.00  0.00    -0.005 C 
HETATM   12  C4  UNL     1      16.455   5.624   7.513  1.00  0.00     0.174 C 
HETATM   13  C5  UNL     1      17.741   4.960   7.320  1.00  0.00     0.176 C 
HETATM   14  O4  UNL     1      17.750   3.835   6.798  1.00  0.00    -0.294 OA
HETATM   15  C6  UNL     1      19.044   5.511   7.686  1.00  0.00     0.225 C 
HETATM   16  C7  UNL     1      18.879   6.472   8.802  1.00  0.00     0.022 A 
HETATM   17  C8  UNL     1      19.855   6.567   9.757  1.00  0.00     0.078 A 
HETATM   18  C14 UNL     1      17.727   7.253   8.873  1.00  0.00    -0.012 A 
HETATM   19  C9  UNL     1      19.707   7.450  10.816  1.00  0.00     0.074 A 
HETATM   20  C10 UNL     1      18.563   8.235  10.904  1.00  0.00     0.082 A 
HETATM   21  C13 UNL     1      17.612   8.111   9.931  1.00  0.00     0.050 A 
BRANCH  12  22
HETATM   22  C3  UNL     1      15.636   4.992   8.519  1.00  0.00     0.239 C 
HETATM   23  O3  UNL     1      16.227   4.523   9.557  1.00  0.00    -0.285 OA
BRANCH  22  24
HETATM   24  C2  UNL     1      14.217   4.832   8.472  1.00  0.00     0.330 C 
HETATM   25  O2  UNL     1      13.457   5.835   8.483  1.00  0.00    -0.256 OA
BRANCH  24  26
HETATM   26  O1  UNL     1      13.589   3.589   8.416  1.00  0.00    -0.320 OA
HETATM   27  C1  UNL     1      14.034   2.603   7.523  1.00  0.00     0.213 C 
ENDBRANCH  24  26
ENDBRANCH  22  24
ENDBRANCH  12  22
BRANCH  15  28
HETATM   28  O5  UNL     1      19.890   4.445   8.074  1.00  0.00    -0.383 OA
ATOM     29  H5  UNL     1      20.627   4.805   8.554  1.00  0.00     0.211 HD
ENDBRANCH  15  28
BRANCH  17  30
HETATM   30  O6  UNL     1      21.005   5.794   9.699  1.00  0.00    -0.360 OA
ATOM     31  H6  UNL     1      21.690   5.871  10.353  1.00  0.00     0.217 HD
ENDBRANCH  17  30
BRANCH  20  32
HETATM   32  O7  UNL     1      18.397   9.129  11.971  1.00  0.00    -0.279 OA
BRANCH  32  33
HETATM   33  C11 UNL     1      17.781  10.350  11.824  1.00  0.00     0.260 C 
HETATM   34  C12 UNL     1      16.329  10.547  12.141  1.00  0.00     0.126 C 
HETATM   35  O8  UNL     1      18.408  11.355  11.415  1.00  0.00    -0.265 OA
ENDBRANCH  32  33
ENDBRANCH  20  32
ENDBRANCH  10  11
ENDBRANCH   9  10
ENDBRANCH   8   9
BRANCH   8  36
HETATM   36  C21 UNL     1      12.855   8.341   5.798  1.00  0.00     0.196 C 
HETATM   37  N4  UNL     1      11.953   7.381   6.487  1.00  0.00    -0.363 N 
HETATM   38  C22 UNL     1      11.674   6.781   5.164  1.00  0.00     0.110 C 
ATOM     39  H4  UNL     1      11.657   7.212   7.448  1.00  0.00     0.161 HD
HETATM   40  N5  UNL     1      11.344   6.254   4.084  1.00  0.00    -0.336 N 
HETATM   41  C24 UNL     1      13.173   7.167   4.961  1.00  0.00     0.286 C 
HETATM   42  C23 UNL     1      12.315   6.228   3.053  1.00  0.00     0.408 C 
ATOM     43  H5  UNL     1      10.413   5.859   3.949  1.00  0.00     0.164 HD
HETATM   44  N7  UNL     1      13.233   7.294   3.543  1.00  0.00    -0.024 N 
ATOM     45  H72 UNL     1      14.175   7.249   3.155  1.00  0.00     0.282 HD
ATOM     46  H71 UNL     1      13.017   8.228   3.194  1.00  0.00     0.282 HD
BRANCH  42  47
HETATM   47  N6  UNL     1      11.677   6.700   1.808  1.00  0.00    -0.048 NA
BRANCH  47  48
HETATM   48  O10 UNL     1      10.321   6.461   1.932  1.00  0.00    -0.293 OA
ATOM     49  H10 UNL     1       9.998   6.239   1.067  1.00  0.00     0.238 HD
ENDBRANCH  47  48
ENDBRANCH  42  47
ENDBRANCH   8  36
ENDBRANCH   1   8
TORSDOF 14
ENDMDL
MODEL 2
REMARK VINA RESULT: -8.537522409      1.320      1.672
REMARK  14 active torsions:
REMARK  status: ('A' for Active; 'I' for Inactive)
REMARK    1  A    between atoms: O1_2  and  C2_3 
REMARK    2  A    between atoms: C2_3  and  C3_5 
REMARK    3  A    between atoms: C3_5  and  C4_7 
REMARK    4  A    between atoms: C6_10  and  O5_11 
REMARK    5  A    between atoms: C8_14  and  O6_15 
REMARK    6  A    between atoms: C10_18  and  O7_19 
REMARK    7  A    between atoms: O7_19  and  C11_20 
REMARK    8  A    between atoms: C15_25  and  C16_26 
REMARK    9  A    between atoms: C16_26  and  O9_27 
REMARK   10  A    between atoms: O9_27  and  C17_28 
REMARK   11  A    between atoms: C17_28  and  N1_29 
REMARK   12  A    between atoms: C17_28  and  C21_36 
REMARK   13  A    between atoms: C23_42  and  N6_43 
REMARK   14  A    between atoms: N6_43  and  O10_44 
ROOT
HETATM    1  N1  UNL     1      13.521   8.966   8.388  1.00  0.00    -0.321 N 
ATOM      2  H1  UNL     1      12.921   8.188   8.662  1.00  0.00     0.169 HD
HETATM    3  C18 UNL     1      13.636   9.822   9.296  1.00  0.00     0.197 C 
HETATM    4  C19 UNL     1      14.465  10.994   9.074  1.00  0.00     0.129 C 
HETATM    5  N2  UNL     1      15.148  11.909   8.882  1.00  0.00    -0.189 NA
HETATM    6  C20 UNL     1      12.949   9.645  10.547  1.00  0.00     0.129 C 
HETATM    7  N3  UNL     1      12.374   9.519  11.564  1.00  0.00    -0.189 NA
ENDROOT
BRANCH   1   8
HETATM    8  C17 UNL     1      14.019   8.823   7.091  1.00  0.00     0.150 C 
BRANCH   8   9
HETATM    9  O9  UNL     1      15.406   8.914   6.977  1.00  0.00    -0.307 OA
BRANCH   9  10
HETATM   10  C16 UNL     1      16.328   8.239   7.719  1.00  0.00     0.153 C 
BRANCH  10  11
HETATM   11  C15 UNL     1      16.988   7.305   8.127  1.00  0.00    -0.005 C 
HETATM   12  C4  UNL     1      16.689   5.839   7.706  1.00  0.00     0.174 C 
HETATM   13  C5  UNL     1      17.940   5.125   7.464  1.00  0.00     0.176 C 
HETATM   14  O4  UNL     1      17.889   4.022   6.901  1.00  0.00    -0.294 OA
HETATM   15  C6  UNL     1      19.273   5.603   7.825  1.00  0.00     0.225 C 
HETATM   16  C7  UNL     1      19.172   6.528   8.978  1.00  0.00     0.022 A 
HETATM   17  C8  UNL     1      20.168   6.544   9.917  1.00  0.00     0.078 A 
HETATM   18  C14 UNL     1      18.058   7.357   9.100  1.00  0.00    -0.012 A 
HETATM   19  C9  UNL     1      20.079   7.391  11.011  1.00  0.00     0.074 A 
HETATM   20  C10 UNL     1      18.974   8.223  11.149  1.00  0.00     0.082 A 
HETATM   21  C13 UNL     1      18.001   8.179  10.190  1.00  0.00     0.050 A 
BRANCH  12  22
HETATM   22  C3  UNL     1      15.861   5.207   8.704  1.00  0.00     0.239 C 
HETATM   23  O3  UNL     1      16.446   4.681   9.716  1.00  0.00    -0.285 OA
BRANCH  22  24
HETATM   24  C2  UNL     1      14.436   5.106   8.674  1.00  0.00     0.330 C 
HETATM   25  O2  UNL     1      13.718   5.980   9.227  1.00  0.00    -0.256 OA
BRANCH  24  26
HETATM   26  O1  UNL     1      13.757   4.061   8.051  1.00  0.00    -0.320 OA
HETATM   27  C1  UNL     1      14.415   2.860   7.748  1.00  0.00     0.213 C 
ENDBRANCH  24  26
ENDBRANCH  22  24
ENDBRANCH  12  22
BRANCH  15  28
HETATM   28  O5  UNL     1      20.077   4.487   8.157  1.00  0.00    -0.383 OA
ATOM     29  H5  UNL     1      19.856   4.209   9.039  1.00  0.00     0.211 HD
ENDBRANCH  15  28
BRANCH  17  30
HETATM   30  O6  UNL     1      21.280   5.722   9.809  1.00  0.00    -0.360 OA
ATOM     31  H6  UNL     1      22.010   5.790  10.414  1.00  0.00     0.217 HD
ENDBRANCH  17  30
BRANCH  20  32
HETATM   32  O7  UNL     1      18.868   9.084  12.252  1.00  0.00    -0.279 OA
BRANCH  32  33
HETATM   33  C11 UNL     1      19.321  10.382  12.223  1.00  0.00     0.260 C 
HETATM   34  C12 UNL     1      20.664  10.762  12.772  1.00  0.00     0.126 C 
HETATM   35  O8  UNL     1      18.630  11.307  11.738  1.00  0.00    -0.265 OA
ENDBRANCH  32  33
ENDBRANCH  20  32
ENDBRANCH  10  11
ENDBRANCH   9  10
ENDBRANCH   8   9
BRANCH   8  36
HETATM   36  C21 UNL     1      13.346   7.826   6.247  1.00  0.00     0.196 C 
HETATM   37  N4  UNL     1      12.768   8.489   5.049  1.00  0.00    -0.363 N 
HETATM   38  C22 UNL     1      11.873   7.319   4.905  1.00  0.00     0.110 C 
ATOM     39  H4  UNL     1      12.921   9.363   4.547  1.00  0.00     0.161 HD
HETATM   40  N5  UNL     1      11.123   6.350   4.682  1.00  0.00    -0.336 N 
HETATM   41  C24 UNL     1      11.951   7.394   6.463  1.00  0.00     0.286 C 
HETATM   42  C23 UNL     1      10.661   5.617   5.804  1.00  0.00     0.408 C 
ATOM     43  H5  UNL     1      10.854   6.094   3.732  1.00  0.00     0.164 HD
HETATM   44  N7  UNL     1      11.667   6.043   6.816  1.00  0.00    -0.024 N 
ATOM     45  H72 UNL     1      11.371   5.914   7.783  1.00  0.00     0.282 HD
ATOM     46  H71 UNL     1      12.488   5.441   6.872  1.00  0.00     0.282 HD
BRANCH  42  47
HETATM   47  N6  UNL     1      10.859   4.181   5.528  1.00  0.00    -0.048 NA
BRANCH  47  48
HETATM   48  O10 UNL     1      11.118   3.567   6.739  1.00  0.00    -0.293 OA
ATOM     49  H10 UNL     1      10.948   2.639   6.623  1.00  0.00     0.238 HD
ENDBRANCH  47  48
ENDBRANCH  42  47
ENDBRANCH   8  36
ENDBRANCH   1   8
TORSDOF 14
ENDMDL
MODEL 3
REMARK VINA RESULT: -8.464848334      0.720      1.012
REMARK  14 active torsions:
REMARK  status: ('A' for Active; 'I' for Inactive)
REMARK    1  A    between atoms: O1_2  and  C2_3 
REMARK    2  A    between atoms: C2_3  and  C3_5 
REMARK    3  A    between atoms: C3_5  and  C4_7 
REMARK    4  A    between atoms: C6_10  and  O5_11 
REMARK    5  A    between atoms: C8_14  and  O6_15 
REMARK    6  A    between atoms: C10_18  and  O7_19 
REMARK    7  A    between atoms: O7_19  and  C11_20 
REMARK    8  A    between atoms: C15_25  and  C16_26 
REMARK    9  A    between atoms: C16_26  and  O9_27 
REMARK   10  A    between atoms: O9_27  and  C17_28 
REMARK   11  A    between atoms: C17_28  and  N1_29 
REMARK   12  A    between atoms: C17_28  and  C21_36 
REMARK   13  A    between atoms: C23_42  and  N6_43 
REMARK   14  A    between atoms: N6_43  and  O10_44 
ROOT
HETATM    1  N1  UNL     1      13.353   8.943   8.115  1.00  0.00    -0.321 N 
ATOM      2  H1  UNL     1      12.729   8.167   8.338  1.00  0.00     0.169 HD
HETATM    3  C18 UNL     1      13.565   9.682   9.104  1.00  0.00     0.197 C 
HETATM    4  C19 UNL     1      14.441  10.833   8.962  1.00  0.00     0.129 C 
HETATM    5  N2  UNL     1      15.159  11.732   8.831  1.00  0.00    -0.189 NA
HETATM    6  C20 UNL     1      12.943   9.396  10.368  1.00  0.00     0.129 C 
HETATM    7  N3  UNL     1      12.422   9.181  11.399  1.00  0.00    -0.189 NA
ENDROOT
BRANCH   1   8
HETATM    8  C17 UNL     1      13.767   8.926   6.782  1.00  0.00     0.150 C 
BRANCH   8   9
HETATM    9  O9  UNL     1      15.103   8.582   6.581  1.00  0.00    -0.307 OA
BRANCH   9  10
HETATM   10  C16 UNL     1      15.916   7.935   7.463  1.00  0.00     0.153 C 
BRANCH  10  11
HETATM   11  C15 UNL     1      16.633   7.063   7.911  1.00  0.00    -0.005 C 
HETATM   12  C4  UNL     1      16.442   5.566   7.538  1.00  0.00     0.174 C 
HETATM   13  C5  UNL     1      17.743   4.933   7.336  1.00  0.00     0.176 C 
HETATM   14  O4  UNL     1      17.775   3.811   6.812  1.00  0.00    -0.294 OA
HETATM   15  C6  UNL     1      19.034   5.514   7.696  1.00  0.00     0.225 C 
HETATM   16  C7  UNL     1      18.853   6.469   8.815  1.00  0.00     0.022 A 
HETATM   17  C8  UNL     1      19.832   6.585   9.765  1.00  0.00     0.078 A 
HETATM   18  C14 UNL     1      17.683   7.222   8.895  1.00  0.00    -0.012 A 
HETATM   19  C9  UNL     1      19.669   7.461  10.827  1.00  0.00     0.074 A 
HETATM   20  C10 UNL     1      18.507   8.219  10.924  1.00  0.00     0.082 A 
HETATM   21  C13 UNL     1      17.554   8.075   9.955  1.00  0.00     0.050 A 
BRANCH  12  22
HETATM   22  C3  UNL     1      15.645   4.913   8.547  1.00  0.00     0.239 C 
HETATM   23  O3  UNL     1      16.263   4.304   9.491  1.00  0.00    -0.285 OA
BRANCH  22  24
HETATM   24  C2  UNL     1      14.217   4.874   8.598  1.00  0.00     0.330 C 
HETATM   25  O2  UNL     1      13.593   3.812   8.340  1.00  0.00    -0.256 OA
BRANCH  24  26
HETATM   26  O1  UNL     1      13.434   5.979   8.926  1.00  0.00    -0.320 OA
HETATM   27  C1  UNL     1      12.090   5.820   9.295  1.00  0.00     0.213 C 
ENDBRANCH  24  26
ENDBRANCH  22  24
ENDBRANCH  12  22
BRANCH  15  28
HETATM   28  O5  UNL     1      19.907   4.468   8.077  1.00  0.00    -0.383 OA
ATOM     29  H5  UNL     1      19.500   3.977   8.781  1.00  0.00     0.211 HD
ENDBRANCH  15  28
BRANCH  17  30
HETATM   30  O6  UNL     1      20.999   5.839   9.699  1.00  0.00    -0.360 OA
ATOM     31  H6  UNL     1      21.826   6.181  10.018  1.00  0.00     0.217 HD
ENDBRANCH  17  30
BRANCH  20  32
HETATM   32  O7  UNL     1      18.326   9.106  11.994  1.00  0.00    -0.279 OA
BRANCH  32  33
HETATM   33  C11 UNL     1      17.736  10.339  11.841  1.00  0.00     0.260 C 
HETATM   34  C12 UNL     1      16.297  10.576  12.190  1.00  0.00     0.126 C 
HETATM   35  O8  UNL     1      18.376  11.321  11.399  1.00  0.00    -0.265 OA
ENDBRANCH  32  33
ENDBRANCH  20  32
ENDBRANCH  10  11
ENDBRANCH   9  10
ENDBRANCH   8   9
BRANCH   8  36
HETATM   36  C21 UNL     1      12.794   8.411   5.810  1.00  0.00     0.196 C 
HETATM   37  N4  UNL     1      11.426   8.463   6.388  1.00  0.00    -0.363 N 
HETATM   38  C22 UNL     1      11.024   7.454   5.383  1.00  0.00     0.110 C 
ATOM     39  H4  UNL     1      10.968   8.970   7.145  1.00  0.00     0.161 HD
HETATM   40  N5  UNL     1      10.592   6.648   4.537  1.00  0.00    -0.336 N 
HETATM   41  C24 UNL     1      12.485   6.975   5.660  1.00  0.00     0.286 C 
HETATM   42  C23 UNL     1      11.494   5.666   4.059  1.00  0.00     0.408 C 
ATOM     43  H5  UNL     1       9.630   6.695   4.202  1.00  0.00     0.164 HD
HETATM   44  N7  UNL     1      12.786   6.301   4.441  1.00  0.00    -0.024 N 
ATOM     45  H72 UNL     1      13.572   5.653   4.501  1.00  0.00     0.282 HD
ATOM     46  H71 UNL     1      13.191   6.896   3.720  1.00  0.00     0.282 HD
BRANCH  42  47
HETATM   47  N6  UNL     1      11.407   5.639   2.586  1.00  0.00    -0.048 NA
BRANCH  47  48
HETATM   48  O10 UNL     1      12.401   6.473   2.106  1.00  0.00    -0.293 OA
ATOM     49  H10 UNL     1      12.679   6.121   1.269  1.00  0.00     0.238 HD
ENDBRANCH  47  48
ENDBRANCH  42  47
ENDBRANCH   8  36
ENDBRANCH   1   8
TORSDOF 14
ENDMDL
MODEL 4
REMARK VINA RESULT: -8.395114971      3.087      4.579
REMARK  14 active torsions:
REMARK  status: ('A' for Active; 'I' for Inactive)
REMARK    1  A    between atoms: O1_2  and  C2_3 
REMARK    2  A    between atoms: C2_3  and  C3_5 
REMARK    3  A    between atoms: C3_5  and  C4_7 
REMARK    4  A    between atoms: C6_10  and  O5_11 
REMARK    5  A    between atoms: C8_14  and  O6_15 
REMARK    6  A    between atoms: C10_18  and  O7_19 
REMARK    7  A    between atoms: O7_19  and  C11_20 
REMARK    8  A    between atoms: C15_25  and  C16_26 
REMARK    9  A    between atoms: C16_26  and  O9_27 
REMARK   10  A    between atoms: O9_27  and  C17_28 
REMARK   11  A    between atoms: C17_28  and  N1_29 
REMARK   12  A    between atoms: C17_28  and  C21_36 
REMARK   13  A    between atoms: C23_42  and  N6_43 
REMARK   14  A    between atoms: N6_43  and  O10_44 
ROOT
HETATM    1  N1  UNL     1      11.731   4.839   6.736  1.00  0.00    -0.321 N 
ATOM      2  H1  UNL     1      11.926   4.316   7.590  1.00  0.00     0.169 HD
HETATM    3  C18 UNL     1      11.168   5.934   6.965  1.00  0.00     0.197 C 
HETATM    4  C19 UNL     1      10.826   6.809   5.856  1.00  0.00     0.129 C 
HETATM    5  N2  UNL     1      10.581   7.498   4.959  1.00  0.00    -0.189 NA
HETATM    6  C20 UNL     1      10.861   6.321   8.315  1.00  0.00     0.129 C 
HETATM    7  N3  UNL     1      10.587   6.635   9.414  1.00  0.00    -0.189 NA
ENDROOT
BRANCH   1   8
HETATM    8  C17 UNL     1      12.155   4.162   5.590  1.00  0.00     0.150 C 
BRANCH   8   9
HETATM    9  O9  UNL     1      13.368   4.599   5.060  1.00  0.00    -0.307 OA
BRANCH   9  10
HETATM   10  C16 UNL     1      14.456   5.021   5.762  1.00  0.00     0.153 C 
BRANCH  10  11
HETATM   11  C15 UNL     1      15.200   5.181   6.709  1.00  0.00    -0.005 C 
HETATM   12  C4  UNL     1      15.661   3.997   7.603  1.00  0.00     0.174 C 
HETATM   13  C5  UNL     1      17.074   4.148   7.940  1.00  0.00     0.176 C 
HETATM   14  O4  UNL     1      17.664   3.185   8.450  1.00  0.00    -0.294 OA
HETATM   15  C6  UNL     1      17.875   5.351   7.722  1.00  0.00     0.225 C 
HETATM   16  C7  UNL     1      16.991   6.541   7.728  1.00  0.00     0.022 A 
HETATM   17  C8  UNL     1      17.454   7.719   8.249  1.00  0.00     0.078 A 
HETATM   18  C14 UNL     1      15.698   6.441   7.219  1.00  0.00    -0.012 A 
HETATM   19  C9  UNL     1      16.633   8.837   8.278  1.00  0.00     0.074 A 
HETATM   20  C10 UNL     1      15.339   8.754   7.776  1.00  0.00     0.082 A 
HETATM   21  C13 UNL     1      14.915   7.560   7.263  1.00  0.00     0.050 A 
BRANCH  12  22
HETATM   22  C3  UNL     1      14.809   3.905   8.764  1.00  0.00     0.239 C 
HETATM   23  O3  UNL     1      13.605   3.499   8.586  1.00  0.00    -0.285 OA
BRANCH  22  24
HETATM   24  C2  UNL     1      15.177   4.227  10.107  1.00  0.00     0.330 C 
HETATM   25  O2  UNL     1      15.396   3.317  10.949  1.00  0.00    -0.256 OA
BRANCH  24  26
HETATM   26  O1  UNL     1      15.314   5.534  10.569  1.00  0.00    -0.320 OA
HETATM   27  C1  UNL     1      14.199   6.380  10.663  1.00  0.00     0.213 C 
ENDBRANCH  24  26
ENDBRANCH  22  24
ENDBRANCH  12  22
BRANCH  15  28
HETATM   28  O5  UNL     1      18.836   5.445   8.756  1.00  0.00    -0.383 OA
ATOM     29  H5  UNL     1      19.701   5.368   8.371  1.00  0.00     0.211 HD
ENDBRANCH  15  28
BRANCH  17  30
HETATM   30  O6  UNL     1      18.738   7.832   8.762  1.00  0.00    -0.360 OA
ATOM     31  H6  UNL     1      18.910   7.762   9.693  1.00  0.00     0.217 HD
ENDBRANCH  17  30
BRANCH  20  32
HETATM   32  O7  UNL     1      14.496   9.874   7.801  1.00  0.00    -0.279 OA
BRANCH  32  33
HETATM   33  C11 UNL     1      14.464  10.752   8.859  1.00  0.00     0.260 C 
HETATM   34  C12 UNL     1      13.646  10.480  10.086  1.00  0.00     0.126 C 
HETATM   35  O8  UNL     1      15.115  11.822   8.843  1.00  0.00    -0.265 OA
ENDBRANCH  32  33
ENDBRANCH  20  32
ENDBRANCH  10  11
ENDBRANCH   9  10
ENDBRANCH   8   9
BRANCH   8  36
HETATM   36  C21 UNL     1      11.901   2.715   5.563  1.00  0.00     0.196 C 
HETATM   37  N4  UNL     1      12.925   2.008   6.375  1.00  0.00    -0.363 N 
HETATM   38  C22 UNL     1      12.582   0.776   5.630  1.00  0.00     0.110 C 
ATOM     39  H4  UNL     1      13.577   2.260   7.118  1.00  0.00     0.161 HD
HETATM   40  N5  UNL     1      12.316  -0.314   5.088  1.00  0.00    -0.336 N 
HETATM   41  C24 UNL     1      12.393   1.828   4.491  1.00  0.00     0.286 C 
HETATM   42  C23 UNL     1      11.886  -0.277   3.739  1.00  0.00     0.408 C 
ATOM     43  H5  UNL     1      12.405  -1.194   5.595  1.00  0.00     0.164 HD
HETATM   44  N7  UNL     1      11.470   1.149   3.644  1.00  0.00    -0.024 N 
ATOM     45  H72 UNL     1      11.426   1.512   2.692  1.00  0.00     0.282 HD
ATOM     46  H71 UNL     1      10.489   1.317   3.869  1.00  0.00     0.282 HD
BRANCH  42  47
HETATM   47  N6  UNL     1      10.680  -1.122   3.618  1.00  0.00    -0.048 NA
BRANCH  47  48
HETATM   48  O10 UNL     1       9.616  -0.378   4.092  1.00  0.00    -0.293 OA
ATOM     49  H10 UNL     1       9.713  -0.322   5.036  1.00  0.00     0.238 HD
ENDBRANCH  47  48
ENDBRANCH  42  47
ENDBRANCH   8  36
ENDBRANCH   1   8
TORSDOF 14
ENDMDL
MODEL 5
REMARK VINA RESULT: -8.372555607      3.004      6.019
REMARK  14 active torsions:
REMARK  status: ('A' for Active; 'I' for Inactive)
REMARK    1  A    between atoms: O1_2  and  C2_3 
REMARK    2  A    between atoms: C2_3  and  C3_5 
REMARK    3  A    between atoms: C3_5  and  C4_7 
REMARK    4  A    between atoms: C6_10  and  O5_11 
REMARK    5  A    between atoms: C8_14  and  O6_15 
REMARK    6  A    between atoms: C10_18  and  O7_19 
REMARK    7  A    between atoms: O7_19  and  C11_20 
REMARK    8  A    between atoms: C15_25  and  C16_26 
REMARK    9  A    between atoms: C16_26  and  O9_27 
REMARK   10  A    between atoms: O9_27  and  C17_28 
REMARK   11  A    between atoms: C17_28  and  N1_29 
REMARK   12  A    between atoms: C17_28  and  C21_36 
REMARK   13  A    between atoms: C23_42  and  N6_43 
REMARK   14  A    between atoms: N6_43  and  O10_44 
ROOT
HETATM    1  N1  UNL     1      16.601   5.820   9.589  1.00  0.00    -0.321 N 
ATOM      2  H1  UNL     1      16.656   5.222   8.763  1.00  0.00     0.169 HD
HETATM    3  C18 UNL     1      16.013   5.261  10.544  1.00  0.00     0.197 C 
HETATM    4  C19 UNL     1      15.856   5.971  11.801  1.00  0.00     0.129 C 
HETATM    5  N2  UNL     1      15.759   6.548  12.800  1.00  0.00    -0.189 NA
HETATM    6  C20 UNL     1      15.496   3.927  10.394  1.00  0.00     0.129 C 
HETATM    7  N3  UNL     1      15.052   2.846  10.273  1.00  0.00    -0.189 NA
ENDROOT
BRANCH   1   8
HETATM    8  C17 UNL     1      17.200   7.064   9.385  1.00  0.00     0.150 C 
BRANCH   8   9
HETATM    9  O9  UNL     1      18.594   7.061   9.402  1.00  0.00    -0.307 OA
BRANCH   9  10
HETATM   10  C16 UNL     1      19.393   7.326  10.474  1.00  0.00     0.153 C 
BRANCH  10  11
HETATM   11  C15 UNL     1      19.810   7.900  11.460  1.00  0.00    -0.005 C 
HETATM   12  C4  UNL     1      20.744   7.200  12.486  1.00  0.00     0.174 C 
HETATM   13  C5  UNL     1      21.788   8.125  12.921  1.00  0.00     0.176 C 
HETATM   14  O4  UNL     1      22.749   7.670  13.557  1.00  0.00    -0.294 OA
HETATM   15  C6  UNL     1      21.807   9.564  12.665  1.00  0.00     0.225 C 
HETATM   16  C7  UNL     1      20.419  10.056  12.499  1.00  0.00     0.022 A 
HETATM   17  C8  UNL     1      20.089  11.304  12.953  1.00  0.00     0.078 A 
HETATM   18  C14 UNL     1      19.465   9.235  11.899  1.00  0.00    -0.012 A 
HETATM   19  C9  UNL     1      18.790  11.771  12.820  1.00  0.00     0.074 A 
HETATM   20  C10 UNL     1      17.826  10.965  12.225  1.00  0.00     0.082 A 
HETATM   21  C13 UNL     1      18.195   9.726  11.785  1.00  0.00     0.050 A 
BRANCH  12  22
HETATM   22  C3  UNL     1      19.960   6.678  13.579  1.00  0.00     0.239 C 
HETATM   23  O3  UNL     1      19.187   5.684  13.334  1.00  0.00    -0.285 OA
BRANCH  22  24
HETATM   24  C2  UNL     1      19.956   7.165  14.922  1.00  0.00     0.330 C 
HETATM   25  O2  UNL     1      20.508   6.511  15.845  1.00  0.00    -0.256 OA
BRANCH  24  26
HETATM   26  O1  UNL     1      19.357   8.366  15.298  1.00  0.00    -0.320 OA
HETATM   27  C1  UNL     1      17.961   8.504  15.284  1.00  0.00     0.213 C 
ENDBRANCH  24  26
ENDBRANCH  22  24
ENDBRANCH  12  22
BRANCH  15  28
HETATM   28  O5  UNL     1      22.430  10.207  13.760  1.00  0.00    -0.383 OA
ATOM     29  H5  UNL     1      22.652  11.094  13.503  1.00  0.00     0.211 HD
ENDBRANCH  15  28
BRANCH  17  30
HETATM   30  O6  UNL     1      21.028  12.129  13.554  1.00  0.00    -0.360 OA
ATOM     31  H6  UNL     1      21.229  12.061  14.480  1.00  0.00     0.217 HD
ENDBRANCH  17  30
BRANCH  20  32
HETATM   32  O7  UNL     1      16.507  11.423  12.087  1.00  0.00    -0.279 OA
BRANCH  32  33
HETATM   33  C11 UNL     1      15.417  10.625  12.345  1.00  0.00     0.260 C 
HETATM   34  C12 UNL     1      15.041  10.228  13.741  1.00  0.00     0.126 C 
HETATM   35  O8  UNL     1      14.689  10.192  11.422  1.00  0.00    -0.265 OA
ENDBRANCH  32  33
ENDBRANCH  20  32
ENDBRANCH  10  11
ENDBRANCH   9  10
ENDBRANCH   8   9
BRANCH   8  36
HETATM   36  C21 UNL     1      16.550   7.940   8.400  1.00  0.00     0.196 C 
HETATM   37  N4  UNL     1      16.050   9.169   9.071  1.00  0.00    -0.363 N 
HETATM   38  C22 UNL     1      15.137   9.356   7.921  1.00  0.00     0.110 C 
ATOM     39  H4  UNL     1      16.248   9.664   9.940  1.00  0.00     0.161 HD
HETATM   40  N5  UNL     1      14.379   9.616   6.968  1.00  0.00    -0.336 N 
HETATM   41  C24 UNL     1      15.136   7.796   8.000  1.00  0.00     0.286 C 
HETATM   42  C23 UNL     1      13.842   8.518   6.250  1.00  0.00     0.408 C 
ATOM     43  H5  UNL     1      14.153  10.578   6.715  1.00  0.00     0.164 HD
HETATM   44  N7  UNL     1      14.803   7.456   6.657  1.00  0.00    -0.024 N 
ATOM     45  H72 UNL     1      14.455   6.505   6.537  1.00  0.00     0.282 HD
ATOM     46  H71 UNL     1      15.607   7.355   6.037  1.00  0.00     0.282 HD
BRANCH  42  47
HETATM   47  N6  UNL     1      14.023   8.780   4.808  1.00  0.00    -0.048 NA
BRANCH  47  48
HETATM   48  O10 UNL     1      14.019  10.152   4.642  1.00  0.00    -0.293 OA
ATOM     49  H10 UNL     1      13.972  10.319   3.708  1.00  0.00     0.238 HD
ENDBRANCH  47  48
ENDBRANCH  42  47
ENDBRANCH   8  36
ENDBRANCH   1   8
TORSDOF 14
ENDMDL
