MODEL 1
REMARK VINA RESULT: -8.176056544      0.000      0.000
REMARK  18 active torsions:
REMARK  status: ('A' for Active; 'I' for Inactive)
REMARK    1  A    between atoms: O1_2  and  C2_3 
REMARK    2  A    between atoms: C2_3  and  O2_4 
REMARK    3  A    between atoms: C5_7  and  C6_8 
REMARK    4  A    between atoms: C7_9  and  O3_10 
REMARK    5  A    between atoms: C9_13  and  O4_14 
REMARK    6  A    between atoms: O4_14  and  C10_15 
REMARK    7  A    between atoms: C10_15  and  O6_17 
REMARK    8  A    between atoms: O6_17  and  N1_18 
REMARK    9  A    between atoms: C12_24  and  O7_25 
REMARK   10  A    between atoms: C12_24  and  N4_27 
REMARK   11  A    between atoms: N4_27  and  O8_29 
REMARK   12  A    between atoms: N5_32  and  O9_34 
REMARK   13  A    between atoms: C15_37  and  O10_38 
REMARK   14  A    between atoms: C16_40  and  O11_41 
REMARK   15  A    between atoms: C17_43  and  C18_44 
REMARK   16  A    between atoms: C17_43  and  O13_47 
REMARK   17  A    between atoms: C18_44  and  O12_45 
REMARK   18  A    between atoms: O13_47  and  C19_48 
ROOT
HETATM    1  N1  UNL     1      23.414   6.517   9.957  1.00  0.00    -0.188 N 
ATOM      2  H1  UNL     1      23.838   7.168   9.296  1.00  0.00     0.217 HD
HETATM    3  N2  UNL     1      23.936   5.400  10.169  1.00  0.00    -0.216 N 
ATOM      4  H2  UNL     1      23.475   4.784  10.839  1.00  0.00     0.201 HD
HETATM    5  C11 UNL     1      25.089   4.938   9.567  1.00  0.00     0.199 C 
HETATM    6  N3  UNL     1      26.057   4.554   9.040  1.00  0.00    -0.170 NA
ENDROOT
BRANCH   1   7
HETATM    7  O6  UNL     1      22.265   6.854  10.623  1.00  0.00    -0.158 OA
BRANCH   7   8
HETATM    8  C10 UNL     1      22.302   7.225  11.939  1.00  0.00     0.435 C 
HETATM    9  O5  UNL     1      23.438   7.391  12.498  1.00  0.00    -0.227 OA
BRANCH   8  10
HETATM   10  O4  UNL     1      21.189   7.440  12.726  1.00  0.00    -0.252 OA
BRANCH  10  11
HETATM   11  C9  UNL     1      20.412   8.602  12.537  1.00  0.00     0.136 A 
HETATM   12  C8  UNL     1      19.302   8.682  11.835  1.00  0.00     0.049 A 
HETATM   13  C7  UNL     1      18.350   7.942  11.013  1.00  0.00     0.093 A 
HETATM   14  C14 UNL     1      18.819  10.049  11.896  1.00  0.00     0.044 A 
HETATM   15  C6  UNL     1      17.395   8.764  10.617  1.00  0.00     0.041 A 
HETATM   16  C15 UNL     1      17.688  10.084  11.170  1.00  0.00     0.092 A 
HETATM   17  C13 UNL     1      19.744  10.823  12.712  1.00  0.00     0.109 A 
HETATM   18  C12 UNL     1      20.807   9.884  13.145  1.00  0.00     0.249 A 
HETATM   19  N5  UNL     1      19.679  12.098  13.019  1.00  0.00    -0.267 N 
ATOM     20  H5  UNL     1      20.416  12.490  13.605  1.00  0.00     0.194 HD
BRANCH  13  21
HETATM   21  O3  UNL     1      18.406   6.600  10.681  1.00  0.00    -0.359 OA
ATOM     22  H3  UNL     1      18.820   6.262   9.895  1.00  0.00     0.217 HD
ENDBRANCH  13  21
BRANCH  15  23
HETATM   23  C5  UNL     1      16.224   8.465   9.772  1.00  0.00    -0.009 C 
HETATM   24  C4  UNL     1      15.094   7.882  10.104  1.00  0.00     0.055 C 
HETATM   25  C2  UNL     1      14.151   7.755   8.982  1.00  0.00     0.221 C 
HETATM   26  C17 UNL     1      14.967   8.123   7.770  1.00  0.00     0.181 C 
HETATM   27  C16 UNL     1      16.180   8.830   8.333  1.00  0.00     0.195 C 
BRANCH  25  28
HETATM   28  O1  UNL     1      13.840   6.365   8.830  1.00  0.00    -0.354 OA
HETATM   29  C1  UNL     1      13.710   5.731  10.041  1.00  0.00     0.206 C 
ENDBRANCH  25  28
BRANCH  25  30
HETATM   30  O2  UNL     1      12.995   8.457   9.143  1.00  0.00    -0.354 OA
HETATM   31  C3  UNL     1      12.869   9.290  10.200  1.00  0.00     0.206 C 
ENDBRANCH  25  30
BRANCH  26  32
HETATM   32  C18 UNL     1      15.502   6.867   7.083  1.00  0.00     0.212 C 
BRANCH  32  33
HETATM   33  O12 UNL     1      16.782   6.567   7.479  1.00  0.00    -0.398 OA
ATOM     34  H12 UNL     1      17.414   6.720   6.787  1.00  0.00     0.209 HD
ENDBRANCH  32  33
ENDBRANCH  26  32
BRANCH  26  35
HETATM   35  O13 UNL     1      14.215   8.897   6.892  1.00  0.00    -0.299 OA
BRANCH  35  36
HETATM   36  C19 UNL     1      13.716   8.516   5.665  1.00  0.00     0.255 C 
HETATM   37  C20 UNL     1      12.594   7.551   5.564  1.00  0.00     0.126 C 
HETATM   38  O14 UNL     1      14.230   9.002   4.632  1.00  0.00    -0.266 OA
ENDBRANCH  35  36
ENDBRANCH  26  35
BRANCH  27  39
HETATM   39  O11 UNL     1      16.085  10.211   8.216  1.00  0.00    -0.388 OA
ATOM     40  H11 UNL     1      15.560  10.423   7.453  1.00  0.00     0.210 HD
ENDBRANCH  27  39
ENDBRANCH  15  23
BRANCH  16  41
HETATM   41  O10 UNL     1      16.979  11.269  11.032  1.00  0.00    -0.359 OA
ATOM     42  H10 UNL     1      17.195  12.138  11.351  1.00  0.00     0.217 HD
ENDBRANCH  16  41
BRANCH  18  43
HETATM   43  O7  UNL     1      20.884   9.812  14.536  1.00  0.00    -0.359 OA
ATOM     44  H7  UNL     1      21.522  10.417  14.896  1.00  0.00     0.213 HD
ENDBRANCH  18  43
BRANCH  18  45
HETATM   45  N4  UNL     1      22.074  10.254  12.570  1.00  0.00    -0.258 N 
ATOM     46  H4  UNL     1      22.824   9.567  12.492  1.00  0.00     0.191 HD
BRANCH  45  47
HETATM   47  O8  UNL     1      22.242  11.378  12.181  1.00  0.00    -0.291 OA
ATOM     48  H8  UNL     1      23.124  11.725  12.119  1.00  0.00     0.244 HD
ENDBRANCH  45  47
ENDBRANCH  18  45
BRANCH  19  49
HETATM   49  O9  UNL     1      18.683  12.924  12.598  1.00  0.00    -0.290 OA
ATOM     50  H9  UNL     1      18.697  13.866  12.716  1.00  0.00     0.244 HD
ENDBRANCH  19  49
ENDBRANCH  10  11
ENDBRANCH   8  10
ENDBRANCH   7   8
ENDBRANCH   1   7
TORSDOF 18
ENDMDL
MODEL 2
REMARK VINA RESULT: -8.052979710      1.474      1.816
REMARK  18 active torsions:
REMARK  status: ('A' for Active; 'I' for Inactive)
REMARK    1  A    between atoms: O1_2  and  C2_3 
REMARK    2  A    between atoms: C2_3  and  O2_4 
REMARK    3  A    between atoms: C5_7  and  C6_8 
REMARK    4  A    between atoms: C7_9  and  O3_10 
REMARK    5  A    between atoms: C9_13  and  O4_14 
REMARK    6  A    between atoms: O4_14  and  C10_15 
REMARK    7  A    between atoms: C10_15  and  O6_17 
REMARK    8  A    between atoms: O6_17  and  N1_18 
REMARK    9  A    between atoms: C12_24  and  O7_25 
REMARK   10  A    between atoms: C12_24  and  N4_27 
REMARK   11  A    between atoms: N4_27  and  O8_29 
REMARK   12  A    between atoms: N5_32  and  O9_34 
REMARK   13  A    between atoms: C15_37  and  O10_38 
REMARK   14  A    between atoms: C16_40  and  O11_41 
REMARK   15  A    between atoms: C17_43  and  C18_44 
REMARK   16  A    between atoms: C17_43  and  O13_47 
REMARK   17  A    between atoms: C18_44  and  O12_45 
REMARK   18  A    between atoms: O13_47  and  C19_48 
ROOT
HETATM    1  N1  UNL     1      23.175   6.811  10.378  1.00  0.00    -0.188 N 
ATOM      2  H1  UNL     1      23.433   7.393   9.581  1.00  0.00     0.217 HD
HETATM    3  N2  UNL     1      23.735   5.708  10.564  1.00  0.00    -0.216 N 
ATOM      4  H2  UNL     1      23.443   5.163  11.376  1.00  0.00     0.201 HD
HETATM    5  C11 UNL     1      24.718   5.173   9.756  1.00  0.00     0.199 C 
HETATM    6  N3  UNL     1      25.538   4.726   9.056  1.00  0.00    -0.170 NA
ENDROOT
BRANCH   1   7
HETATM    7  O6  UNL     1      22.211   7.227  11.259  1.00  0.00    -0.158 OA
BRANCH   7   8
HETATM    8  C10 UNL     1      22.509   7.433  12.578  1.00  0.00     0.435 C 
HETATM    9  O5  UNL     1      23.657   7.077  13.010  1.00  0.00    -0.227 OA
BRANCH   8  10
HETATM   10  O4  UNL     1      21.654   8.005  13.496  1.00  0.00    -0.252 OA
BRANCH  10  11
HETATM   11  C9  UNL     1      20.792   9.048  13.096  1.00  0.00     0.136 A 
HETATM   12  C8  UNL     1      19.693   8.911  12.386  1.00  0.00     0.049 A 
HETATM   13  C7  UNL     1      18.818   7.962  11.708  1.00  0.00     0.093 A 
HETATM   14  C14 UNL     1      19.105  10.223  12.195  1.00  0.00     0.044 A 
HETATM   15  C6  UNL     1      17.809   8.619  11.164  1.00  0.00     0.041 A 
HETATM   16  C15 UNL     1      17.989  10.036  11.470  1.00  0.00     0.092 A 
HETATM   17  C13 UNL     1      19.952  11.204  12.861  1.00  0.00     0.109 A 
HETATM   18  C12 UNL     1      21.076  10.446  13.463  1.00  0.00     0.249 A 
HETATM   19  N5  UNL     1      19.783  12.504  12.931  1.00  0.00    -0.267 N 
ATOM     20  H5  UNL     1      20.476  13.053  13.439  1.00  0.00     0.194 HD
BRANCH  13  21
HETATM   21  O3  UNL     1      18.983   6.590  11.625  1.00  0.00    -0.359 OA
ATOM     22  H3  UNL     1      19.822   6.161  11.503  1.00  0.00     0.217 HD
ENDBRANCH  13  21
BRANCH  15  23
HETATM   23  C5  UNL     1      16.681   8.080  10.383  1.00  0.00    -0.009 C 
HETATM   24  C4  UNL     1      15.403   8.373  10.470  1.00  0.00     0.055 C 
HETATM   25  C2  UNL     1      14.567   7.626   9.516  1.00  0.00     0.221 C 
HETATM   26  C17 UNL     1      15.494   6.580   8.953  1.00  0.00     0.181 C 
HETATM   27  C16 UNL     1      16.879   7.071   9.311  1.00  0.00     0.195 C 
BRANCH  25  28
HETATM   28  O1  UNL     1      13.585   6.905  10.269  1.00  0.00    -0.354 OA
HETATM   29  C1  UNL     1      12.961   7.703  11.197  1.00  0.00     0.206 C 
ENDBRANCH  25  28
BRANCH  25  30
HETATM   30  O2  UNL     1      13.939   8.407   8.594  1.00  0.00    -0.354 OA
HETATM   31  C3  UNL     1      14.286   9.710   8.484  1.00  0.00     0.206 C 
ENDBRANCH  25  30
BRANCH  26  32
HETATM   32  C18 UNL     1      15.320   5.255   9.696  1.00  0.00     0.212 C 
BRANCH  32  33
HETATM   33  O12 UNL     1      16.259   5.090  10.683  1.00  0.00    -0.398 OA
ATOM     34  H12 UNL     1      16.551   4.189  10.751  1.00  0.00     0.209 HD
ENDBRANCH  32  33
ENDBRANCH  26  32
BRANCH  26  35
HETATM   35  O13 UNL     1      15.281   6.424   7.587  1.00  0.00    -0.299 OA
BRANCH  35  36
HETATM   36  C19 UNL     1      15.622   5.338   6.810  1.00  0.00     0.255 C 
HETATM   37  C20 UNL     1      14.584   4.553   6.099  1.00  0.00     0.126 C 
HETATM   38  O14 UNL     1      16.831   5.025   6.715  1.00  0.00    -0.266 OA
ENDBRANCH  35  36
ENDBRANCH  26  35
BRANCH  27  39
HETATM   39  O11 UNL     1      17.519   7.671   8.234  1.00  0.00    -0.388 OA
ATOM     40  H11 UNL     1      16.874   8.122   7.701  1.00  0.00     0.210 HD
ENDBRANCH  27  39
ENDBRANCH  15  23
BRANCH  16  41
HETATM   41  O10 UNL     1      17.193  11.117  11.115  1.00  0.00    -0.359 OA
ATOM     42  H10 UNL     1      16.856  11.819  11.661  1.00  0.00     0.217 HD
ENDBRANCH  16  41
BRANCH  18  43
HETATM   43  O7  UNL     1      21.132  10.633  14.843  1.00  0.00    -0.359 OA
ATOM     44  H7  UNL     1      21.454   9.866  15.301  1.00  0.00     0.213 HD
ENDBRANCH  18  43
BRANCH  18  45
HETATM   45  N4  UNL     1      22.321  10.806  12.835  1.00  0.00    -0.258 N 
ATOM     46  H4  UNL     1      23.193  10.370  13.136  1.00  0.00     0.191 HD
BRANCH  45  47
HETATM   47  O8  UNL     1      22.326  11.623  11.955  1.00  0.00    -0.291 OA
ATOM     48  H8  UNL     1      21.815  12.418  12.051  1.00  0.00     0.244 HD
ENDBRANCH  45  47
ENDBRANCH  18  45
BRANCH  19  49
HETATM   49  O9  UNL     1      18.733  13.158  12.362  1.00  0.00    -0.290 OA
ATOM     50  H9  UNL     1      17.946  13.401  12.836  1.00  0.00     0.244 HD
ENDBRANCH  19  49
ENDBRANCH  10  11
ENDBRANCH   8  10
ENDBRANCH   7   8
ENDBRANCH   1   7
TORSDOF 18
ENDMDL
MODEL 3
REMARK VINA RESULT: -8.039772145      1.458      1.749
REMARK  18 active torsions:
REMARK  status: ('A' for Active; 'I' for Inactive)
REMARK    1  A    between atoms: O1_2  and  C2_3 
REMARK    2  A    between atoms: C2_3  and  O2_4 
REMARK    3  A    between atoms: C5_7  and  C6_8 
REMARK    4  A    between atoms: C7_9  and  O3_10 
REMARK    5  A    between atoms: C9_13  and  O4_14 
REMARK    6  A    between atoms: O4_14  and  C10_15 
REMARK    7  A    between atoms: C10_15  and  O6_17 
REMARK    8  A    between atoms: O6_17  and  N1_18 
REMARK    9  A    between atoms: C12_24  and  O7_25 
REMARK   10  A    between atoms: C12_24  and  N4_27 
REMARK   11  A    between atoms: N4_27  and  O8_29 
REMARK   12  A    between atoms: N5_32  and  O9_34 
REMARK   13  A    between atoms: C15_37  and  O10_38 
REMARK   14  A    between atoms: C16_40  and  O11_41 
REMARK   15  A    between atoms: C17_43  and  C18_44 
REMARK   16  A    between atoms: C17_43  and  O13_47 
REMARK   17  A    between atoms: C18_44  and  O12_45 
REMARK   18  A    between atoms: O13_47  and  C19_48 
ROOT
HETATM    1  N1  UNL     1      23.629   6.690  11.703  1.00  0.00    -0.188 N 
ATOM      2  H1  UNL     1      23.250   7.253  10.941  1.00  0.00     0.217 HD
HETATM    3  N2  UNL     1      24.407   5.741  11.462  1.00  0.00    -0.216 N 
ATOM      4  H2  UNL     1      24.760   5.208  12.258  1.00  0.00     0.201 HD
HETATM    5  C11 UNL     1      24.824   5.358  10.203  1.00  0.00     0.199 C 
HETATM    6  N3  UNL     1      25.157   5.037   9.132  1.00  0.00    -0.170 NA
ENDROOT
BRANCH   1   7
HETATM    7  O6  UNL     1      23.293   6.966  13.002  1.00  0.00    -0.158 OA
BRANCH   7   8
HETATM    8  C10 UNL     1      22.408   7.965  13.300  1.00  0.00     0.435 C 
HETATM    9  O5  UNL     1      21.462   7.721  14.123  1.00  0.00    -0.227 OA
BRANCH   8  10
HETATM   10  O4  UNL     1      22.456   9.240  12.775  1.00  0.00    -0.252 OA
BRANCH  10  11
HETATM   11  C9  UNL     1      21.263   9.974  12.608  1.00  0.00     0.136 A 
HETATM   12  C8  UNL     1      20.150   9.525  12.069  1.00  0.00     0.049 A 
HETATM   13  C7  UNL     1      19.498   8.375  11.453  1.00  0.00     0.093 A 
HETATM   14  C14 UNL     1      19.168  10.593  12.090  1.00  0.00     0.044 A 
HETATM   15  C6  UNL     1      18.259   8.702  11.134  1.00  0.00     0.041 A 
HETATM   16  C15 UNL     1      18.052  10.092  11.534  1.00  0.00     0.092 A 
HETATM   17  C13 UNL     1      19.781  11.765  12.701  1.00  0.00     0.109 A 
HETATM   18  C12 UNL     1      21.170  11.376  13.051  1.00  0.00     0.249 A 
HETATM   19  N5  UNL     1      19.242  12.942  12.913  1.00  0.00    -0.267 N 
ATOM     20  H5  UNL     1      19.814  13.662  13.354  1.00  0.00     0.194 HD
BRANCH  13  21
HETATM   21  O3  UNL     1      20.054   7.128  11.223  1.00  0.00    -0.359 OA
ATOM     22  H3  UNL     1      20.635   6.683  11.830  1.00  0.00     0.217 HD
ENDBRANCH  13  21
BRANCH  15  23
HETATM   23  C5  UNL     1      17.228   7.866  10.493  1.00  0.00    -0.009 C 
HETATM   24  C4  UNL     1      16.637   6.786  10.953  1.00  0.00     0.055 C 
HETATM   25  C2  UNL     1      15.652   6.217  10.020  1.00  0.00     0.221 C 
HETATM   26  C17 UNL     1      15.884   6.967   8.735  1.00  0.00     0.181 C 
HETATM   27  C16 UNL     1      16.687   8.181   9.146  1.00  0.00     0.195 C 
BRANCH  25  28
HETATM   28  O1  UNL     1      16.036   4.864   9.753  1.00  0.00    -0.354 OA
HETATM   29  C1  UNL     1      15.193   3.961  10.353  1.00  0.00     0.206 C 
ENDBRANCH  25  28
BRANCH  25  30
HETATM   30  O2  UNL     1      14.371   6.235  10.484  1.00  0.00    -0.354 OA
HETATM   31  C3  UNL     1      14.047   7.063  11.503  1.00  0.00     0.206 C 
ENDBRANCH  25  30
BRANCH  26  32
HETATM   32  C18 UNL     1      16.794   6.165   7.805  1.00  0.00     0.212 C 
BRANCH  32  33
HETATM   33  O12 UNL     1      18.119   6.481   7.981  1.00  0.00    -0.398 OA
ATOM     34  H12 UNL     1      18.545   5.900   8.600  1.00  0.00     0.209 HD
ENDBRANCH  32  33
ENDBRANCH  26  32
BRANCH  26  35
HETATM   35  O13 UNL     1      14.673   7.268   8.119  1.00  0.00    -0.299 OA
BRANCH  35  36
HETATM   36  C19 UNL     1      14.473   7.611   6.800  1.00  0.00     0.255 C 
HETATM   37  C20 UNL     1      13.722   6.717   5.885  1.00  0.00     0.126 C 
HETATM   38  O14 UNL     1      14.938   8.697   6.386  1.00  0.00    -0.266 OA
ENDBRANCH  35  36
ENDBRANCH  26  35
BRANCH  27  39
HETATM   39  O11 UNL     1      15.904   9.326   9.227  1.00  0.00    -0.388 OA
ATOM     40  H11 UNL     1      15.266   9.317   8.524  1.00  0.00     0.210 HD
ENDBRANCH  27  39
ENDBRANCH  15  23
BRANCH  16  41
HETATM   41  O10 UNL     1      16.916  10.881  11.406  1.00  0.00    -0.359 OA
ATOM     42  H10 UNL     1      16.328  10.969  10.665  1.00  0.00     0.217 HD
ENDBRANCH  16  41
BRANCH  18  43
HETATM   43  O7  UNL     1      21.408  11.520  14.417  1.00  0.00    -0.359 OA
ATOM     44  H7  UNL     1      20.713  11.150  14.948  1.00  0.00     0.213 HD
ENDBRANCH  18  43
BRANCH  18  45
HETATM   45  N4  UNL     1      22.116  12.131  12.271  1.00  0.00    -0.258 N 
ATOM     46  H4  UNL     1      23.112  11.915  12.323  1.00  0.00     0.191 HD
BRANCH  45  47
HETATM   47  O8  UNL     1      21.726  13.017  11.560  1.00  0.00    -0.291 OA
ATOM     48  H8  UNL     1      22.321  13.713  11.309  1.00  0.00     0.244 HD
ENDBRANCH  45  47
ENDBRANCH  18  45
BRANCH  19  49
HETATM   49  O9  UNL     1      17.961  13.254  12.575  1.00  0.00    -0.290 OA
ATOM     50  H9  UNL     1      17.426  12.724  11.995  1.00  0.00     0.244 HD
ENDBRANCH  19  49
ENDBRANCH  10  11
ENDBRANCH   8  10
ENDBRANCH   7   8
ENDBRANCH   1   7
TORSDOF 18
ENDMDL
MODEL 4
REMARK VINA RESULT: -8.002890792      1.342      2.285
REMARK  18 active torsions:
REMARK  status: ('A' for Active; 'I' for Inactive)
REMARK    1  A    between atoms: O1_2  and  C2_3 
REMARK    2  A    between atoms: C2_3  and  O2_4 
REMARK    3  A    between atoms: C5_7  and  C6_8 
REMARK    4  A    between atoms: C7_9  and  O3_10 
REMARK    5  A    between atoms: C9_13  and  O4_14 
REMARK    6  A    between atoms: O4_14  and  C10_15 
REMARK    7  A    between atoms: C10_15  and  O6_17 
REMARK    8  A    between atoms: O6_17  and  N1_18 
REMARK    9  A    between atoms: C12_24  and  O7_25 
REMARK   10  A    between atoms: C12_24  and  N4_27 
REMARK   11  A    between atoms: N4_27  and  O8_29 
REMARK   12  A    between atoms: N5_32  and  O9_34 
REMARK   13  A    between atoms: C15_37  and  O10_38 
REMARK   14  A    between atoms: C16_40  and  O11_41 
REMARK   15  A    between atoms: C17_43  and  C18_44 
REMARK   16  A    between atoms: C17_43  and  O13_47 
REMARK   17  A    between atoms: C18_44  and  O12_45 
REMARK   18  A    between atoms: O13_47  and  C19_48 
ROOT
HETATM    1  N1  UNL     1      22.932   6.630  10.529  1.00  0.00    -0.188 N 
ATOM      2  H1  UNL     1      22.345   6.107   9.880  1.00  0.00     0.217 HD
HETATM    3  N2  UNL     1      24.162   6.408  10.589  1.00  0.00    -0.216 N 
ATOM      4  H2  UNL     1      24.708   6.957  11.253  1.00  0.00     0.201 HD
HETATM    5  C11 UNL     1      24.837   5.476   9.826  1.00  0.00     0.199 C 
HETATM    6  N3  UNL     1      25.392   4.675   9.184  1.00  0.00    -0.170 NA
ENDROOT
BRANCH   1   7
HETATM    7  O6  UNL     1      22.386   7.585  11.345  1.00  0.00    -0.158 OA
BRANCH   7   8
HETATM    8  C10 UNL     1      22.604   7.561  12.695  1.00  0.00     0.435 C 
HETATM    9  O5  UNL     1      23.580   6.872  13.147  1.00  0.00    -0.227 OA
BRANCH   8  10
HETATM   10  O4  UNL     1      21.840   8.234  13.626  1.00  0.00    -0.252 OA
BRANCH  10  11
HETATM   11  C9  UNL     1      20.923   9.218  13.200  1.00  0.00     0.136 A 
HETATM   12  C8  UNL     1      19.851   9.007  12.466  1.00  0.00     0.049 A 
HETATM   13  C7  UNL     1      19.054   8.001  11.774  1.00  0.00     0.093 A 
HETATM   14  C14 UNL     1      19.185  10.278  12.254  1.00  0.00     0.044 A 
HETATM   15  C6  UNL     1      18.019   8.590  11.204  1.00  0.00     0.041 A 
HETATM   16  C15 UNL     1      18.100  10.017  11.505  1.00  0.00     0.092 A 
HETATM   17  C13 UNL     1      19.951  11.314  12.933  1.00  0.00     0.109 A 
HETATM   18  C12 UNL     1      21.108  10.633  13.565  1.00  0.00     0.249 A 
HETATM   19  N5  UNL     1      19.698  12.601  12.991  1.00  0.00    -0.267 N 
ATOM     20  H5  UNL     1      20.342  13.196  13.512  1.00  0.00     0.194 HD
BRANCH  13  21
HETATM   21  O3  UNL     1      19.309   6.642  11.704  1.00  0.00    -0.359 OA
ATOM     22  H3  UNL     1      18.983   6.073  11.016  1.00  0.00     0.217 HD
ENDBRANCH  13  21
BRANCH  15  23
HETATM   23  C5  UNL     1      16.946   7.976  10.400  1.00  0.00    -0.009 C 
HETATM   24  C4  UNL     1      16.985   6.886   9.666  1.00  0.00     0.055 C 
HETATM   25  C2  UNL     1      15.707   6.584   9.002  1.00  0.00     0.221 C 
HETATM   26  C17 UNL     1      14.877   7.823   9.216  1.00  0.00     0.181 C 
HETATM   27  C16 UNL     1      15.582   8.562  10.332  1.00  0.00     0.195 C 
BRANCH  25  28
HETATM   28  O1  UNL     1      15.952   6.522   7.593  1.00  0.00    -0.354 OA
HETATM   29  C1  UNL     1      16.984   5.669   7.287  1.00  0.00     0.206 C 
ENDBRANCH  25  28
BRANCH  25  30
HETATM   30  O2  UNL     1      15.130   5.418   9.408  1.00  0.00    -0.354 OA
HETATM   31  C3  UNL     1      15.591   4.804  10.521  1.00  0.00     0.206 C 
ENDBRANCH  25  30
BRANCH  26  32
HETATM   32  C18 UNL     1      14.960   8.740   7.996  1.00  0.00     0.212 C 
BRANCH  32  33
HETATM   33  O12 UNL     1      15.263  10.033   8.341  1.00  0.00    -0.398 OA
ATOM     34  H12 UNL     1      16.186  10.226   8.227  1.00  0.00     0.209 HD
ENDBRANCH  32  33
ENDBRANCH  26  32
BRANCH  26  35
HETATM   35  O13 UNL     1      13.558   7.484   9.503  1.00  0.00    -0.299 OA
BRANCH  35  36
HETATM   36  C19 UNL     1      12.445   8.285   9.368  1.00  0.00     0.255 C 
HETATM   37  C20 UNL     1      11.543   8.146   8.199  1.00  0.00     0.126 C 
HETATM   38  O14 UNL     1      12.208   9.135  10.255  1.00  0.00    -0.266 OA
ENDBRANCH  35  36
ENDBRANCH  26  35
BRANCH  27  39
HETATM   39  O11 UNL     1      14.952   8.390  11.557  1.00  0.00    -0.388 OA
ATOM     40  H11 UNL     1      14.330   7.674  11.489  1.00  0.00     0.210 HD
ENDBRANCH  27  39
ENDBRANCH  15  23
BRANCH  16  41
HETATM   41  O10 UNL     1      17.244  11.043  11.126  1.00  0.00    -0.359 OA
ATOM     42  H10 UNL     1      16.519  11.426  11.605  1.00  0.00     0.217 HD
ENDBRANCH  16  41
BRANCH  18  43
HETATM   43  O7  UNL     1      21.120  10.829  14.945  1.00  0.00    -0.359 OA
ATOM     44  H7  UNL     1      21.750  10.271  15.385  1.00  0.00     0.213 HD
ENDBRANCH  18  43
BRANCH  18  45
HETATM   45  N4  UNL     1      22.341  11.069  12.963  1.00  0.00    -0.258 N 
ATOM     46  H4  UNL     1      23.236  10.826  13.390  1.00  0.00     0.191 HD
BRANCH  45  47
HETATM   47  O8  UNL     1      22.310  11.721  11.954  1.00  0.00    -0.291 OA
ATOM     48  H8  UNL     1      23.032  12.303  11.751  1.00  0.00     0.244 HD
ENDBRANCH  45  47
ENDBRANCH  18  45
BRANCH  19  49
HETATM   49  O9  UNL     1      18.622  13.183  12.395  1.00  0.00    -0.290 OA
ATOM     50  H9  UNL     1      18.072  13.830  12.821  1.00  0.00     0.244 HD
ENDBRANCH  19  49
ENDBRANCH  10  11
ENDBRANCH   8  10
ENDBRANCH   7   8
ENDBRANCH   1   7
TORSDOF 18
ENDMDL
MODEL 5
REMARK VINA RESULT: -8.002679638      1.172      2.568
REMARK  18 active torsions:
REMARK  status: ('A' for Active; 'I' for Inactive)
REMARK    1  A    between atoms: O1_2  and  C2_3 
REMARK    2  A    between atoms: C2_3  and  O2_4 
REMARK    3  A    between atoms: C5_7  and  C6_8 
REMARK    4  A    between atoms: C7_9  and  O3_10 
REMARK    5  A    between atoms: C9_13  and  O4_14 
REMARK    6  A    between atoms: O4_14  and  C10_15 
REMARK    7  A    between atoms: C10_15  and  O6_17 
REMARK    8  A    between atoms: O6_17  and  N1_18 
REMARK    9  A    between atoms: C12_24  and  O7_25 
REMARK   10  A    between atoms: C12_24  and  N4_27 
REMARK   11  A    between atoms: N4_27  and  O8_29 
REMARK   12  A    between atoms: N5_32  and  O9_34 
REMARK   13  A    between atoms: C15_37  and  O10_38 
REMARK   14  A    between atoms: C16_40  and  O11_41 
REMARK   15  A    between atoms: C17_43  and  C18_44 
REMARK   16  A    between atoms: C17_43  and  O13_47 
REMARK   17  A    between atoms: C18_44  and  O12_45 
REMARK   18  A    between atoms: O13_47  and  C19_48 
ROOT
HETATM    1  N1  UNL     1      24.134   6.572   9.958  1.00  0.00    -0.188 N 
ATOM      2  H1  UNL     1      24.362   6.994   9.058  1.00  0.00     0.217 HD
HETATM    3  N2  UNL     1      24.649   5.483  10.295  1.00  0.00    -0.216 N 
ATOM      4  H2  UNL     1      24.391   5.101  11.205  1.00  0.00     0.201 HD
HETATM    5  C11 UNL     1      25.542   4.759   9.530  1.00  0.00     0.199 C 
HETATM    6  N3  UNL     1      26.285   4.150   8.867  1.00  0.00    -0.170 NA
ENDROOT
BRANCH   1   7
HETATM    7  O6  UNL     1      23.260   7.190  10.813  1.00  0.00    -0.158 OA
BRANCH   7   8
HETATM    8  C10 UNL     1      21.968   6.754  10.930  1.00  0.00     0.435 C 
HETATM    9  O5  UNL     1      21.472   6.048   9.989  1.00  0.00    -0.227 OA
BRANCH   8  10
HETATM   10  O4  UNL     1      21.143   7.021  12.003  1.00  0.00    -0.252 OA
BRANCH  10  11
HETATM   11  C9  UNL     1      20.306   8.157  11.977  1.00  0.00     0.136 A 
HETATM   12  C8  UNL     1      19.187   8.275  11.296  1.00  0.00     0.049 A 
HETATM   13  C7  UNL     1      18.267   7.608  10.381  1.00  0.00     0.093 A 
HETATM   14  C14 UNL     1      18.637   9.594  11.545  1.00  0.00     0.044 A 
HETATM   15  C6  UNL     1      17.268   8.426  10.104  1.00  0.00     0.041 A 
HETATM   16  C15 UNL     1      17.499   9.670  10.833  1.00  0.00     0.092 A 
HETATM   17  C13 UNL     1      19.529  10.296  12.458  1.00  0.00     0.109 A 
HETATM   18  C12 UNL     1      20.642   9.362  12.755  1.00  0.00     0.249 A 
HETATM   19  N5  UNL     1      19.403  11.511  12.937  1.00  0.00    -0.267 N 
ATOM     20  H5  UNL     1      20.125  11.857  13.570  1.00  0.00     0.194 HD
BRANCH  13  21
HETATM   21  O3  UNL     1      18.387   6.328   9.868  1.00  0.00    -0.359 OA
ATOM     22  H3  UNL     1      17.668   5.710   9.804  1.00  0.00     0.217 HD
ENDBRANCH  13  21
BRANCH  15  23
HETATM   23  C5  UNL     1      16.106   8.186   9.229  1.00  0.00    -0.009 C 
HETATM   24  C4  UNL     1      16.049   8.180   7.916  1.00  0.00     0.055 C 
HETATM   25  C2  UNL     1      14.703   7.901   7.391  1.00  0.00     0.221 C 
HETATM   26  C17 UNL     1      13.810   7.984   8.601  1.00  0.00     0.181 C 
HETATM   27  C16 UNL     1      14.758   7.889   9.777  1.00  0.00     0.195 C 
BRANCH  25  28
HETATM   28  O1  UNL     1      14.324   9.001   6.556  1.00  0.00    -0.354 OA
HETATM   29  C1  UNL     1      13.930   8.588   5.307  1.00  0.00     0.206 C 
ENDBRANCH  25  28
BRANCH  25  30
HETATM   30  O2  UNL     1      14.612   6.745   6.676  1.00  0.00    -0.354 OA
HETATM   31  C3  UNL     1      15.510   5.758   6.897  1.00  0.00     0.206 C 
ENDBRANCH  25  30
BRANCH  26  32
HETATM   32  C18 UNL     1      13.168   9.368   8.699  1.00  0.00     0.212 C 
BRANCH  32  33
HETATM   33  O12 UNL     1      12.858   9.702   9.994  1.00  0.00    -0.398 OA
ATOM     34  H12 UNL     1      12.392  10.528  10.047  1.00  0.00     0.209 HD
ENDBRANCH  32  33
ENDBRANCH  26  32
BRANCH  26  35
HETATM   35  O13 UNL     1      12.845   6.982   8.566  1.00  0.00    -0.299 OA
BRANCH  35  36
HETATM   36  C19 UNL     1      11.496   7.133   8.333  1.00  0.00     0.255 C 
HETATM   37  C20 UNL     1      10.945   7.049   6.959  1.00  0.00     0.126 C 
HETATM   38  O14 UNL     1      10.740   7.344   9.308  1.00  0.00    -0.266 OA
ENDBRANCH  35  36
ENDBRANCH  26  35
BRANCH  27  39
HETATM   39  O11 UNL     1      14.767   6.620  10.343  1.00  0.00    -0.388 OA
ATOM     40  H11 UNL     1      14.227   6.041   9.817  1.00  0.00     0.210 HD
ENDBRANCH  27  39
ENDBRANCH  15  23
BRANCH  16  41
HETATM   41  O10 UNL     1      16.730  10.826  10.861  1.00  0.00    -0.359 OA
ATOM     42  H10 UNL     1      16.040  11.072  11.466  1.00  0.00     0.217 HD
ENDBRANCH  16  41
BRANCH  18  43
HETATM   43  O7  UNL     1      20.736   9.103  14.122  1.00  0.00    -0.359 OA
ATOM     44  H7  UNL     1      20.912   8.189  14.308  1.00  0.00     0.213 HD
ENDBRANCH  18  43
BRANCH  18  45
HETATM   45  N4  UNL     1      21.884   9.872  12.233  1.00  0.00    -0.258 N 
ATOM     46  H4  UNL     1      21.882  10.519  11.444  1.00  0.00     0.191 HD
BRANCH  45  47
HETATM   47  O8  UNL     1      22.921   9.531  12.733  1.00  0.00    -0.291 OA
ATOM     48  H8  UNL     1      23.732   9.648  12.254  1.00  0.00     0.244 HD
ENDBRANCH  45  47
ENDBRANCH  18  45
BRANCH  19  49
HETATM   49  O9  UNL     1      18.362  12.335  12.636  1.00  0.00    -0.290 OA
ATOM     50  H9  UNL     1      18.264  12.771  11.797  1.00  0.00     0.244 HD
ENDBRANCH  19  49
ENDBRANCH  10  11
ENDBRANCH   8  10
ENDBRANCH   7   8
ENDBRANCH   1   7
TORSDOF 18
ENDMDL
