MODEL 1
REMARK VINA RESULT: -8.374903700      0.000      0.000
REMARK  15 active torsions:
REMARK  status: ('A' for Active; 'I' for Inactive)
REMARK    1  A    between atoms: C2_2  and  O2_4 
REMARK    2  A    between atoms: O2_4  and  C3_5 
REMARK    3  A    between atoms: C3_5  and  O3_6 
REMARK    4  A    between atoms: O3_6  and  C4_7 
REMARK       I    between atoms: C4_7  and  N1_9 
REMARK    5  A    between atoms: N1_9  and  N2_11 
REMARK    6  A    between atoms: N2_11  and  C6_12 
REMARK    7  A    between atoms: N2_11  and  N11_43 
REMARK    8  A    between atoms: C6_12  and  S1_17 
REMARK    9  A    between atoms: N3_13  and  O5_15 
REMARK   10  A    between atoms: S1_17  and  S2_18 
REMARK   11  A    between atoms: S2_18  and  C7_19 
REMARK   12  A    between atoms: N5_21  and  N6_22 
REMARK   13  A    between atoms: C8_26  and  O6_27 
REMARK   14  A    between atoms: O6_27  and  C9_28 
REMARK   15  A    between atoms: C14_38  and  N10_39 
ROOT
HETATM    1  C7  UNL     1      13.749   6.921   8.092  1.00  0.00     0.215 C 
HETATM    2  N4  UNL     1      13.139   5.624   8.136  1.00  0.00    -0.108 NA
HETATM    3  N5  UNL     1      13.253   5.084   9.400  1.00  0.00    -0.054 NA
HETATM    4  N7  UNL     1      13.537   6.142  10.234  1.00  0.00    -0.093 NA
HETATM    5  C8  UNL     1      14.471   6.972   9.452  1.00  0.00     0.264 C 
ENDROOT
BRANCH   1   6
HETATM    6  S2  UNL     1      12.514   8.251   8.139  1.00  0.00    -0.062 SA
BRANCH   6   7
HETATM    7  S1  UNL     1      11.168   7.929   6.522  1.00  0.00    -0.014 SA
BRANCH   7   8
HETATM    8  C6  UNL     1      12.134   7.427   5.111  1.00  0.00     0.220 C 
HETATM    9  N3  UNL     1      13.128   8.079   4.645  1.00  0.00    -0.244 N 
ATOM     10  H3  UNL     1      13.615   7.706   3.830  1.00  0.00     0.196 HD
BRANCH   8  11
HETATM   11  N2  UNL     1      11.774   6.216   4.453  1.00  0.00    -0.104 N 
BRANCH  11  12
HETATM   12  N1  UNL     1      11.749   4.982   5.097  1.00  0.00    -0.212 N 
HETATM   13  C4  UNL     1      12.891   4.150   5.020  1.00  0.00     0.385 C 
HETATM   14  O4  UNL     1      13.921   4.498   4.377  1.00  0.00    -0.236 OA
HETATM   15  C5  UNL     1      10.602   4.532   5.839  1.00  0.00     0.186 C 
BRANCH  13  16
HETATM   16  O3  UNL     1      12.918   2.911   5.655  1.00  0.00    -0.276 OA
BRANCH  16  17
HETATM   17  C3  UNL     1      13.173   1.753   4.867  1.00  0.00     0.360 C 
BRANCH  17  18
HETATM   18  O2  UNL     1      11.939   1.139   4.512  1.00  0.00    -0.295 OA
BRANCH  18  19
HETATM   19  C2  UNL     1      11.988  -0.124   3.941  1.00  0.00     0.256 C 
HETATM   20  C1  UNL     1      12.716  -0.365   2.651  1.00  0.00     0.126 C 
HETATM   21  O1  UNL     1      11.420  -1.098   4.499  1.00  0.00    -0.266 OA
ENDBRANCH  18  19
ENDBRANCH  17  18
ENDBRANCH  16  17
ENDBRANCH  13  16
ENDBRANCH  11  12
BRANCH  11  22
HETATM   22  N11 UNL     1      11.415   6.203   3.081  1.00  0.00    -0.014 N 
HETATM   23  O8  UNL     1      12.259   6.403   2.187  1.00  0.00    -0.515 OA
HETATM   24  O9  UNL     1      10.088   5.957   2.807  1.00  0.00    -0.515 OA
ENDBRANCH  11  22
ENDBRANCH   8  11
BRANCH   9  25
HETATM   25  O5  UNL     1      13.574   9.264   5.194  1.00  0.00    -0.288 OA
ATOM     26  H5  UNL     1      13.744   9.373   6.122  1.00  0.00     0.244 HD
ENDBRANCH   9  25
ENDBRANCH   7   8
ENDBRANCH   6   7
ENDBRANCH   1   6
BRANCH   5  27
HETATM   27  O6  UNL     1      15.700   6.373   9.395  1.00  0.00    -0.355 OA
BRANCH  27  28
HETATM   28  C9  UNL     1      16.468   6.694   8.283  1.00  0.00     0.170 C 
HETATM   29  C10 UNL     1      17.471   7.799   8.627  1.00  0.00     0.122 C 
HETATM   30  C11 UNL     1      18.720   7.012   8.914  1.00  0.00     0.179 C 
HETATM   31  O7  UNL     1      19.687   7.320   9.636  1.00  0.00    -0.291 OA
HETATM   32  C12 UNL     1      18.614   5.763   8.171  1.00  0.00     0.092 A 
HETATM   33  N8  UNL     1      19.560   4.853   7.833  1.00  0.00    -0.349 N 
HETATM   34  C15 UNL     1      17.288   5.571   7.791  1.00  0.00     0.045 A 
HETATM   35  C13 UNL     1      19.247   3.752   7.130  1.00  0.00     0.182 A 
ATOM     36  H8  UNL     1      20.527   5.007   8.119  1.00  0.00     0.167 HD
HETATM   37  N9  UNL     1      17.989   3.558   6.763  1.00  0.00    -0.338 N 
HETATM   38  C14 UNL     1      17.006   4.438   7.075  1.00  0.00     0.111 A 
ATOM     39  H9  UNL     1      17.753   2.721   6.229  1.00  0.00     0.168 HD
BRANCH  38  40
HETATM   40  N10 UNL     1      15.779   4.197   6.683  1.00  0.00    -0.385 N 
ATOM     41 2H10 UNL     1      15.299   3.352   6.993  1.00  0.00     0.157 HD
ATOM     42 1H10 UNL     1      15.311   4.862   6.067  1.00  0.00     0.157 HD
ENDBRANCH  38  40
ENDBRANCH  27  28
ENDBRANCH   5  27
BRANCH   3  43
HETATM   43  N6  UNL     1      14.173   4.040   9.480  1.00  0.00    -0.333 NA
ATOM     44  H62 UNL     1      14.121   3.384   8.700  1.00  0.00     0.173 HD
ATOM     45  H61 UNL     1      14.079   3.476  10.323  1.00  0.00     0.173 HD
ENDBRANCH   3  43
TORSDOF 15
ENDMDL
MODEL 2
REMARK VINA RESULT: -8.116280940      2.596      3.505
REMARK  15 active torsions:
REMARK  status: ('A' for Active; 'I' for Inactive)
REMARK    1  A    between atoms: C2_2  and  O2_4 
REMARK    2  A    between atoms: O2_4  and  C3_5 
REMARK    3  A    between atoms: C3_5  and  O3_6 
REMARK    4  A    between atoms: O3_6  and  C4_7 
REMARK       I    between atoms: C4_7  and  N1_9 
REMARK    5  A    between atoms: N1_9  and  N2_11 
REMARK    6  A    between atoms: N2_11  and  C6_12 
REMARK    7  A    between atoms: N2_11  and  N11_43 
REMARK    8  A    between atoms: C6_12  and  S1_17 
REMARK    9  A    between atoms: N3_13  and  O5_15 
REMARK   10  A    between atoms: S1_17  and  S2_18 
REMARK   11  A    between atoms: S2_18  and  C7_19 
REMARK   12  A    between atoms: N5_21  and  N6_22 
REMARK   13  A    between atoms: C8_26  and  O6_27 
REMARK   14  A    between atoms: O6_27  and  C9_28 
REMARK   15  A    between atoms: C14_38  and  N10_39 
ROOT
HETATM    1  C7  UNL     1      15.773   8.033   9.698  1.00  0.00     0.215 C 
HETATM    2  N4  UNL     1      15.664   9.223  10.490  1.00  0.00    -0.108 NA
HETATM    3  N5  UNL     1      16.275  10.281   9.850  1.00  0.00    -0.054 NA
HETATM    4  N7  UNL     1      16.395   9.902   8.531  1.00  0.00    -0.093 NA
HETATM    5  C8  UNL     1      16.763   8.476   8.604  1.00  0.00     0.264 C 
ENDROOT
BRANCH   1   6
HETATM    6  S2  UNL     1      14.222   7.650   8.835  1.00  0.00    -0.062 SA
BRANCH   6   7
HETATM    7  S1  UNL     1      14.735   6.758   6.971  1.00  0.00    -0.014 SA
BRANCH   7   8
HETATM    8  C6  UNL     1      13.608   7.390   5.744  1.00  0.00     0.220 C 
HETATM    9  N3  UNL     1      13.495   8.622   5.432  1.00  0.00    -0.244 N 
ATOM     10  H3  UNL     1      12.817   8.882   4.715  1.00  0.00     0.196 HD
BRANCH   8  11
HETATM   11  N2  UNL     1      12.773   6.457   5.063  1.00  0.00    -0.104 N 
BRANCH  11  12
HETATM   12  N1  UNL     1      12.350   5.261   5.635  1.00  0.00    -0.212 N 
HETATM   13  C4  UNL     1      13.023   4.065   5.287  1.00  0.00     0.385 C 
HETATM   14  O4  UNL     1      13.985   4.061   4.470  1.00  0.00    -0.236 OA
HETATM   15  C5  UNL     1      11.257   5.205   6.567  1.00  0.00     0.186 C 
BRANCH  13  16
HETATM   16  O3  UNL     1      12.643   2.844   5.839  1.00  0.00    -0.276 OA
BRANCH  16  17
HETATM   17  C3  UNL     1      11.910   1.934   5.026  1.00  0.00     0.360 C 
BRANCH  17  18
HETATM   18  O2  UNL     1      12.734   0.819   4.701  1.00  0.00    -0.295 OA
BRANCH  18  19
HETATM   19  C2  UNL     1      12.165  -0.208   3.963  1.00  0.00     0.256 C 
HETATM   20  C1  UNL     1      12.470  -0.378   2.503  1.00  0.00     0.126 C 
HETATM   21  O1  UNL     1      11.376  -1.023   4.507  1.00  0.00    -0.266 OA
ENDBRANCH  18  19
ENDBRANCH  17  18
ENDBRANCH  16  17
ENDBRANCH  13  16
ENDBRANCH  11  12
BRANCH  11  22
HETATM   22  N11 UNL     1      12.320   6.705   3.743  1.00  0.00    -0.014 N 
HETATM   23  O8  UNL     1      11.135   6.507   3.415  1.00  0.00    -0.515 OA
HETATM   24  O9  UNL     1      13.266   7.175   2.859  1.00  0.00    -0.515 OA
ENDBRANCH  11  22
ENDBRANCH   8  11
BRANCH   9  25
HETATM   25  O5  UNL     1      14.247   9.619   6.018  1.00  0.00    -0.288 OA
ATOM     26  H5  UNL     1      14.209  10.527   5.742  1.00  0.00     0.244 HD
ENDBRANCH   9  25
ENDBRANCH   7   8
ENDBRANCH   6   7
ENDBRANCH   1   6
BRANCH   5  27
HETATM   27  O6  UNL     1      18.062   8.344   9.012  1.00  0.00    -0.355 OA
BRANCH  27  28
HETATM   28  C9  UNL     1      18.334   7.216   9.776  1.00  0.00     0.170 C 
HETATM   29  C10 UNL     1      18.155   5.948   8.937  1.00  0.00     0.122 C 
HETATM   30  C11 UNL     1      19.565   5.653   8.506  1.00  0.00     0.179 C 
HETATM   31  O7  UNL     1      19.961   5.034   7.500  1.00  0.00    -0.291 OA
HETATM   32  C12 UNL     1      20.446   6.239   9.508  1.00  0.00     0.092 A 
HETATM   33  N8  UNL     1      21.756   6.016   9.772  1.00  0.00    -0.349 N 
HETATM   34  C15 UNL     1      19.724   7.159  10.265  1.00  0.00     0.045 A 
HETATM   35  C13 UNL     1      22.389   6.670  10.760  1.00  0.00     0.182 A 
ATOM     36  H8  UNL     1      22.272   5.339   9.210  1.00  0.00     0.167 HD
HETATM   37  N9  UNL     1      21.713   7.548  11.487  1.00  0.00    -0.338 N 
HETATM   38  C14 UNL     1      20.401   7.807  11.264  1.00  0.00     0.111 A 
ATOM     39  H9  UNL     1      22.195   8.045  12.237  1.00  0.00     0.168 HD
BRANCH  38  40
HETATM   40  N10 UNL     1      19.782   8.684  12.016  1.00  0.00    -0.385 N 
ATOM     41 2H10 UNL     1      20.229   9.573  12.240  1.00  0.00     0.157 HD
ATOM     42 1H10 UNL     1      18.851   8.468  12.373  1.00  0.00     0.157 HD
ENDBRANCH  38  40
ENDBRANCH  27  28
ENDBRANCH   5  27
BRANCH   3  43
HETATM   43  N6  UNL     1      17.477  10.670  10.436  1.00  0.00    -0.333 NA
ATOM     44  H62 UNL     1      17.367  11.346  11.193  1.00  0.00     0.173 HD
ATOM     45  H61 UNL     1      18.134  11.092   9.781  1.00  0.00     0.173 HD
ENDBRANCH   3  43
TORSDOF 15
ENDMDL
MODEL 3
REMARK VINA RESULT: -8.069665831      2.797      4.106
REMARK  15 active torsions:
REMARK  status: ('A' for Active; 'I' for Inactive)
REMARK    1  A    between atoms: C2_2  and  O2_4 
REMARK    2  A    between atoms: O2_4  and  C3_5 
REMARK    3  A    between atoms: C3_5  and  O3_6 
REMARK    4  A    between atoms: O3_6  and  C4_7 
REMARK       I    between atoms: C4_7  and  N1_9 
REMARK    5  A    between atoms: N1_9  and  N2_11 
REMARK    6  A    between atoms: N2_11  and  C6_12 
REMARK    7  A    between atoms: N2_11  and  N11_43 
REMARK    8  A    between atoms: C6_12  and  S1_17 
REMARK    9  A    between atoms: N3_13  and  O5_15 
REMARK   10  A    between atoms: S1_17  and  S2_18 
REMARK   11  A    between atoms: S2_18  and  C7_19 
REMARK   12  A    between atoms: N5_21  and  N6_22 
REMARK   13  A    between atoms: C8_26  and  O6_27 
REMARK   14  A    between atoms: O6_27  and  C9_28 
REMARK   15  A    between atoms: C14_38  and  N10_39 
ROOT
HETATM    1  C7  UNL     1      15.754   8.022   9.677  1.00  0.00     0.215 C 
HETATM    2  N4  UNL     1      15.655   9.217  10.464  1.00  0.00    -0.108 NA
HETATM    3  N5  UNL     1      16.266  10.269   9.813  1.00  0.00    -0.054 NA
HETATM    4  N7  UNL     1      16.375   9.883   8.496  1.00  0.00    -0.093 NA
HETATM    5  C8  UNL     1      16.737   8.455   8.573  1.00  0.00     0.264 C 
ENDROOT
BRANCH   1   6
HETATM    6  S2  UNL     1      14.195   7.641   8.827  1.00  0.00    -0.062 SA
BRANCH   6   7
HETATM    7  S1  UNL     1      14.690   6.708   6.979  1.00  0.00    -0.014 SA
BRANCH   7   8
HETATM    8  C6  UNL     1      13.575   7.342   5.742  1.00  0.00     0.220 C 
HETATM    9  N3  UNL     1      13.466   8.574   5.429  1.00  0.00    -0.244 N 
ATOM     10  H3  UNL     1      12.795   8.835   4.706  1.00  0.00     0.196 HD
BRANCH   8  11
HETATM   11  N2  UNL     1      12.746   6.411   5.052  1.00  0.00    -0.104 N 
BRANCH  11  12
HETATM   12  N1  UNL     1      12.316   5.214   5.619  1.00  0.00    -0.212 N 
HETATM   13  C4  UNL     1      12.996   4.019   5.284  1.00  0.00     0.385 C 
HETATM   14  O4  UNL     1      13.972   4.015   4.482  1.00  0.00    -0.236 OA
HETATM   15  C5  UNL     1      11.208   5.158   6.533  1.00  0.00     0.186 C 
BRANCH  13  16
HETATM   16  O3  UNL     1      12.610   2.799   5.832  1.00  0.00    -0.276 OA
BRANCH  16  17
HETATM   17  C3  UNL     1      13.535   2.109   6.666  1.00  0.00     0.360 C 
BRANCH  17  18
HETATM   18  O2  UNL     1      13.652   2.791   7.910  1.00  0.00    -0.295 OA
BRANCH  18  19
HETATM   19  C2  UNL     1      14.916   2.900   8.469  1.00  0.00     0.256 C 
HETATM   20  C1  UNL     1      15.163   2.556   9.909  1.00  0.00     0.126 C 
HETATM   21  O1  UNL     1      15.889   3.294   7.774  1.00  0.00    -0.266 OA
ENDBRANCH  18  19
ENDBRANCH  17  18
ENDBRANCH  16  17
ENDBRANCH  13  16
ENDBRANCH  11  12
BRANCH  11  22
HETATM   22  N11 UNL     1      12.307   6.659   3.727  1.00  0.00    -0.014 N 
HETATM   23  O8  UNL     1      11.125   6.462   3.386  1.00  0.00    -0.515 OA
HETATM   24  O9  UNL     1      13.262   7.129   2.853  1.00  0.00    -0.515 OA
ENDBRANCH  11  22
ENDBRANCH   8  11
BRANCH   9  25
HETATM   25  O5  UNL     1      14.213   9.570   6.024  1.00  0.00    -0.288 OA
ATOM     26  H5  UNL     1      14.047   9.886   6.904  1.00  0.00     0.244 HD
ENDBRANCH   9  25
ENDBRANCH   7   8
ENDBRANCH   6   7
ENDBRANCH   1   6
BRANCH   5  27
HETATM   27  O6  UNL     1      18.039   8.320   8.973  1.00  0.00    -0.355 OA
BRANCH  27  28
HETATM   28  C9  UNL     1      18.311   7.198   9.745  1.00  0.00     0.170 C 
HETATM   29  C10 UNL     1      18.143   5.924   8.913  1.00  0.00     0.122 C 
HETATM   30  C11 UNL     1      19.558   5.633   8.494  1.00  0.00     0.179 C 
HETATM   31  O7  UNL     1      19.963   5.009   7.494  1.00  0.00    -0.291 OA
HETATM   32  C12 UNL     1      20.429   6.229   9.498  1.00  0.00     0.092 A 
HETATM   33  N8  UNL     1      21.738   6.014   9.773  1.00  0.00    -0.349 N 
HETATM   34  C15 UNL     1      19.698   7.151  10.244  1.00  0.00     0.045 A 
HETATM   35  C13 UNL     1      22.361   6.677  10.761  1.00  0.00     0.182 A 
ATOM     36  H8  UNL     1      22.261   5.336   9.218  1.00  0.00     0.167 HD
HETATM   37  N9  UNL     1      21.677   7.557  11.478  1.00  0.00    -0.338 N 
HETATM   38  C14 UNL     1      20.365   7.808  11.244  1.00  0.00     0.111 A 
ATOM     39  H9  UNL     1      22.151   8.060  12.228  1.00  0.00     0.168 HD
BRANCH  38  40
HETATM   40  N10 UNL     1      19.737   8.687  11.986  1.00  0.00    -0.385 N 
ATOM     41 2H10 UNL     1      19.759   9.676  11.739  1.00  0.00     0.157 HD
ATOM     42 1H10 UNL     1      19.226   8.371  12.811  1.00  0.00     0.157 HD
ENDBRANCH  38  40
ENDBRANCH  27  28
ENDBRANCH   5  27
BRANCH   3  43
HETATM   43  N6  UNL     1      17.474  10.656  10.389  1.00  0.00    -0.333 NA
ATOM     44  H62 UNL     1      18.255  10.040  10.161  1.00  0.00     0.173 HD
ATOM     45  H61 UNL     1      17.446  10.701  11.408  1.00  0.00     0.173 HD
ENDBRANCH   3  43
TORSDOF 15
ENDMDL
MODEL 4
REMARK VINA RESULT: -7.982558135      2.894      4.176
REMARK  15 active torsions:
REMARK  status: ('A' for Active; 'I' for Inactive)
REMARK    1  A    between atoms: C2_2  and  O2_4 
REMARK    2  A    between atoms: O2_4  and  C3_5 
REMARK    3  A    between atoms: C3_5  and  O3_6 
REMARK    4  A    between atoms: O3_6  and  C4_7 
REMARK       I    between atoms: C4_7  and  N1_9 
REMARK    5  A    between atoms: N1_9  and  N2_11 
REMARK    6  A    between atoms: N2_11  and  C6_12 
REMARK    7  A    between atoms: N2_11  and  N11_43 
REMARK    8  A    between atoms: C6_12  and  S1_17 
REMARK    9  A    between atoms: N3_13  and  O5_15 
REMARK   10  A    between atoms: S1_17  and  S2_18 
REMARK   11  A    between atoms: S2_18  and  C7_19 
REMARK   12  A    between atoms: N5_21  and  N6_22 
REMARK   13  A    between atoms: C8_26  and  O6_27 
REMARK   14  A    between atoms: O6_27  and  C9_28 
REMARK   15  A    between atoms: C14_38  and  N10_39 
ROOT
HETATM    1  C7  UNL     1      15.574   7.488   8.921  1.00  0.00     0.215 C 
HETATM    2  N4  UNL     1      15.152   8.858   8.972  1.00  0.00    -0.108 NA
HETATM    3  N5  UNL     1      15.810   9.598   8.011  1.00  0.00    -0.054 NA
HETATM    4  N7  UNL     1      16.306   8.683   7.110  1.00  0.00    -0.093 NA
HETATM    5  C8  UNL     1      16.772   7.567   7.954  1.00  0.00     0.264 C 
ENDROOT
BRANCH   1   6
HETATM    6  S2  UNL     1      14.347   6.432   8.100  1.00  0.00    -0.062 SA
BRANCH   6   7
HETATM    7  S1  UNL     1      12.868   7.712   7.258  1.00  0.00    -0.014 SA
BRANCH   7   8
HETATM    8  C6  UNL     1      13.002   7.594   5.485  1.00  0.00     0.220 C 
HETATM    9  N3  UNL     1      13.630   8.426   4.749  1.00  0.00    -0.244 N 
ATOM     10  H3  UNL     1      13.646   8.270   3.741  1.00  0.00     0.196 HD
BRANCH   8  11
HETATM   11  N2  UNL     1      12.363   6.495   4.840  1.00  0.00    -0.104 N 
BRANCH  11  12
HETATM   12  N1  UNL     1      12.066   5.302   5.493  1.00  0.00    -0.212 N 
HETATM   13  C4  UNL     1      12.966   4.217   5.371  1.00  0.00     0.385 C 
HETATM   14  O4  UNL     1      14.021   4.305   4.682  1.00  0.00    -0.236 OA
HETATM   15  C5  UNL     1      10.877   5.142   6.286  1.00  0.00     0.186 C 
BRANCH  13  16
HETATM   16  O3  UNL     1      12.717   3.006   6.012  1.00  0.00    -0.276 OA
BRANCH  16  17
HETATM   17  C3  UNL     1      13.778   2.395   6.739  1.00  0.00     0.360 C 
BRANCH  17  18
HETATM   18  O2  UNL     1      13.755   2.852   8.087  1.00  0.00    -0.295 OA
BRANCH  18  19
HETATM   19  C2  UNL     1      14.879   2.620   8.865  1.00  0.00     0.256 C 
HETATM   20  C1  UNL     1      16.221   3.166   8.474  1.00  0.00     0.126 C 
HETATM   21  O1  UNL     1      14.795   1.942   9.922  1.00  0.00    -0.266 OA
ENDBRANCH  18  19
ENDBRANCH  17  18
ENDBRANCH  16  17
ENDBRANCH  13  16
ENDBRANCH  11  12
BRANCH  11  22
HETATM   22  N11 UNL     1      11.991   6.561   3.474  1.00  0.00    -0.014 N 
HETATM   23  O8  UNL     1      12.845   6.578   2.568  1.00  0.00    -0.515 OA
HETATM   24  O9  UNL     1      10.638   6.604   3.218  1.00  0.00    -0.515 OA
ENDBRANCH  11  22
ENDBRANCH   8  11
BRANCH   9  25
HETATM   25  O5  UNL     1      14.288   9.529   5.254  1.00  0.00    -0.288 OA
ATOM     26  H5  UNL     1      14.899   9.480   5.980  1.00  0.00     0.244 HD
ENDBRANCH   9  25
ENDBRANCH   7   8
ENDBRANCH   6   7
ENDBRANCH   1   6
BRANCH   5  27
HETATM   27  O6  UNL     1      17.925   7.917   8.603  1.00  0.00    -0.355 OA
BRANCH  27  28
HETATM   28  C9  UNL     1      18.109   7.327   9.847  1.00  0.00     0.170 C 
HETATM   29  C10 UNL     1      18.959   6.061   9.718  1.00  0.00     0.122 C 
HETATM   30  C11 UNL     1      20.333   6.566  10.065  1.00  0.00     0.179 C 
HETATM   31  O7  UNL     1      21.441   6.115   9.718  1.00  0.00    -0.291 OA
HETATM   32  C12 UNL     1      20.151   7.732  10.920  1.00  0.00     0.092 A 
HETATM   33  N8  UNL     1      21.021   8.367  11.743  1.00  0.00    -0.349 N 
HETATM   34  C15 UNL     1      18.840   8.184  10.800  1.00  0.00     0.045 A 
HETATM   35  C13 UNL     1      20.644   9.441  12.458  1.00  0.00     0.182 A 
ATOM     36  H8  UNL     1      21.978   8.025  11.820  1.00  0.00     0.167 HD
HETATM   37  N9  UNL     1      19.399   9.881  12.353  1.00  0.00    -0.338 N 
HETATM   38  C14 UNL     1      18.491   9.280  11.544  1.00  0.00     0.111 A 
ATOM     39  H9  UNL     1      19.114  10.696  12.897  1.00  0.00     0.168 HD
BRANCH  38  40
HETATM   40  N10 UNL     1      17.272   9.757  11.482  1.00  0.00    -0.385 N 
ATOM     41 2H10 UNL     1      17.031  10.616  11.976  1.00  0.00     0.157 HD
ATOM     42 1H10 UNL     1      16.568   9.261  10.933  1.00  0.00     0.157 HD
ENDBRANCH  38  40
ENDBRANCH  27  28
ENDBRANCH   5  27
BRANCH   3  43
HETATM   43  N6  UNL     1      16.775  10.457   8.532  1.00  0.00    -0.333 NA
ATOM     44  H62 UNL     1      16.490  11.436   8.547  1.00  0.00     0.173 HD
ATOM     45  H61 UNL     1      17.659  10.434   8.024  1.00  0.00     0.173 HD
ENDBRANCH   3  43
TORSDOF 15
ENDMDL
MODEL 5
REMARK VINA RESULT: -7.967181300      2.725      3.701
REMARK  15 active torsions:
REMARK  status: ('A' for Active; 'I' for Inactive)
REMARK    1  A    between atoms: C2_2  and  O2_4 
REMARK    2  A    between atoms: O2_4  and  C3_5 
REMARK    3  A    between atoms: C3_5  and  O3_6 
REMARK    4  A    between atoms: O3_6  and  C4_7 
REMARK       I    between atoms: C4_7  and  N1_9 
REMARK    5  A    between atoms: N1_9  and  N2_11 
REMARK    6  A    between atoms: N2_11  and  C6_12 
REMARK    7  A    between atoms: N2_11  and  N11_43 
REMARK    8  A    between atoms: C6_12  and  S1_17 
REMARK    9  A    between atoms: N3_13  and  O5_15 
REMARK   10  A    between atoms: S1_17  and  S2_18 
REMARK   11  A    between atoms: S2_18  and  C7_19 
REMARK   12  A    between atoms: N5_21  and  N6_22 
REMARK   13  A    between atoms: C8_26  and  O6_27 
REMARK   14  A    between atoms: O6_27  and  C9_28 
REMARK   15  A    between atoms: C14_38  and  N10_39 
ROOT
HETATM    1  C7  UNL     1      15.668   7.412   8.855  1.00  0.00     0.215 C 
HETATM    2  N4  UNL     1      15.196   8.765   8.931  1.00  0.00    -0.108 NA
HETATM    3  N5  UNL     1      15.853   9.553   8.009  1.00  0.00    -0.054 NA
HETATM    4  N7  UNL     1      16.407   8.681   7.098  1.00  0.00    -0.093 NA
HETATM    5  C8  UNL     1      16.888   7.559   7.926  1.00  0.00     0.264 C 
ENDROOT
BRANCH   1   6
HETATM    6  S2  UNL     1      14.501   6.337   7.972  1.00  0.00    -0.062 SA
BRANCH   6   7
HETATM    7  S1  UNL     1      12.894   7.560   7.299  1.00  0.00    -0.014 SA
BRANCH   7   8
HETATM    8  C6  UNL     1      12.891   7.511   5.518  1.00  0.00     0.220 C 
HETATM    9  N3  UNL     1      13.480   8.361   4.769  1.00  0.00    -0.244 N 
ATOM     10  H3  UNL     1      13.417   8.245   3.758  1.00  0.00     0.196 HD
BRANCH   8  11
HETATM   11  N2  UNL     1      12.180   6.453   4.881  1.00  0.00    -0.104 N 
BRANCH  11  12
HETATM   12  N1  UNL     1      11.858   5.262   5.525  1.00  0.00    -0.212 N 
HETATM   13  C4  UNL     1      12.731   4.156   5.389  1.00  0.00     0.385 C 
HETATM   14  O4  UNL     1      13.783   4.224   4.693  1.00  0.00    -0.236 OA
HETATM   15  C5  UNL     1      10.671   5.124   6.324  1.00  0.00     0.186 C 
BRANCH  13  16
HETATM   16  O3  UNL     1      12.456   2.946   6.021  1.00  0.00    -0.276 OA
BRANCH  16  17
HETATM   17  C3  UNL     1      13.517   2.009   6.176  1.00  0.00     0.360 C 
BRANCH  17  18
HETATM   18  O2  UNL     1      13.077   0.721   5.760  1.00  0.00    -0.295 OA
BRANCH  18  19
HETATM   19  C2  UNL     1      12.806   0.537   4.412  1.00  0.00     0.256 C 
HETATM   20  C1  UNL     1      11.654  -0.312   3.959  1.00  0.00     0.126 C 
HETATM   21  O1  UNL     1      13.525   1.084   3.536  1.00  0.00    -0.266 OA
ENDBRANCH  18  19
ENDBRANCH  17  18
ENDBRANCH  16  17
ENDBRANCH  13  16
ENDBRANCH  11  12
BRANCH  11  22
HETATM   22  N11 UNL     1      11.757   6.560   3.532  1.00  0.00    -0.014 N 
HETATM   23  O8  UNL     1      10.550   6.624   3.233  1.00  0.00    -0.515 OA
HETATM   24  O9  UNL     1      12.759   6.589   2.586  1.00  0.00    -0.515 OA
ENDBRANCH  11  22
ENDBRANCH   8  11
BRANCH   9  25
HETATM   25  O5  UNL     1      14.200   9.428   5.265  1.00  0.00    -0.288 OA
ATOM     26  H5  UNL     1      13.790  10.210   5.616  1.00  0.00     0.244 HD
ENDBRANCH   9  25
ENDBRANCH   7   8
ENDBRANCH   6   7
ENDBRANCH   1   6
BRANCH   5  27
HETATM   27  O6  UNL     1      18.009   7.930   8.616  1.00  0.00    -0.355 OA
BRANCH  27  28
HETATM   28  C9  UNL     1      18.175   7.321   9.853  1.00  0.00     0.170 C 
HETATM   29  C10 UNL     1      19.032   6.059   9.717  1.00  0.00     0.122 C 
HETATM   30  C11 UNL     1      20.398   6.563  10.095  1.00  0.00     0.179 C 
HETATM   31  O7  UNL     1      21.513   6.123   9.759  1.00  0.00    -0.291 OA
HETATM   32  C12 UNL     1      20.198   7.714  10.967  1.00  0.00     0.092 A 
HETATM   33  N8  UNL     1      21.051   8.338  11.815  1.00  0.00    -0.349 N 
HETATM   34  C15 UNL     1      18.886   8.163  10.833  1.00  0.00     0.045 A 
HETATM   35  C13 UNL     1      20.659   9.398  12.542  1.00  0.00     0.182 A 
ATOM     36  H8  UNL     1      22.008   7.998  11.902  1.00  0.00     0.167 HD
HETATM   37  N9  UNL     1      19.413   9.835  12.423  1.00  0.00    -0.338 N 
HETATM   38  C14 UNL     1      18.521   9.245  11.590  1.00  0.00     0.111 A 
ATOM     39  H9  UNL     1      19.117  10.640  12.976  1.00  0.00     0.168 HD
BRANCH  38  40
HETATM   40  N10 UNL     1      17.301   9.718  11.515  1.00  0.00    -0.385 N 
ATOM     41 2H10 UNL     1      17.004  10.469  12.138  1.00  0.00     0.157 HD
ATOM     42 1H10 UNL     1      16.655   9.329  10.828  1.00  0.00     0.157 HD
ENDBRANCH  38  40
ENDBRANCH  27  28
ENDBRANCH   5  27
BRANCH   3  43
HETATM   43  N6  UNL     1      16.773  10.430   8.579  1.00  0.00    -0.333 NA
ATOM     44  H62 UNL     1      17.171  10.097   9.457  1.00  0.00     0.173 HD
ATOM     45  H61 UNL     1      16.386  11.352   8.783  1.00  0.00     0.173 HD
ENDBRANCH   3  43
TORSDOF 15
ENDMDL
