MODEL 1
REMARK VINA RESULT: -9.093343948      0.000      0.000
REMARK  10 active torsions:
REMARK  status: ('A' for Active; 'I' for Inactive)
REMARK    1  A    between atoms: N1_2  and  S1_4 
REMARK    2  A    between atoms: S1_4  and  O3_7 
REMARK    3  A    between atoms: O3_7  and  N2_8 
REMARK    4  A    between atoms: C2_9  and  N3_10 
REMARK    5  A    between atoms: N4_12  and  C3_14 
REMARK    6  A    between atoms: N5_18  and  O4_19 
REMARK    7  A    between atoms: C12_32  and  N9_33 
REMARK    8  A    between atoms: N10_35  and  C13_37 
REMARK    9  A    between atoms: C14_40  and  N12_41 
REMARK   10  A    between atoms: C15_46  and  N14_47 
ROOT
HETATM    1  N2  UNL     1      15.351   7.410   9.559  1.00  0.00     0.011 N 
HETATM    2  C2  UNL     1      15.205   6.325   8.781  1.00  0.00     0.728 C 
HETATM    3  N6  UNL     1      16.210   5.606   8.203  1.00  0.00    -0.184 N 
ATOM      4  H6  UNL     1      15.898   4.881   7.556  1.00  0.00     0.184 HD
HETATM    5  C8  UNL     1      17.540   5.696   8.348  1.00  0.00     0.104 A 
HETATM    6  C9  UNL     1      18.471   4.816   7.836  1.00  0.00     0.091 A 
HETATM    7  N7  UNL     1      18.195   3.643   7.058  1.00  0.00    -0.099 NA
HETATM    8  C10 UNL     1      19.697   5.305   8.233  1.00  0.00     0.117 A 
HETATM    9  N8  UNL     1      19.557   6.431   8.956  1.00  0.00    -0.360 N 
ATOM     10  H8  UNL     1      20.328   6.967   9.354  1.00  0.00     0.165 HD
HETATM   11  C11 UNL     1      18.256   6.749   9.078  1.00  0.00     0.095 A 
HETATM   12  C12 UNL     1      17.725   7.834   9.748  1.00  0.00     0.148 C 
HETATM   13  C17 UNL     1      16.399   8.179   9.883  1.00  0.00     0.320 C 
HETATM   14  O6  UNL     1      16.134   9.323  10.357  1.00  0.00    -0.262 OA
ENDROOT
BRANCH  12  15
HETATM   15  N9  UNL     1      18.660   8.684  10.363  1.00  0.00    -0.292 N 
HETATM   16  N10 UNL     1      18.794   8.772  11.618  1.00  0.00    -0.283 N 
ATOM     17  H10 UNL     1      18.211   8.215  12.242  1.00  0.00     0.188 HD
ATOM     18  H9  UNL     1      19.260   9.257   9.769  1.00  0.00     0.187 HD
BRANCH  16  19
HETATM   19  C13 UNL     1      19.773   9.666  12.146  1.00  0.00     0.157 A 
HETATM   20  N11 UNL     1      19.470  10.967  12.386  1.00  0.00    -0.174 N 
HETATM   21  C14 UNL     1      20.358  11.833  12.879  1.00  0.00     0.679 A 
ATOM     22  H11 UNL     1      18.526  11.296  12.182  1.00  0.00     0.186 HD
HETATM   23  N13 UNL     1      21.598  11.426  13.154  1.00  0.00    -0.176 N 
HETATM   24  C15 UNL     1      21.954  10.147  12.935  1.00  0.00     0.136 A 
ATOM     25  H13 UNL     1      22.277  12.086  13.532  1.00  0.00     0.186 HD
HETATM   26  C16 UNL     1      21.059   9.252  12.433  1.00  0.00     0.101 A 
HETATM   27  S2  UNL     1      21.557   7.554  12.150  1.00  0.00    -0.044 SA
BRANCH  21  28
HETATM   28  N12 UNL     1      20.064  13.079  13.108  1.00  0.00    -0.234 N 
ATOM     29 2H12 UNL     1      19.178  13.432  12.748  1.00  0.00     0.174 HD
ATOM     30 1H12 UNL     1      20.685  13.701  13.627  1.00  0.00     0.174 HD
ENDBRANCH  21  28
BRANCH  24  31
HETATM   31  N14 UNL     1      23.182   9.810  13.224  1.00  0.00    -0.384 N 
ATOM     32 2H14 UNL     1      23.982  10.352  12.899  1.00  0.00     0.157 HD
ATOM     33 1H14 UNL     1      23.315   8.975  13.794  1.00  0.00     0.157 HD
ENDBRANCH  24  31
ENDBRANCH  16  19
ENDBRANCH  12  15
BRANCH   1  34
HETATM   34  O3  UNL     1      14.173   7.827  10.154  1.00  0.00    -0.109 OA
BRANCH  34  35
HETATM   35  S1  UNL     1      13.163   8.900   9.325  1.00  0.00     0.379 S 
HETATM   36  O1  UNL     1      13.560   9.019   7.879  1.00  0.00    -0.174 OA
HETATM   37  O2  UNL     1      11.722   8.417   9.328  1.00  0.00    -0.174 OA
BRANCH  35  38
HETATM   38  N1  UNL     1      13.266  10.449  10.115  1.00  0.00    -0.300 N 
HETATM   39  C1  UNL     1      12.912  10.289  11.517  1.00  0.00     0.161 C 
ATOM     40  H1  UNL     1      13.531  11.326   9.667  1.00  0.00     0.173 HD
ENDBRANCH  35  38
ENDBRANCH  34  35
ENDBRANCH   1  34
BRANCH   2  41
HETATM   41  N3  UNL     1      13.879   5.916   8.561  1.00  0.00    -0.129 N 
HETATM   42  N4  UNL     1      13.381   4.937   9.171  1.00  0.00    -0.281 N 
ATOM     43  H4  UNL     1      12.413   4.693   8.964  1.00  0.00     0.187 HD
ATOM     44  H3  UNL     1      13.307   6.427   7.888  1.00  0.00     0.205 HD
BRANCH  42  45
HETATM   45  C3  UNL     1      14.069   4.147  10.130  1.00  0.00     0.118 A 
HETATM   46  C4  UNL     1      14.244   4.657  11.391  1.00  0.00     0.038 A 
HETATM   47  C5  UNL     1      14.907   3.912  12.335  1.00  0.00     0.022 A 
HETATM   48  C6  UNL     1      15.391   2.661  12.018  1.00  0.00     0.127 A 
HETATM   49  N5  UNL     1      15.223   2.157  10.792  1.00  0.00    -0.197 N 
HETATM   50  C7  UNL     1      14.569   2.892   9.855  1.00  0.00     0.299 A 
HETATM   51  O5  UNL     1      14.401   2.438   8.699  1.00  0.00    -0.263 OA
BRANCH  49  52
HETATM   52  O4  UNL     1      15.699   0.909  10.454  1.00  0.00    -0.280 OA
ATOM     53  H4  UNL     1      16.624   0.698  10.507  1.00  0.00     0.245 HD
ENDBRANCH  49  52
ENDBRANCH  42  45
ENDBRANCH   2  41
TORSDOF 10
ENDMDL
MODEL 2
REMARK VINA RESULT: -8.829578926      2.874      3.746
REMARK  10 active torsions:
REMARK  status: ('A' for Active; 'I' for Inactive)
REMARK    1  A    between atoms: N1_2  and  S1_4 
REMARK    2  A    between atoms: S1_4  and  O3_7 
REMARK    3  A    between atoms: O3_7  and  N2_8 
REMARK    4  A    between atoms: C2_9  and  N3_10 
REMARK    5  A    between atoms: N4_12  and  C3_14 
REMARK    6  A    between atoms: N5_18  and  O4_19 
REMARK    7  A    between atoms: C12_32  and  N9_33 
REMARK    8  A    between atoms: N10_35  and  C13_37 
REMARK    9  A    between atoms: C14_40  and  N12_41 
REMARK   10  A    between atoms: C15_46  and  N14_47 
ROOT
HETATM    1  N2  UNL     1      16.057   8.645   7.854  1.00  0.00     0.011 N 
HETATM    2  C2  UNL     1      15.070   7.962   7.253  1.00  0.00     0.728 C 
HETATM    3  N6  UNL     1      15.060   6.624   6.986  1.00  0.00    -0.184 N 
ATOM      4  H6  UNL     1      14.271   6.306   6.423  1.00  0.00     0.184 HD
HETATM    5  C8  UNL     1      15.920   5.658   7.345  1.00  0.00     0.104 A 
HETATM    6  C9  UNL     1      15.739   4.303   7.157  1.00  0.00     0.091 A 
HETATM    7  N7  UNL     1      14.605   3.673   6.546  1.00  0.00    -0.099 NA
HETATM    8  C10 UNL     1      16.867   3.707   7.676  1.00  0.00     0.117 A 
HETATM    9  N8  UNL     1      17.718   4.626   8.167  1.00  0.00    -0.360 N 
ATOM     10  H8  UNL     1      18.617   4.415   8.600  1.00  0.00     0.165 HD
HETATM   11  C11 UNL     1      17.214   5.862   8.005  1.00  0.00     0.095 A 
HETATM   12  C12 UNL     1      17.801   7.054   8.384  1.00  0.00     0.148 C 
HETATM   13  C17 UNL     1      17.305   8.329   8.226  1.00  0.00     0.320 C 
HETATM   14  O6  UNL     1      18.089   9.298   8.451  1.00  0.00    -0.262 OA
ENDROOT
BRANCH  12  15
HETATM   15  N9  UNL     1      19.057   6.943   9.005  1.00  0.00    -0.292 N 
HETATM   16  N10 UNL     1      19.307   7.419  10.150  1.00  0.00    -0.283 N 
ATOM     17  H10 UNL     1      18.586   7.913  10.675  1.00  0.00     0.188 HD
ATOM     18  H9  UNL     1      19.802   6.454   8.509  1.00  0.00     0.187 HD
BRANCH  16  19
HETATM   19  C13 UNL     1      20.615   7.253  10.695  1.00  0.00     0.157 A 
HETATM   20  N11 UNL     1      21.547   6.505  10.051  1.00  0.00    -0.174 N 
HETATM   21  C14 UNL     1      22.781   6.326  10.528  1.00  0.00     0.679 A 
ATOM     22  H11 UNL     1      21.294   6.062   9.167  1.00  0.00     0.186 HD
HETATM   23  N13 UNL     1      23.134   6.895  11.681  1.00  0.00    -0.176 N 
HETATM   24  C15 UNL     1      22.250   7.647  12.363  1.00  0.00     0.136 A 
ATOM     25  H13 UNL     1      24.076   6.760  12.047  1.00  0.00     0.186 HD
HETATM   26  C16 UNL     1      20.989   7.838  11.889  1.00  0.00     0.101 A 
HETATM   27  S2  UNL     1      19.829   8.843  12.815  1.00  0.00    -0.044 SA
BRANCH  21  28
HETATM   28  N12 UNL     1      23.671   5.610   9.908  1.00  0.00    -0.234 N 
ATOM     29 2H12 UNL     1      23.463   4.623   9.752  1.00  0.00     0.174 HD
ATOM     30 1H12 UNL     1      24.556   6.000   9.581  1.00  0.00     0.174 HD
ENDBRANCH  21  28
BRANCH  24  31
HETATM   31  N14 UNL     1      22.656   8.176  13.485  1.00  0.00    -0.384 N 
ATOM     32 2H14 UNL     1      23.643   8.219  13.737  1.00  0.00     0.157 HD
ATOM     33 1H14 UNL     1      21.941   8.550  14.110  1.00  0.00     0.157 HD
ENDBRANCH  24  31
ENDBRANCH  16  19
ENDBRANCH  12  15
BRANCH   1  34
HETATM   34  O3  UNL     1      15.720   9.953   8.157  1.00  0.00    -0.109 OA
BRANCH  34  35
HETATM   35  S1  UNL     1      15.002  10.298   9.647  1.00  0.00     0.379 S 
HETATM   36  O1  UNL     1      15.679  11.457  10.326  1.00  0.00    -0.174 OA
HETATM   37  O2  UNL     1      13.545  10.699   9.480  1.00  0.00    -0.174 OA
BRANCH  35  38
HETATM   38  N1  UNL     1      15.108   8.867  10.635  1.00  0.00    -0.300 N 
HETATM   39  C1  UNL     1      16.125   9.071  11.655  1.00  0.00     0.161 C 
ATOM     40  H1  UNL     1      14.547   8.023  10.517  1.00  0.00     0.173 HD
ENDBRANCH  35  38
ENDBRANCH  34  35
ENDBRANCH   1  34
BRANCH   2  41
HETATM   41  N3  UNL     1      13.953   8.725   6.874  1.00  0.00    -0.129 N 
HETATM   42  N4  UNL     1      12.788   8.406   7.221  1.00  0.00    -0.281 N 
ATOM     43  H4  UNL     1      12.022   9.004   6.911  1.00  0.00     0.187 HD
ATOM     44  H3  UNL     1      14.091   9.559   6.303  1.00  0.00     0.205 HD
BRANCH  42  45
HETATM   45  C3  UNL     1      12.462   7.273   8.013  1.00  0.00     0.118 A 
HETATM   46  C4  UNL     1      12.420   7.422   9.376  1.00  0.00     0.038 A 
HETATM   47  C5  UNL     1      12.107   6.341  10.163  1.00  0.00     0.022 A 
HETATM   48  C6  UNL     1      11.836   5.119   9.589  1.00  0.00     0.127 A 
HETATM   49  N5  UNL     1      11.874   4.967   8.262  1.00  0.00    -0.197 N 
HETATM   50  C7  UNL     1      12.184   6.034   7.480  1.00  0.00     0.299 A 
HETATM   51  O5  UNL     1      12.225   5.913   6.233  1.00  0.00    -0.263 OA
BRANCH  49  52
HETATM   52  O4  UNL     1      11.607   3.753   7.666  1.00  0.00    -0.280 OA
ATOM     53  H4  UNL     1      11.430   3.684   6.736  1.00  0.00     0.245 HD
ENDBRANCH  49  52
ENDBRANCH  42  45
ENDBRANCH   2  41
TORSDOF 10
ENDMDL
MODEL 3
REMARK VINA RESULT: -8.682082368      5.248      7.999
REMARK  10 active torsions:
REMARK  status: ('A' for Active; 'I' for Inactive)
REMARK    1  A    between atoms: N1_2  and  S1_4 
REMARK    2  A    between atoms: S1_4  and  O3_7 
REMARK    3  A    between atoms: O3_7  and  N2_8 
REMARK    4  A    between atoms: C2_9  and  N3_10 
REMARK    5  A    between atoms: N4_12  and  C3_14 
REMARK    6  A    between atoms: N5_18  and  O4_19 
REMARK    7  A    between atoms: C12_32  and  N9_33 
REMARK    8  A    between atoms: N10_35  and  C13_37 
REMARK    9  A    between atoms: C14_40  and  N12_41 
REMARK   10  A    between atoms: C15_46  and  N14_47 
ROOT
HETATM    1  N2  UNL     1      10.849   4.772   6.408  1.00  0.00     0.011 N 
HETATM    2  C2  UNL     1      10.076   3.878   5.772  1.00  0.00     0.728 C 
HETATM    3  N6  UNL     1      10.483   2.684   5.251  1.00  0.00    -0.184 N 
ATOM      4  H6  UNL     1       9.774   2.192   4.707  1.00  0.00     0.184 HD
HETATM    5  C8  UNL     1      11.663   2.053   5.339  1.00  0.00     0.104 A 
HETATM    6  C9  UNL     1      11.929   0.770   4.905  1.00  0.00     0.091 A 
HETATM    7  N7  UNL     1      11.000  -0.127   4.283  1.00  0.00    -0.099 NA
HETATM    8  C10 UNL     1      13.257   0.551   5.199  1.00  0.00     0.117 A 
HETATM    9  N8  UNL     1      13.808   1.629   5.786  1.00  0.00    -0.360 N 
ATOM     10  H8  UNL     1      14.779   1.695   6.090  1.00  0.00     0.165 HD
HETATM   11  C11 UNL     1      12.894   2.609   5.912  1.00  0.00     0.095 A 
HETATM   12  C12 UNL     1      13.090   3.860   6.465  1.00  0.00     0.148 C 
HETATM   13  C17 UNL     1      12.171   4.877   6.603  1.00  0.00     0.320 C 
HETATM   14  O6  UNL     1      12.602   6.017   6.944  1.00  0.00    -0.262 OA
ENDROOT
BRANCH  12  15
HETATM   15  N9  UNL     1      14.386   4.117   6.942  1.00  0.00    -0.292 N 
HETATM   16  N10 UNL     1      15.154   4.981   6.426  1.00  0.00    -0.283 N 
ATOM     17  H10 UNL     1      14.849   5.533   5.625  1.00  0.00     0.188 HD
ATOM     18  H9  UNL     1      14.724   3.583   7.742  1.00  0.00     0.187 HD
BRANCH  16  19
HETATM   19  C13 UNL     1      16.453   5.168   6.984  1.00  0.00     0.157 A 
HETATM   20  N11 UNL     1      17.424   4.235   6.814  1.00  0.00    -0.174 N 
HETATM   21  C14 UNL     1      18.652   4.375   7.321  1.00  0.00     0.679 A 
ATOM     22  H11 UNL     1      17.208   3.395   6.279  1.00  0.00     0.186 HD
HETATM   23  N13 UNL     1      18.959   5.465   8.024  1.00  0.00    -0.176 N 
HETATM   24  C15 UNL     1      18.034   6.423   8.225  1.00  0.00     0.136 A 
ATOM     25  H13 UNL     1      19.896   5.573   8.411  1.00  0.00     0.186 HD
HETATM   26  C16 UNL     1      16.779   6.295   7.715  1.00  0.00     0.101 A 
HETATM   27  S2  UNL     1      15.565   7.583   7.995  1.00  0.00    -0.044 SA
BRANCH  21  28
HETATM   28  N12 UNL     1      19.580   3.479   7.156  1.00  0.00    -0.234 N 
ATOM     29 2H12 UNL     1      19.290   2.505   7.067  1.00  0.00     0.174 HD
ATOM     30 1H12 UNL     1      20.571   3.719   7.116  1.00  0.00     0.174 HD
ENDBRANCH  21  28
BRANCH  24  31
HETATM   31  N14 UNL     1      18.396   7.465   8.922  1.00  0.00    -0.384 N 
ATOM     32 2H14 UNL     1      19.026   8.174   8.548  1.00  0.00     0.157 HD
ATOM     33 1H14 UNL     1      18.021   7.548   9.867  1.00  0.00     0.157 HD
ENDBRANCH  24  31
ENDBRANCH  16  19
ENDBRANCH  12  15
BRANCH   1  34
HETATM   34  O3  UNL     1      10.136   5.807   6.988  1.00  0.00    -0.109 OA
BRANCH  34  35
HETATM   35  S1  UNL     1       9.652   5.674   8.603  1.00  0.00     0.379 S 
HETATM   36  O1  UNL     1       9.241   7.008   9.162  1.00  0.00    -0.174 OA
HETATM   37  O2  UNL     1       8.441   4.766   8.744  1.00  0.00    -0.174 OA
BRANCH  35  38
HETATM   38  N1  UNL     1      10.988   5.018   9.508  1.00  0.00    -0.300 N 
HETATM   39  C1  UNL     1      11.539   6.060  10.360  1.00  0.00     0.161 C 
ATOM     40  H1  UNL     1      11.328   4.058   9.451  1.00  0.00     0.173 HD
ENDBRANCH  35  38
ENDBRANCH  34  35
ENDBRANCH   1  34
BRANCH   2  41
HETATM   41  N3  UNL     1       8.722   4.233   5.647  1.00  0.00    -0.129 N 
HETATM   42  N4  UNL     1       8.216   4.517   4.532  1.00  0.00    -0.281 N 
ATOM     43  H4  UNL     1       7.227   4.767   4.512  1.00  0.00     0.187 HD
ATOM     44  H3  UNL     1       8.136   4.261   6.481  1.00  0.00     0.205 HD
BRANCH  42  45
HETATM   45  C3  UNL     1       8.921   4.516   3.299  1.00  0.00     0.118 A 
HETATM   46  C4  UNL     1       8.680   3.498   2.412  1.00  0.00     0.038 A 
HETATM   47  C5  UNL     1       9.350   3.474   1.214  1.00  0.00     0.022 A 
HETATM   48  C6  UNL     1      10.256   4.465   0.905  1.00  0.00     0.127 A 
HETATM   49  N5  UNL     1      10.495   5.461   1.764  1.00  0.00    -0.197 N 
HETATM   50  C7  UNL     1       9.835   5.487   2.951  1.00  0.00     0.299 A 
HETATM   51  O5  UNL     1      10.044   6.411   3.771  1.00  0.00    -0.263 OA
BRANCH  49  52
HETATM   52  O4  UNL     1      11.397   6.463   1.475  1.00  0.00    -0.280 OA
ATOM     53  H4  UNL     1      11.110   7.328   1.207  1.00  0.00     0.245 HD
ENDBRANCH  49  52
ENDBRANCH  42  45
ENDBRANCH   2  41
TORSDOF 10
ENDMDL
MODEL 4
REMARK VINA RESULT: -8.665012822      0.989      1.544
REMARK  10 active torsions:
REMARK  status: ('A' for Active; 'I' for Inactive)
REMARK    1  A    between atoms: N1_2  and  S1_4 
REMARK    2  A    between atoms: S1_4  and  O3_7 
REMARK    3  A    between atoms: O3_7  and  N2_8 
REMARK    4  A    between atoms: C2_9  and  N3_10 
REMARK    5  A    between atoms: N4_12  and  C3_14 
REMARK    6  A    between atoms: N5_18  and  O4_19 
REMARK    7  A    between atoms: C12_32  and  N9_33 
REMARK    8  A    between atoms: N10_35  and  C13_37 
REMARK    9  A    between atoms: C14_40  and  N12_41 
REMARK   10  A    between atoms: C15_46  and  N14_47 
ROOT
HETATM    1  N2  UNL     1      15.347   7.411   9.667  1.00  0.00     0.011 N 
HETATM    2  C2  UNL     1      15.186   6.339   8.874  1.00  0.00     0.728 C 
HETATM    3  N6  UNL     1      16.180   5.627   8.269  1.00  0.00    -0.184 N 
ATOM      4  H6  UNL     1      15.857   4.913   7.616  1.00  0.00     0.184 HD
HETATM    5  C8  UNL     1      17.513   5.711   8.395  1.00  0.00     0.104 A 
HETATM    6  C9  UNL     1      18.434   4.837   7.855  1.00  0.00     0.091 A 
HETATM    7  N7  UNL     1      18.143   3.678   7.062  1.00  0.00    -0.099 NA
HETATM    8  C10 UNL     1      19.666   5.316   8.241  1.00  0.00     0.117 A 
HETATM    9  N8  UNL     1      19.541   6.431   8.984  1.00  0.00    -0.360 N 
ATOM     10  H8  UNL     1      20.319   6.959   9.379  1.00  0.00     0.165 HD
HETATM   11  C11 UNL     1      18.242   6.750   9.131  1.00  0.00     0.095 A 
HETATM   12  C12 UNL     1      17.725   7.826   9.826  1.00  0.00     0.148 C 
HETATM   13  C17 UNL     1      16.402   8.172   9.987  1.00  0.00     0.320 C 
HETATM   14  O6  UNL     1      16.147   9.309  10.484  1.00  0.00    -0.262 OA
ENDROOT
BRANCH  12  15
HETATM   15  N9  UNL     1      18.671   8.663  10.441  1.00  0.00    -0.292 N 
HETATM   16  N10 UNL     1      18.806   8.751  11.696  1.00  0.00    -0.283 N 
ATOM     17  H10 UNL     1      18.216   8.201  12.320  1.00  0.00     0.188 HD
ATOM     18  H9  UNL     1      19.279   9.228   9.847  1.00  0.00     0.187 HD
BRANCH  16  19
HETATM   19  C13 UNL     1      19.797   9.631  12.223  1.00  0.00     0.157 A 
HETATM   20  N11 UNL     1      21.075   9.211  12.405  1.00  0.00    -0.174 N 
HETATM   21  C14 UNL     1      22.030  10.004  12.895  1.00  0.00     0.679 A 
ATOM     22  H11 UNL     1      21.315   8.251  12.158  1.00  0.00     0.186 HD
HETATM   23  N13 UNL     1      21.741  11.264  13.225  1.00  0.00    -0.176 N 
HETATM   24  C15 UNL     1      20.490  11.734  13.066  1.00  0.00     0.136 A 
ATOM     25  H13 UNL     1      22.470  11.871  13.599  1.00  0.00     0.186 HD
HETATM   26  C16 UNL     1      19.506  10.937  12.568  1.00  0.00     0.101 A 
HETATM   27  S2  UNL     1      17.848  11.585  12.366  1.00  0.00    -0.044 SA
BRANCH  21  28
HETATM   28  N12 UNL     1      23.254   9.599  13.068  1.00  0.00    -0.234 N 
ATOM     29 2H12 UNL     1      23.395   8.666  13.456  1.00  0.00     0.174 HD
ATOM     30 1H12 UNL     1      24.060  10.177  12.831  1.00  0.00     0.174 HD
ENDBRANCH  21  28
BRANCH  24  31
HETATM   31  N14 UNL     1      20.270  12.974  13.408  1.00  0.00    -0.384 N 
ATOM     32 2H14 UNL     1      20.851  13.740  13.069  1.00  0.00     0.157 HD
ATOM     33 1H14 UNL     1      19.486  13.153  14.036  1.00  0.00     0.157 HD
ENDBRANCH  24  31
ENDBRANCH  16  19
ENDBRANCH  12  15
BRANCH   1  34
HETATM   34  O3  UNL     1      14.179   7.821  10.286  1.00  0.00    -0.109 OA
BRANCH  34  35
HETATM   35  S1  UNL     1      13.152   8.897   9.483  1.00  0.00     0.379 S 
HETATM   36  O1  UNL     1      13.549   9.060   8.042  1.00  0.00    -0.174 OA
HETATM   37  O2  UNL     1      11.719   8.390   9.471  1.00  0.00    -0.174 OA
BRANCH  35  38
HETATM   38  N1  UNL     1      13.227  10.427  10.313  1.00  0.00    -0.300 N 
HETATM   39  C1  UNL     1      12.821  10.235  11.696  1.00  0.00     0.161 C 
ATOM     40  H1  UNL     1      13.510  11.314   9.896  1.00  0.00     0.173 HD
ENDBRANCH  35  38
ENDBRANCH  34  35
ENDBRANCH   1  34
BRANCH   2  41
HETATM   41  N3  UNL     1      13.856   5.937   8.667  1.00  0.00    -0.129 N 
HETATM   42  N4  UNL     1      13.363   4.953   9.273  1.00  0.00    -0.281 N 
ATOM     43  H4  UNL     1      12.391   4.715   9.076  1.00  0.00     0.187 HD
ATOM     44  H3  UNL     1      13.276   6.457   8.008  1.00  0.00     0.205 HD
BRANCH  42  45
HETATM   45  C3  UNL     1      14.062   4.149  10.214  1.00  0.00     0.118 A 
HETATM   46  C4  UNL     1      14.243   4.640  11.482  1.00  0.00     0.038 A 
HETATM   47  C5  UNL     1      14.916   3.881  12.408  1.00  0.00     0.022 A 
HETATM   48  C6  UNL     1      15.403   2.638  12.067  1.00  0.00     0.127 A 
HETATM   49  N5  UNL     1      15.228   2.154  10.834  1.00  0.00    -0.197 N 
HETATM   50  C7  UNL     1      14.564   2.902   9.915  1.00  0.00     0.299 A 
HETATM   51  O5  UNL     1      14.389   2.466   8.752  1.00  0.00    -0.263 OA
BRANCH  49  52
HETATM   52  O4  UNL     1      15.706   0.913  10.472  1.00  0.00    -0.280 OA
ATOM     53  H4  UNL     1      16.515   0.567  10.832  1.00  0.00     0.245 HD
ENDBRANCH  49  52
ENDBRANCH  42  45
ENDBRANCH   2  41
TORSDOF 10
ENDMDL
MODEL 5
REMARK VINA RESULT: -8.397297240      3.837      8.338
REMARK  10 active torsions:
REMARK  status: ('A' for Active; 'I' for Inactive)
REMARK    1  A    between atoms: N1_2  and  S1_4 
REMARK    2  A    between atoms: S1_4  and  O3_7 
REMARK    3  A    between atoms: O3_7  and  N2_8 
REMARK    4  A    between atoms: C2_9  and  N3_10 
REMARK    5  A    between atoms: N4_12  and  C3_14 
REMARK    6  A    between atoms: N5_18  and  O4_19 
REMARK    7  A    between atoms: C12_32  and  N9_33 
REMARK    8  A    between atoms: N10_35  and  C13_37 
REMARK    9  A    between atoms: C14_40  and  N12_41 
REMARK   10  A    between atoms: C15_46  and  N14_47 
ROOT
HETATM    1  N2  UNL     1      19.211   8.742  13.108  1.00  0.00     0.011 N 
HETATM    2  C2  UNL     1      18.572   9.704  13.792  1.00  0.00     0.728 C 
HETATM    3  N6  UNL     1      17.280  10.103  13.609  1.00  0.00    -0.184 N 
ATOM      4  H6  UNL     1      17.006  10.924  14.149  1.00  0.00     0.184 HD
HETATM    5  C8  UNL     1      16.312   9.590  12.835  1.00  0.00     0.104 A 
HETATM    6  C9  UNL     1      14.986   9.974  12.837  1.00  0.00     0.091 A 
HETATM    7  N7  UNL     1      14.395  10.987  13.663  1.00  0.00    -0.099 NA
HETATM    8  C10 UNL     1      14.373   9.182  11.891  1.00  0.00     0.117 A 
HETATM    9  N8  UNL     1      15.255   8.343  11.318  1.00  0.00    -0.360 N 
ATOM     10  H8  UNL     1      15.026   7.665  10.591  1.00  0.00     0.165 HD
HETATM   11  C11 UNL     1      16.480   8.525  11.841  1.00  0.00     0.095 A 
HETATM   12  C12 UNL     1      17.636   7.848  11.503  1.00  0.00     0.148 C 
HETATM   13  C17 UNL     1      18.900   8.019  12.023  1.00  0.00     0.320 C 
HETATM   14  O6  UNL     1      19.862   7.446  11.432  1.00  0.00    -0.262 OA
ENDROOT
BRANCH  12  15
HETATM   15  N9  UNL     1      17.496   6.866  10.507  1.00  0.00    -0.292 N 
HETATM   16  N10 UNL     1      17.602   7.115   9.271  1.00  0.00    -0.283 N 
ATOM     17  H10 UNL     1      17.797   8.061   8.947  1.00  0.00     0.188 HD
ATOM     18  H9  UNL     1      17.300   5.907  10.795  1.00  0.00     0.187 HD
BRANCH  16  19
HETATM   19  C13 UNL     1      17.443   6.048   8.337  1.00  0.00     0.157 A 
HETATM   20  N11 UNL     1      18.464   5.192   8.079  1.00  0.00    -0.174 N 
HETATM   21  C14 UNL     1      18.354   4.182   7.213  1.00  0.00     0.679 A 
ATOM     22  H11 UNL     1      19.350   5.326   8.565  1.00  0.00     0.186 HD
HETATM   23  N13 UNL     1      17.205   3.986   6.565  1.00  0.00    -0.176 N 
HETATM   24  C15 UNL     1      16.159   4.805   6.782  1.00  0.00     0.136 A 
ATOM     25  H13 UNL     1      17.119   3.215   5.904  1.00  0.00     0.186 HD
HETATM   26  C16 UNL     1      16.256   5.838   7.662  1.00  0.00     0.101 A 
HETATM   27  S2  UNL     1      14.849   6.915   7.935  1.00  0.00    -0.044 SA
BRANCH  21  28
HETATM   28  N12 UNL     1      19.334   3.363   6.967  1.00  0.00    -0.234 N 
ATOM     29 2H12 UNL     1      20.065   3.271   7.673  1.00  0.00     0.174 HD
ATOM     30 1H12 UNL     1      19.392   2.822   6.104  1.00  0.00     0.174 HD
ENDBRANCH  21  28
BRANCH  24  31
HETATM   31  N14 UNL     1      15.062   4.562   6.118  1.00  0.00    -0.384 N 
ATOM     32 2H14 UNL     1      15.026   4.604   5.100  1.00  0.00     0.157 HD
ATOM     33 1H14 UNL     1      14.230   4.326   6.659  1.00  0.00     0.157 HD
ENDBRANCH  24  31
ENDBRANCH  16  19
ENDBRANCH  12  15
BRANCH   1  34
HETATM   34  O3  UNL     1      20.455   8.426  13.626  1.00  0.00    -0.109 OA
BRANCH  34  35
HETATM   35  S1  UNL     1      21.830   9.175  12.990  1.00  0.00     0.379 S 
HETATM   36  O1  UNL     1      21.484  10.476  12.322  1.00  0.00    -0.174 OA
HETATM   37  O2  UNL     1      22.830   9.514  14.083  1.00  0.00    -0.174 OA
BRANCH  35  38
HETATM   38  N1  UNL     1      22.556   8.077  11.849  1.00  0.00    -0.300 N 
HETATM   39  C1  UNL     1      23.306   7.066  12.577  1.00  0.00     0.161 C 
ATOM     40  H1  UNL     1      22.468   8.134  10.834  1.00  0.00     0.173 HD
ENDBRANCH  35  38
ENDBRANCH  34  35
ENDBRANCH   1  34
BRANCH   2  41
HETATM   41  N3  UNL     1      19.333  10.342  14.786  1.00  0.00    -0.129 N 
HETATM   42  N4  UNL     1      19.254  10.005  15.995  1.00  0.00    -0.281 N 
ATOM     43  H4  UNL     1      19.833  10.509  16.665  1.00  0.00     0.187 HD
ATOM     44  H3  UNL     1      19.965  11.097  14.521  1.00  0.00     0.205 HD
BRANCH  42  45
HETATM   45  C3  UNL     1      18.415   8.972  16.493  1.00  0.00     0.118 A 
HETATM   46  C4  UNL     1      18.943   7.713  16.628  1.00  0.00     0.038 A 
HETATM   47  C5  UNL     1      18.152   6.698  17.107  1.00  0.00     0.022 A 
HETATM   48  C6  UNL     1      16.840   6.942  17.452  1.00  0.00     0.127 A 
HETATM   49  N5  UNL     1      16.320   8.167  17.324  1.00  0.00    -0.197 N 
HETATM   50  C7  UNL     1      17.099   9.173  16.849  1.00  0.00     0.299 A 
HETATM   51  O5  UNL     1      16.631  10.330  16.722  1.00  0.00    -0.263 OA
BRANCH  49  52
HETATM   52  O4  UNL     1      15.011   8.434  17.662  1.00  0.00    -0.280 OA
ATOM     53  H4  UNL     1      14.720   9.315  17.867  1.00  0.00     0.245 HD
ENDBRANCH  49  52
ENDBRANCH  42  45
ENDBRANCH   2  41
TORSDOF 10
ENDMDL
