MODEL 1
REMARK VINA RESULT: -7.206265406      0.000      0.000
REMARK  9 active torsions:
REMARK  status: ('A' for Active; 'I' for Inactive)
REMARK    1  A    between atoms: C2_2  and  S1_3 
REMARK    2  A    between atoms: S1_3  and  C3_6 
REMARK    3  A    between atoms: C6_9  and  S2_10 
REMARK    4  A    between atoms: S2_10  and  N1_13 
REMARK    5  A    between atoms: N1_13  and  C7_15 
REMARK    6  A    between atoms: C10_22  and  N4_23 
REMARK    7  A    between atoms: N4_23  and  C11_25 
REMARK    8  A    between atoms: C15_31  and  C16_32 
REMARK    9  A    between atoms: C16_32  and  O5_33 
ROOT
HETATM    1  C7  UNL     1      83.510  61.549  14.378  1.00  0.00     0.160 A 
HETATM    2  N2  UNL     1      83.765  62.491  15.294  1.00  0.00    -0.347 N 
ATOM      3  H2  UNL     1      83.329  63.411  15.237  1.00  0.00     0.167 HD
HETATM    4  C8  UNL     1      84.620  62.187  16.298  1.00  0.00     0.107 A 
HETATM    5  C9  UNL     1      85.237  60.965  16.427  1.00  0.00     0.107 A 
HETATM    6  N3  UNL     1      84.943  60.051  15.474  1.00  0.00    -0.348 N 
ATOM      7  H3  UNL     1      85.382  59.132  15.537  1.00  0.00     0.167 HD
HETATM    8  C10 UNL     1      84.111  60.281  14.456  1.00  0.00     0.151 A 
ENDROOT
BRANCH   1   9
HETATM    9  N1  UNL     1      82.732  61.720  13.398  1.00  0.00    -0.263 N 
ATOM     10  H1  UNL     1      83.181  61.916  12.503  1.00  0.00     0.180 HD
BRANCH   9  11
HETATM   11  S2  UNL     1      81.045  61.667  13.377  1.00  0.00     0.264 S 
HETATM   12  O3  UNL     1      80.416  61.838  14.747  1.00  0.00    -0.200 OA
HETATM   13  O4  UNL     1      80.672  60.268  12.853  1.00  0.00    -0.200 OA
BRANCH  11  14
HETATM   14  C6  UNL     1      80.297  62.829  12.311  1.00  0.00     0.080 A 
HETATM   15  C5  UNL     1      80.069  64.100  12.755  1.00  0.00     0.027 A 
HETATM   16  C4  UNL     1      79.475  65.073  11.945  1.00  0.00     0.025 A 
HETATM   17  C3  UNL     1      79.108  64.752  10.669  1.00  0.00     0.059 A 
HETATM   18  C22 UNL     1      79.333  63.478  10.218  1.00  0.00     0.025 A 
HETATM   19  C21 UNL     1      79.918  62.526  11.018  1.00  0.00     0.027 A 
BRANCH  17  20
HETATM   20  S1  UNL     1      78.366  65.986   9.676  1.00  0.00     0.175 S 
HETATM   21  O1  UNL     1      76.949  65.571   9.388  1.00  0.00    -0.223 OA
HETATM   22  O2  UNL     1      79.124  66.206   8.395  1.00  0.00    -0.223 OA
BRANCH  20  23
HETATM   23  C2  UNL     1      78.316  67.546  10.534  1.00  0.00     0.141 C 
HETATM   24  C1  UNL     1      79.562  68.328  10.265  1.00  0.00     0.021 C 
ENDBRANCH  20  23
ENDBRANCH  17  20
ENDBRANCH  11  14
ENDBRANCH   9  11
ENDBRANCH   1   9
BRANCH   8  25
HETATM   25  N4  UNL     1      83.850  59.386  13.560  1.00  0.00    -0.338 N 
ATOM     26  H4  UNL     1      82.943  58.920  13.529  1.00  0.00     0.167 HD
BRANCH  25  27
HETATM   27  C11 UNL     1      84.868  59.074  12.620  1.00  0.00     0.056 A 
HETATM   28  C12 UNL     1      84.948  57.889  12.036  1.00  0.00     0.032 A 
HETATM   29  C13 UNL     1      83.903  56.881  12.419  1.00  0.00     0.070 C 
HETATM   30  N5  UNL     1      85.962  57.565  11.094  1.00  0.00    -0.367 N 
HETATM   31  C14 UNL     1      86.878  58.414  10.745  1.00  0.00     0.098 A 
ATOM     32  H5  UNL     1      85.969  56.634  10.679  1.00  0.00     0.165 HD
HETATM   33  C15 UNL     1      86.843  59.729  11.348  1.00  0.00    -0.002 A 
HETATM   34  C20 UNL     1      85.911  60.042  12.221  1.00  0.00     0.043 A 
BRANCH  33  35
HETATM   35  C16 UNL     1      87.860  60.736  10.988  1.00  0.00     0.107 A 
HETATM   36  C17 UNL     1      88.582  60.449   9.757  1.00  0.00     0.012 A 
HETATM   37  C18 UNL     1      88.059  61.445   9.112  1.00  0.00    -0.024 A 
HETATM   38  C19 UNL     1      87.269  61.869  10.248  1.00  0.00     0.074 A 
BRANCH  35  39
HETATM   39  O5  UNL     1      88.664  61.135  12.067  1.00  0.00    -0.381 OA
ATOM     40  H5  UNL     1      89.015  62.013  11.976  1.00  0.00     0.211 HD
ENDBRANCH  35  39
ENDBRANCH  33  35
ENDBRANCH  25  27
ENDBRANCH   8  25
TORSDOF 9
ENDMDL
MODEL 2
REMARK VINA RESULT: -7.076744919      0.850      1.017
REMARK  9 active torsions:
REMARK  status: ('A' for Active; 'I' for Inactive)
REMARK    1  A    between atoms: C2_2  and  S1_3 
REMARK    2  A    between atoms: S1_3  and  C3_6 
REMARK    3  A    between atoms: C6_9  and  S2_10 
REMARK    4  A    between atoms: S2_10  and  N1_13 
REMARK    5  A    between atoms: N1_13  and  C7_15 
REMARK    6  A    between atoms: C10_22  and  N4_23 
REMARK    7  A    between atoms: N4_23  and  C11_25 
REMARK    8  A    between atoms: C15_31  and  C16_32 
REMARK    9  A    between atoms: C16_32  and  O5_33 
ROOT
HETATM    1  C7  UNL     1      83.501  61.531  14.336  1.00  0.00     0.160 A 
HETATM    2  N2  UNL     1      83.731  62.514  15.216  1.00  0.00    -0.347 N 
ATOM      3  H2  UNL     1      83.273  63.421  15.121  1.00  0.00     0.167 HD
HETATM    4  C8  UNL     1      84.588  62.270  16.234  1.00  0.00     0.107 A 
HETATM    5  C9  UNL     1      85.233  61.069  16.412  1.00  0.00     0.107 A 
HETATM    6  N3  UNL     1      84.964  60.111  15.495  1.00  0.00    -0.348 N 
ATOM      7  H3  UNL     1      85.424  59.206  15.596  1.00  0.00     0.167 HD
HETATM    8  C10 UNL     1      84.132  60.282  14.467  1.00  0.00     0.151 A 
ENDROOT
BRANCH   1   9
HETATM    9  N1  UNL     1      82.723  61.645  13.349  1.00  0.00    -0.263 N 
ATOM     10  H1  UNL     1      83.172  61.717  12.435  1.00  0.00     0.180 HD
BRANCH   9  11
HETATM   11  S2  UNL     1      81.036  61.694  13.343  1.00  0.00     0.264 S 
HETATM   12  O3  UNL     1      80.426  61.719  14.732  1.00  0.00    -0.200 OA
HETATM   13  O4  UNL     1      80.578  60.399  12.645  1.00  0.00    -0.200 OA
BRANCH  11  14
HETATM   14  C6  UNL     1      80.353  63.027  12.448  1.00  0.00     0.080 A 
HETATM   15  C5  UNL     1      80.274  64.258  13.032  1.00  0.00     0.027 A 
HETATM   16  C4  UNL     1      79.738  65.364  12.363  1.00  0.00     0.025 A 
HETATM   17  C3  UNL     1      79.276  65.216  11.085  1.00  0.00     0.059 A 
HETATM   18  C22 UNL     1      79.352  63.983  10.494  1.00  0.00     0.025 A 
HETATM   19  C21 UNL     1      79.880  62.900  11.156  1.00  0.00     0.027 A 
BRANCH  17  20
HETATM   20  S1  UNL     1      78.610  66.613  10.270  1.00  0.00     0.175 S 
HETATM   21  O1  UNL     1      79.357  67.833  10.738  1.00  0.00    -0.223 OA
HETATM   22  O2  UNL     1      77.137  66.764  10.528  1.00  0.00    -0.223 OA
BRANCH  20  23
HETATM   23  C2  UNL     1      78.827  66.481   8.507  1.00  0.00     0.141 C 
HETATM   24  C1  UNL     1      79.701  67.587   8.007  1.00  0.00     0.021 C 
ENDBRANCH  20  23
ENDBRANCH  17  20
ENDBRANCH  11  14
ENDBRANCH   9  11
ENDBRANCH   1   9
BRANCH   8  25
HETATM   25  N4  UNL     1      83.895  59.346  13.606  1.00  0.00    -0.338 N 
ATOM     26  H4  UNL     1      83.004  58.850  13.598  1.00  0.00     0.167 HD
BRANCH  25  27
HETATM   27  C11 UNL     1      84.917  59.033  12.671  1.00  0.00     0.056 A 
HETATM   28  C12 UNL     1      85.009  57.842  12.101  1.00  0.00     0.032 A 
HETATM   29  C13 UNL     1      83.973  56.829  12.493  1.00  0.00     0.070 C 
HETATM   30  N5  UNL     1      86.027  57.517  11.164  1.00  0.00    -0.367 N 
HETATM   31  C14 UNL     1      86.936  58.371  10.806  1.00  0.00     0.098 A 
ATOM     32  H5  UNL     1      86.044  56.582  10.759  1.00  0.00     0.165 HD
HETATM   33  C15 UNL     1      86.888  59.692  11.395  1.00  0.00    -0.002 A 
HETATM   34  C20 UNL     1      85.952  60.006  12.262  1.00  0.00     0.043 A 
BRANCH  33  35
HETATM   35  C16 UNL     1      87.896  60.704  11.025  1.00  0.00     0.107 A 
HETATM   36  C17 UNL     1      88.605  60.424   9.784  1.00  0.00     0.012 A 
HETATM   37  C18 UNL     1      88.070  61.420   9.148  1.00  0.00    -0.024 A 
HETATM   38  C19 UNL     1      87.291  61.836  10.296  1.00  0.00     0.074 A 
BRANCH  35  39
HETATM   39  O5  UNL     1      88.712  61.104  12.095  1.00  0.00    -0.381 OA
ATOM     40  H5  UNL     1      89.154  60.384  12.528  1.00  0.00     0.211 HD
ENDBRANCH  35  39
ENDBRANCH  33  35
ENDBRANCH  25  27
ENDBRANCH   8  25
TORSDOF 9
ENDMDL
MODEL 3
REMARK VINA RESULT: -7.065846289      1.290      1.500
REMARK  9 active torsions:
REMARK  status: ('A' for Active; 'I' for Inactive)
REMARK    1  A    between atoms: C2_2  and  S1_3 
REMARK    2  A    between atoms: S1_3  and  C3_6 
REMARK    3  A    between atoms: C6_9  and  S2_10 
REMARK    4  A    between atoms: S2_10  and  N1_13 
REMARK    5  A    between atoms: N1_13  and  C7_15 
REMARK    6  A    between atoms: C10_22  and  N4_23 
REMARK    7  A    between atoms: N4_23  and  C11_25 
REMARK    8  A    between atoms: C15_31  and  C16_32 
REMARK    9  A    between atoms: C16_32  and  O5_33 
ROOT
HETATM    1  C7  UNL     1      83.952  61.333  14.012  1.00  0.00     0.160 A 
HETATM    2  N2  UNL     1      84.140  62.392  14.810  1.00  0.00    -0.347 N 
ATOM      3  H2  UNL     1      83.849  63.325  14.521  1.00  0.00     0.167 HD
HETATM    4  C8  UNL     1      84.729  62.185  16.012  1.00  0.00     0.107 A 
HETATM    5  C9  UNL     1      85.140  60.951  16.454  1.00  0.00     0.107 A 
HETATM    6  N3  UNL     1      84.925  59.917  15.607  1.00  0.00    -0.348 N 
ATOM      7  H3  UNL     1      85.217  58.985  15.903  1.00  0.00     0.167 HD
HETATM    8  C10 UNL     1      84.352  60.046  14.410  1.00  0.00     0.151 A 
ENDROOT
BRANCH   1   9
HETATM    9  N1  UNL     1      83.415  61.406  12.872  1.00  0.00    -0.263 N 
ATOM     10  H1  UNL     1      83.997  61.797  12.131  1.00  0.00     0.180 HD
BRANCH   9  11
HETATM   11  S2  UNL     1      81.859  60.940  12.413  1.00  0.00     0.264 S 
HETATM   12  O3  UNL     1      81.101  60.205  13.503  1.00  0.00    -0.200 OA
HETATM   13  O4  UNL     1      82.038  59.977  11.224  1.00  0.00    -0.200 OA
BRANCH  11  14
HETATM   14  C6  UNL     1      80.843  62.248  11.863  1.00  0.00     0.080 A 
HETATM   15  C5  UNL     1      80.707  63.365  12.637  1.00  0.00     0.027 A 
HETATM   16  C4  UNL     1      79.909  64.445  12.247  1.00  0.00     0.025 A 
HETATM   17  C3  UNL     1      79.241  64.391  11.057  1.00  0.00     0.059 A 
HETATM   18  C22 UNL     1      79.372  63.273  10.276  1.00  0.00     0.025 A 
HETATM   19  C21 UNL     1      80.159  62.214  10.664  1.00  0.00     0.027 A 
BRANCH  17  20
HETATM   20  S1  UNL     1      78.248  65.754  10.591  1.00  0.00     0.175 S 
HETATM   21  O1  UNL     1      76.804  65.371  10.775  1.00  0.00    -0.223 OA
HETATM   22  O2  UNL     1      78.506  66.176   9.171  1.00  0.00    -0.223 OA
BRANCH  20  23
HETATM   23  C2  UNL     1      78.578  67.162  11.629  1.00  0.00     0.141 C 
HETATM   24  C1  UNL     1      79.668  67.999  11.039  1.00  0.00     0.021 C 
ENDBRANCH  20  23
ENDBRANCH  17  20
ENDBRANCH  11  14
ENDBRANCH   9  11
ENDBRANCH   1   9
BRANCH   8  25
HETATM   25  N4  UNL     1      84.159  59.038  13.622  1.00  0.00    -0.338 N 
ATOM     26  H4  UNL     1      83.222  58.677  13.448  1.00  0.00     0.167 HD
BRANCH  25  27
HETATM   27  C11 UNL     1      85.297  58.452  13.007  1.00  0.00     0.056 A 
HETATM   28  C12 UNL     1      85.262  57.244  12.467  1.00  0.00     0.032 A 
HETATM   29  C13 UNL     1      83.951  56.517  12.536  1.00  0.00     0.070 C 
HETATM   30  N5  UNL     1      86.394  56.648  11.849  1.00  0.00    -0.367 N 
HETATM   31  C14 UNL     1      87.540  57.251  11.775  1.00  0.00     0.098 A 
ATOM     32  H5  UNL     1      86.303  55.714  11.449  1.00  0.00     0.165 HD
HETATM   33  C15 UNL     1      87.641  58.576  12.347  1.00  0.00    -0.002 A 
HETATM   34  C20 UNL     1      86.603  59.140  12.922  1.00  0.00     0.043 A 
BRANCH  33  35
HETATM   35  C16 UNL     1      88.921  59.310  12.292  1.00  0.00     0.107 A 
HETATM   36  C17 UNL     1      90.097  58.462  12.156  1.00  0.00     0.012 A 
HETATM   37  C18 UNL     1      90.362  58.868  10.953  1.00  0.00    -0.024 A 
HETATM   38  C19 UNL     1      89.229  59.768  10.923  1.00  0.00     0.074 A 
BRANCH  35  39
HETATM   39  O5  UNL     1      89.031  60.324  13.256  1.00  0.00    -0.381 OA
ATOM     40  H5  UNL     1      89.821  60.844  13.174  1.00  0.00     0.211 HD
ENDBRANCH  35  39
ENDBRANCH  33  35
ENDBRANCH  25  27
ENDBRANCH   8  25
TORSDOF 9
ENDMDL
MODEL 4
REMARK VINA RESULT: -6.966796956      1.407      1.830
REMARK  9 active torsions:
REMARK  status: ('A' for Active; 'I' for Inactive)
REMARK    1  A    between atoms: C2_2  and  S1_3 
REMARK    2  A    between atoms: S1_3  and  C3_6 
REMARK    3  A    between atoms: C6_9  and  S2_10 
REMARK    4  A    between atoms: S2_10  and  N1_13 
REMARK    5  A    between atoms: N1_13  and  C7_15 
REMARK    6  A    between atoms: C10_22  and  N4_23 
REMARK    7  A    between atoms: N4_23  and  C11_25 
REMARK    8  A    between atoms: C15_31  and  C16_32 
REMARK    9  A    between atoms: C16_32  and  O5_33 
ROOT
HETATM    1  C7  UNL     1      83.506  61.621  14.276  1.00  0.00     0.160 A 
HETATM    2  N2  UNL     1      83.196  61.980  15.528  1.00  0.00    -0.347 N 
ATOM      3  H2  UNL     1      82.276  62.358  15.754  1.00  0.00     0.167 HD
HETATM    4  C8  UNL     1      84.140  61.826  16.486  1.00  0.00     0.107 A 
HETATM    5  C9  UNL     1      85.395  61.321  16.242  1.00  0.00     0.107 A 
HETATM    6  N3  UNL     1      85.654  60.974  14.959  1.00  0.00    -0.348 N 
ATOM      7  H3  UNL     1      86.576  60.595  14.741  1.00  0.00     0.167 HD
HETATM    8  C10 UNL     1      84.774  61.099  13.965  1.00  0.00     0.151 A 
ENDROOT
BRANCH   1   9
HETATM    9  N1  UNL     1      82.708  61.720  13.303  1.00  0.00    -0.263 N 
ATOM     10  H1  UNL     1      83.138  61.811  12.383  1.00  0.00     0.180 HD
BRANCH   9  11
HETATM   11  S2  UNL     1      81.020  61.723  13.328  1.00  0.00     0.264 S 
HETATM   12  O3  UNL     1      80.435  61.851  14.722  1.00  0.00    -0.200 OA
HETATM   13  O4  UNL     1      80.586  60.362  12.753  1.00  0.00    -0.200 OA
BRANCH  11  14
HETATM   14  C6  UNL     1      80.283  62.955  12.338  1.00  0.00     0.080 A 
HETATM   15  C5  UNL     1      79.844  62.638  11.084  1.00  0.00     0.027 A 
HETATM   16  C4  UNL     1      79.244  63.583  10.246  1.00  0.00     0.025 A 
HETATM   17  C3  UNL     1      79.087  64.867  10.686  1.00  0.00     0.059 A 
HETATM   18  C22 UNL     1      79.526  65.193  11.943  1.00  0.00     0.025 A 
HETATM   19  C21 UNL     1      80.114  64.259  12.763  1.00  0.00     0.027 A 
BRANCH  17  20
HETATM   20  S1  UNL     1      78.334  66.031   9.620  1.00  0.00     0.175 S 
HETATM   21  O1  UNL     1      76.927  65.574   9.340  1.00  0.00    -0.223 OA
HETATM   22  O2  UNL     1      79.101  66.194   8.337  1.00  0.00    -0.223 OA
BRANCH  20  23
HETATM   23  C2  UNL     1      78.247  67.634  10.391  1.00  0.00     0.141 C 
HETATM   24  C1  UNL     1      79.503  68.404  10.134  1.00  0.00     0.021 C 
ENDBRANCH  20  23
ENDBRANCH  17  20
ENDBRANCH  11  14
ENDBRANCH   9  11
ENDBRANCH   1   9
BRANCH   8  25
HETATM   25  N4  UNL     1      85.051  60.759  12.749  1.00  0.00    -0.338 N 
ATOM     26  H4  UNL     1      84.591  61.209  11.958  1.00  0.00     0.167 HD
BRANCH  25  27
HETATM   27  C11 UNL     1      86.017  59.737  12.551  1.00  0.00     0.056 A 
HETATM   28  C12 UNL     1      85.677  58.468  12.385  1.00  0.00     0.032 A 
HETATM   29  C13 UNL     1      84.208  58.159  12.417  1.00  0.00     0.070 C 
HETATM   30  N5  UNL     1      86.634  57.437  12.186  1.00  0.00    -0.367 N 
HETATM   31  C14 UNL     1      87.909  57.674  12.155  1.00  0.00     0.098 A 
ATOM     32  H5  UNL     1      86.308  56.479  12.063  1.00  0.00     0.165 HD
HETATM   33  C15 UNL     1      88.344  59.044  12.329  1.00  0.00    -0.002 A 
HETATM   34  C20 UNL     1      87.470  60.006  12.514  1.00  0.00     0.043 A 
BRANCH  33  35
HETATM   35  C16 UNL     1      89.783  59.372  12.302  1.00  0.00     0.107 A 
HETATM   36  C17 UNL     1      90.665  58.229  12.493  1.00  0.00     0.012 A 
HETATM   37  C18 UNL     1      91.123  58.266  11.280  1.00  0.00    -0.024 A 
HETATM   38  C19 UNL     1      90.309  59.408  10.923  1.00  0.00     0.074 A 
BRANCH  35  39
HETATM   39  O5  UNL     1      90.115  60.509  13.054  1.00  0.00    -0.381 OA
ATOM     40  H5  UNL     1      89.543  61.250  12.898  1.00  0.00     0.211 HD
ENDBRANCH  35  39
ENDBRANCH  33  35
ENDBRANCH  25  27
ENDBRANCH   8  25
TORSDOF 9
ENDMDL
MODEL 5
REMARK VINA RESULT: -6.965034771      2.966      7.111
REMARK  9 active torsions:
REMARK  status: ('A' for Active; 'I' for Inactive)
REMARK    1  A    between atoms: C2_2  and  S1_3 
REMARK    2  A    between atoms: S1_3  and  C3_6 
REMARK    3  A    between atoms: C6_9  and  S2_10 
REMARK    4  A    between atoms: S2_10  and  N1_13 
REMARK    5  A    between atoms: N1_13  and  C7_15 
REMARK    6  A    between atoms: C10_22  and  N4_23 
REMARK    7  A    between atoms: N4_23  and  C11_25 
REMARK    8  A    between atoms: C15_31  and  C16_32 
REMARK    9  A    between atoms: C16_32  and  O5_33 
ROOT
HETATM    1  C7  UNL     1      84.766  59.998  14.284  1.00  0.00     0.160 A 
HETATM    2  N2  UNL     1      85.268  60.015  15.526  1.00  0.00    -0.347 N 
ATOM      3  H2  UNL     1      85.839  59.245  15.872  1.00  0.00     0.167 HD
HETATM    4  C8  UNL     1      84.993  61.086  16.308  1.00  0.00     0.107 A 
HETATM    5  C9  UNL     1      84.230  62.152  15.895  1.00  0.00     0.107 A 
HETATM    6  N3  UNL     1      83.750  62.083  14.632  1.00  0.00    -0.348 N 
ATOM      7  H3  UNL     1      83.180  62.857  14.291  1.00  0.00     0.167 HD
HETATM    8  C10 UNL     1      83.979  61.060  13.807  1.00  0.00     0.151 A 
ENDROOT
BRANCH   1   9
HETATM    9  N1  UNL     1      84.955  59.054  13.468  1.00  0.00    -0.263 N 
ATOM     10  H1  UNL     1      84.188  58.388  13.374  1.00  0.00     0.180 HD
BRANCH   9  11
HETATM   11  S2  UNL     1      86.313  58.750  12.512  1.00  0.00     0.264 S 
HETATM   12  O3  UNL     1      86.384  57.325  11.996  1.00  0.00    -0.200 OA
HETATM   13  O4  UNL     1      87.533  58.989  13.422  1.00  0.00    -0.200 OA
BRANCH  11  14
HETATM   14  C6  UNL     1      86.484  59.812  11.138  1.00  0.00     0.080 A 
HETATM   15  C5  UNL     1      85.979  59.432   9.928  1.00  0.00     0.027 A 
HETATM   16  C4  UNL     1      86.085  60.242   8.793  1.00  0.00     0.025 A 
HETATM   17  C3  UNL     1      86.710  61.454   8.888  1.00  0.00     0.059 A 
HETATM   18  C22 UNL     1      87.219  61.841  10.099  1.00  0.00     0.025 A 
HETATM   19  C21 UNL     1      87.112  61.041  11.212  1.00  0.00     0.027 A 
BRANCH  17  20
HETATM   20  S1  UNL     1      86.829  62.449   7.454  1.00  0.00     0.175 S 
HETATM   21  O1  UNL     1      85.441  62.666   6.914  1.00  0.00    -0.223 OA
HETATM   22  O2  UNL     1      87.712  61.823   6.409  1.00  0.00    -0.223 OA
BRANCH  20  23
HETATM   23  C2  UNL     1      87.521  64.042   7.844  1.00  0.00     0.141 C 
HETATM   24  C1  UNL     1      86.431  65.045   8.054  1.00  0.00     0.021 C 
ENDBRANCH  20  23
ENDBRANCH  17  20
ENDBRANCH  11  14
ENDBRANCH   9  11
ENDBRANCH   1   9
BRANCH   8  25
HETATM   25  N4  UNL     1      83.505  61.022  12.604  1.00  0.00    -0.338 N 
ATOM     26  H4  UNL     1      84.122  60.925  11.797  1.00  0.00     0.167 HD
BRANCH  25  27
HETATM   27  C11 UNL     1      82.098  61.120  12.444  1.00  0.00     0.056 A 
HETATM   28  C12 UNL     1      81.369  60.112  11.990  1.00  0.00     0.032 A 
HETATM   29  C13 UNL     1      82.108  58.850  11.651  1.00  0.00     0.070 C 
HETATM   30  N5  UNL     1      79.960  60.198  11.826  1.00  0.00    -0.367 N 
HETATM   31  C14 UNL     1      79.295  61.275  12.110  1.00  0.00     0.098 A 
ATOM     32  H5  UNL     1      79.454  59.386  11.473  1.00  0.00     0.165 HD
HETATM   33  C15 UNL     1      80.037  62.412  12.611  1.00  0.00    -0.002 A 
HETATM   34  C20 UNL     1      81.339  62.346  12.768  1.00  0.00     0.043 A 
BRANCH  33  35
HETATM   35  C16 UNL     1      79.332  63.664  12.950  1.00  0.00     0.107 A 
HETATM   36  C17 UNL     1      80.081  64.877  12.651  1.00  0.00     0.012 A 
HETATM   37  C18 UNL     1      79.278  65.245  11.700  1.00  0.00    -0.024 A 
HETATM   38  C19 UNL     1      78.423  64.089  11.868  1.00  0.00     0.074 A 
BRANCH  35  39
HETATM   39  O5  UNL     1      78.721  63.642  14.213  1.00  0.00    -0.381 OA
ATOM     40  H5  UNL     1      78.915  64.405  14.744  1.00  0.00     0.211 HD
ENDBRANCH  35  39
ENDBRANCH  33  35
ENDBRANCH  25  27
ENDBRANCH   8  25
TORSDOF 9
ENDMDL
