MODEL 1
REMARK VINA RESULT: -6.952919887      0.000      0.000
REMARK  8 active torsions:
REMARK  status: ('A' for Active; 'I' for Inactive)
REMARK    1  A    between atoms: N1_2  and  C2_4 
REMARK    2  A    between atoms: C4_8  and  N3_9 
REMARK    3  A    between atoms: N3_9  and  C5_11 
REMARK    4  A    between atoms: C5_11  and  C6_12 
REMARK    5  A    between atoms: C6_12  and  C7_13 
REMARK    6  A    between atoms: C7_13  and  N4_14 
REMARK    7  A    between atoms: N5_20  and  S1_21 
REMARK    8  A    between atoms: S1_21  and  C13_24 
ROOT
HETATM    1  C6  UNL     1      83.015  61.341  13.145  1.00  0.00     0.050 C 
ENDROOT
BRANCH   1   2
HETATM    2  C5  UNL     1      83.628  61.396  14.488  1.00  0.00     0.123 C 
BRANCH   2   3
HETATM    3  N3  UNL     1      84.340  60.138  14.687  1.00  0.00    -0.373 N 
ATOM      4  H3  UNL     1      83.926  59.463  15.330  1.00  0.00     0.161 HD
BRANCH   3   5
HETATM    5  C4  UNL     1      85.439  59.814  14.124  1.00  0.00     0.144 A 
HETATM    6  C3  UNL     1      85.516  58.659  13.338  1.00  0.00     0.091 A 
HETATM    7  N2  UNL     1      84.425  57.908  13.196  1.00  0.00    -0.339 N 
HETATM    8  C21 UNL     1      86.676  58.273  12.710  1.00  0.00     0.012 A 
HETATM    9  C2  UNL     1      84.456  56.794  12.453  1.00  0.00     0.107 A 
ATOM     10  H2  UNL     1      83.558  58.184  13.656  1.00  0.00     0.167 HD
HETATM   11  C23 UNL     1      85.600  56.365  11.801  1.00  0.00    -0.017 A 
HETATM   12  C22 UNL     1      86.733  57.126  11.936  1.00  0.00     0.026 A 
HETATM   13  C24 UNL     1      85.587  55.106  10.977  1.00  0.00     0.052 C 
HETATM   14  C20 UNL     1      87.788  59.080  12.884  1.00  0.00     0.121 A 
HETATM   15  N8  UNL     1      87.702  60.183  13.639  1.00  0.00    -0.309 N 
HETATM   16  N7  UNL     1      86.550  60.528  14.237  1.00  0.00    -0.284 N 
ATOM     17  H8  UNL     1      88.525  60.772  13.760  1.00  0.00     0.186 HD
ATOM     18  H7  UNL     1      86.530  61.376  14.803  1.00  0.00     0.188 HD
BRANCH   9  19
HETATM   19  N1  UNL     1      83.411  56.054  12.303  1.00  0.00    -0.380 N 
HETATM   20  C1  UNL     1      82.197  56.543  11.696  1.00  0.00     0.147 C 
ATOM     21  H1  UNL     1      83.444  55.087  12.626  1.00  0.00     0.160 HD
ENDBRANCH   9  19
ENDBRANCH   3   5
ENDBRANCH   2   3
ENDBRANCH   1   2
BRANCH   1  22
HETATM   22  C7  UNL     1      81.953  60.326  12.875  1.00  0.00     0.275 C 
BRANCH  22  23
HETATM   23  N4  UNL     1      80.874  60.788  12.170  1.00  0.00     0.098 N 
HETATM   24  C8  UNL     1      80.130  59.829  11.406  1.00  0.00     0.276 C 
HETATM   25  C9  UNL     1      78.942  60.097  12.321  1.00  0.00     0.072 C 
HETATM   26  C10 UNL     1      79.711  61.374  12.637  1.00  0.00     0.163 C 
HETATM   27  C11 UNL     1      79.225  62.466  11.670  1.00  0.00     0.057 C 
HETATM   28  C19 UNL     1      79.527  61.800  14.030  1.00  0.00     0.057 C 
HETATM   29  C12 UNL     1      77.865  62.975  12.087  1.00  0.00     0.110 C 
HETATM   30  N5  UNL     1      77.834  63.442  13.436  1.00  0.00    -0.210 NA
HETATM   31  C18 UNL     1      79.077  63.261  14.114  1.00  0.00     0.110 C 
BRANCH  30  32
HETATM   32  S1  UNL     1      76.474  62.966  14.340  1.00  0.00     0.215 S 
HETATM   33  O1  UNL     1      75.711  61.820  13.743  1.00  0.00    -0.211 OA
HETATM   34  O2  UNL     1      76.941  62.573  15.713  1.00  0.00    -0.211 OA
BRANCH  32  35
HETATM   35  C13 UNL     1      75.295  64.296  14.529  1.00  0.00     0.127 C 
HETATM   36  C14 UNL     1      75.271  64.614  16.011  1.00  0.00     0.049 C 
HETATM   37  C15 UNL     1      74.638  65.927  16.335  1.00  0.00     0.233 C 
HETATM   38  N6  UNL     1      74.916  66.972  15.395  1.00  0.00    -0.075 N 
HETATM   39  C16 UNL     1      76.035  66.660  14.544  1.00  0.00     0.233 C 
ATOM     40  H62 UNL     1      74.089  67.202  14.845  1.00  0.00     0.277 HD
ATOM     41  H61 UNL     1      75.051  67.866  15.868  1.00  0.00     0.277 HD
HETATM   42  C17 UNL     1      75.658  65.486  13.678  1.00  0.00     0.049 C 
ENDBRANCH  32  35
ENDBRANCH  30  32
ENDBRANCH  22  23
ENDBRANCH   1  22
TORSDOF 8
ENDMDL
MODEL 2
REMARK VINA RESULT: -6.817364735      1.852      2.295
REMARK  8 active torsions:
REMARK  status: ('A' for Active; 'I' for Inactive)
REMARK    1  A    between atoms: N1_2  and  C2_4 
REMARK    2  A    between atoms: C4_8  and  N3_9 
REMARK    3  A    between atoms: N3_9  and  C5_11 
REMARK    4  A    between atoms: C5_11  and  C6_12 
REMARK    5  A    between atoms: C6_12  and  C7_13 
REMARK    6  A    between atoms: C7_13  and  N4_14 
REMARK    7  A    between atoms: N5_20  and  S1_21 
REMARK    8  A    between atoms: S1_21  and  C13_24 
ROOT
HETATM    1  C6  UNL     1      82.866  61.765  13.606  1.00  0.00     0.050 C 
ENDROOT
BRANCH   1   2
HETATM    2  C5  UNL     1      83.771  61.623  14.765  1.00  0.00     0.123 C 
BRANCH   2   3
HETATM    3  N3  UNL     1      84.289  60.259  14.741  1.00  0.00    -0.373 N 
ATOM      4  H3  UNL     1      83.744  59.542  15.221  1.00  0.00     0.161 HD
BRANCH   3   5
HETATM    5  C4  UNL     1      85.368  59.888  14.168  1.00  0.00     0.144 A 
HETATM    6  C3  UNL     1      85.391  58.730  13.384  1.00  0.00     0.091 A 
HETATM    7  N2  UNL     1      84.268  58.024  13.253  1.00  0.00    -0.339 N 
HETATM    8  C21 UNL     1      86.528  58.295  12.747  1.00  0.00     0.012 A 
HETATM    9  C2  UNL     1      84.247  56.908  12.512  1.00  0.00     0.107 A 
ATOM     10  H2  UNL     1      83.418  58.336  13.720  1.00  0.00     0.167 HD
HETATM   11  C23 UNL     1      85.366  56.432  11.852  1.00  0.00    -0.017 A 
HETATM   12  C22 UNL     1      86.532  57.145  11.975  1.00  0.00     0.026 A 
HETATM   13  C24 UNL     1      85.294  55.173  11.031  1.00  0.00     0.052 C 
HETATM   14  C20 UNL     1      87.674  59.055  12.909  1.00  0.00     0.121 A 
HETATM   15  N8  UNL     1      87.640  60.163  13.662  1.00  0.00    -0.309 N 
HETATM   16  N7  UNL     1      86.509  60.556  14.270  1.00  0.00    -0.284 N 
ATOM     17  H8  UNL     1      88.488  60.718  13.776  1.00  0.00     0.186 HD
ATOM     18  H7  UNL     1      86.528  61.405  14.834  1.00  0.00     0.188 HD
BRANCH   9  19
HETATM   19  N1  UNL     1      83.171  56.212  12.374  1.00  0.00    -0.380 N 
HETATM   20  C1  UNL     1      81.979  56.743  11.758  1.00  0.00     0.147 C 
ATOM     21  H1  UNL     1      83.162  55.249  12.712  1.00  0.00     0.160 HD
ENDBRANCH   9  19
ENDBRANCH   3   5
ENDBRANCH   2   3
ENDBRANCH   1   2
BRANCH   1  22
HETATM   22  C7  UNL     1      81.392  61.796  13.838  1.00  0.00     0.275 C 
BRANCH  22  23
HETATM   23  N4  UNL     1      80.627  61.912  12.707  1.00  0.00     0.098 N 
HETATM   24  C8  UNL     1      79.673  60.873  12.451  1.00  0.00     0.276 C 
HETATM   25  C9  UNL     1      78.572  61.910  12.629  1.00  0.00     0.072 C 
HETATM   26  C10 UNL     1      79.709  62.890  12.369  1.00  0.00     0.163 C 
HETATM   27  C11 UNL     1      79.748  63.175  10.859  1.00  0.00     0.057 C 
HETATM   28  C19 UNL     1      79.547  64.138  13.126  1.00  0.00     0.057 C 
HETATM   29  C12 UNL     1      78.625  64.107  10.468  1.00  0.00     0.110 C 
HETATM   30  N5  UNL     1      78.624  65.324  11.215  1.00  0.00    -0.210 NA
HETATM   31  C18 UNL     1      79.643  65.363  12.212  1.00  0.00     0.110 C 
BRANCH  30  32
HETATM   32  S1  UNL     1      77.098  65.843  11.758  1.00  0.00     0.215 S 
HETATM   33  O1  UNL     1      76.224  66.414  10.679  1.00  0.00    -0.211 OA
HETATM   34  O2  UNL     1      76.397  64.665  12.374  1.00  0.00    -0.211 OA
BRANCH  32  35
HETATM   35  C13 UNL     1      77.226  67.113  13.009  1.00  0.00     0.127 C 
HETATM   36  C14 UNL     1      76.720  68.385  12.355  1.00  0.00     0.049 C 
HETATM   37  C15 UNL     1      76.397  69.472  13.325  1.00  0.00     0.233 C 
HETATM   38  N6  UNL     1      75.800  69.024  14.547  1.00  0.00    -0.075 N 
HETATM   39  C16 UNL     1      75.293  67.680  14.450  1.00  0.00     0.233 C 
ATOM     40  H62 UNL     1      76.449  69.117  15.329  1.00  0.00     0.277 HD
ATOM     41  H61 UNL     1      75.075  69.669  14.861  1.00  0.00     0.277 HD
HETATM   42  C17 UNL     1      76.459  66.747  14.253  1.00  0.00     0.049 C 
ENDBRANCH  32  35
ENDBRANCH  30  32
ENDBRANCH  22  23
ENDBRANCH   1  22
TORSDOF 8
ENDMDL
MODEL 3
REMARK VINA RESULT: -6.789562346      1.017      1.407
REMARK  8 active torsions:
REMARK  status: ('A' for Active; 'I' for Inactive)
REMARK    1  A    between atoms: N1_2  and  C2_4 
REMARK    2  A    between atoms: C4_8  and  N3_9 
REMARK    3  A    between atoms: N3_9  and  C5_11 
REMARK    4  A    between atoms: C5_11  and  C6_12 
REMARK    5  A    between atoms: C6_12  and  C7_13 
REMARK    6  A    between atoms: C7_13  and  N4_14 
REMARK    7  A    between atoms: N5_20  and  S1_21 
REMARK    8  A    between atoms: S1_21  and  C13_24 
ROOT
HETATM    1  C6  UNL     1      82.839  61.356  13.214  1.00  0.00     0.050 C 
ENDROOT
BRANCH   1   2
HETATM    2  C5  UNL     1      83.672  61.465  14.430  1.00  0.00     0.123 C 
BRANCH   2   3
HETATM    3  N3  UNL     1      84.331  60.177  14.615  1.00  0.00    -0.373 N 
ATOM      4  H3  UNL     1      83.874  59.501  15.227  1.00  0.00     0.161 HD
BRANCH   3   5
HETATM    5  C4  UNL     1      85.434  59.827  14.076  1.00  0.00     0.144 A 
HETATM    6  C3  UNL     1      85.507  58.656  13.313  1.00  0.00     0.091 A 
HETATM    7  N2  UNL     1      84.408  57.918  13.166  1.00  0.00    -0.339 N 
HETATM    8  C21 UNL     1      86.671  58.243  12.711  1.00  0.00     0.012 A 
HETATM    9  C2  UNL     1      84.435  56.790  12.445  1.00  0.00     0.107 A 
ATOM     10  H2  UNL     1      83.538  58.215  13.607  1.00  0.00     0.167 HD
HETATM   11  C23 UNL     1      85.583  56.334  11.820  1.00  0.00    -0.017 A 
HETATM   12  C22 UNL     1      86.725  57.080  11.960  1.00  0.00     0.026 A 
HETATM   13  C24 UNL     1      85.565  55.060  11.019  1.00  0.00     0.052 C 
HETATM   14  C20 UNL     1      87.792  59.036  12.889  1.00  0.00     0.121 A 
HETATM   15  N8  UNL     1      87.710  60.155  13.622  1.00  0.00    -0.309 N 
HETATM   16  N7  UNL     1      86.553  60.527  14.194  1.00  0.00    -0.284 N 
ATOM     17  H8  UNL     1      88.540  60.734  13.746  1.00  0.00     0.186 HD
ATOM     18  H7  UNL     1      86.536  61.385  14.745  1.00  0.00     0.188 HD
BRANCH   9  19
HETATM   19  N1  UNL     1      83.382  56.063  12.291  1.00  0.00    -0.380 N 
HETATM   20  C1  UNL     1      82.183  56.560  11.661  1.00  0.00     0.147 C 
ATOM     21  H1  UNL     1      83.397  55.100  12.629  1.00  0.00     0.160 HD
ENDBRANCH   9  19
ENDBRANCH   3   5
ENDBRANCH   2   3
ENDBRANCH   1   2
BRANCH   1  22
HETATM   22  C7  UNL     1      81.693  60.399  13.205  1.00  0.00     0.275 C 
BRANCH  22  23
HETATM   23  N4  UNL     1      80.716  60.670  12.285  1.00  0.00     0.098 N 
HETATM   24  C8  UNL     1      80.037  59.552  11.698  1.00  0.00     0.276 C 
HETATM   25  C9  UNL     1      78.761  60.037  12.372  1.00  0.00     0.072 C 
HETATM   26  C10 UNL     1      79.524  61.353  12.452  1.00  0.00     0.163 C 
HETATM   27  C11 UNL     1      79.184  62.171  11.196  1.00  0.00     0.057 C 
HETATM   28  C19 UNL     1      79.193  62.110  13.666  1.00  0.00     0.057 C 
HETATM   29  C12 UNL     1      77.800  62.767  11.311  1.00  0.00     0.110 C 
HETATM   30  N5  UNL     1      77.628  63.553  12.491  1.00  0.00    -0.210 NA
HETATM   31  C18 UNL     1      78.779  63.547  13.334  1.00  0.00     0.110 C 
BRANCH  30  32
HETATM   32  S1  UNL     1      76.159  63.315  13.316  1.00  0.00     0.215 S 
HETATM   33  O1  UNL     1      74.983  64.003  12.686  1.00  0.00    -0.211 OA
HETATM   34  O2  UNL     1      75.886  61.838  13.364  1.00  0.00    -0.211 OA
BRANCH  32  35
HETATM   35  C13 UNL     1      76.231  63.908  15.000  1.00  0.00     0.127 C 
HETATM   36  C14 UNL     1      75.012  64.793  15.174  1.00  0.00     0.049 C 
HETATM   37  C15 UNL     1      74.683  65.090  16.600  1.00  0.00     0.233 C 
HETATM   38  N6  UNL     1      74.893  63.996  17.501  1.00  0.00    -0.075 N 
HETATM   39  C16 UNL     1      75.019  62.736  16.815  1.00  0.00     0.233 C 
ATOM     40  H62 UNL     1      75.696  64.167  18.106  1.00  0.00     0.277 HD
ATOM     41  H61 UNL     1      74.160  63.957  18.210  1.00  0.00     0.277 HD
HETATM   42  C17 UNL     1      76.278  62.771  15.988  1.00  0.00     0.049 C 
ENDBRANCH  32  35
ENDBRANCH  30  32
ENDBRANCH  22  23
ENDBRANCH   1  22
TORSDOF 8
ENDMDL
MODEL 4
REMARK VINA RESULT: -6.740503277      2.800      3.524
REMARK  8 active torsions:
REMARK  status: ('A' for Active; 'I' for Inactive)
REMARK    1  A    between atoms: N1_2  and  C2_4 
REMARK    2  A    between atoms: C4_8  and  N3_9 
REMARK    3  A    between atoms: N3_9  and  C5_11 
REMARK    4  A    between atoms: C5_11  and  C6_12 
REMARK    5  A    between atoms: C6_12  and  C7_13 
REMARK    6  A    between atoms: C7_13  and  N4_14 
REMARK    7  A    between atoms: N5_20  and  S1_21 
REMARK    8  A    between atoms: S1_21  and  C13_24 
ROOT
HETATM    1  C6  UNL     1      82.422  61.779  14.433  1.00  0.00     0.050 C 
ENDROOT
BRANCH   1   2
HETATM    2  C5  UNL     1      83.890  61.748  14.597  1.00  0.00     0.123 C 
BRANCH   2   3
HETATM    3  N3  UNL     1      84.291  60.345  14.609  1.00  0.00    -0.373 N 
ATOM      4  H3  UNL     1      83.672  59.686  15.082  1.00  0.00     0.161 HD
BRANCH   3   5
HETATM    5  C4  UNL     1      85.352  59.875  14.078  1.00  0.00     0.144 A 
HETATM    6  C3  UNL     1      85.303  58.699  13.322  1.00  0.00     0.091 A 
HETATM    7  N2  UNL     1      84.131  58.083  13.172  1.00  0.00    -0.339 N 
HETATM    8  C21 UNL     1      86.419  58.159  12.729  1.00  0.00     0.012 A 
HETATM    9  C2  UNL     1      84.041  56.954  12.456  1.00  0.00     0.107 A 
ATOM     10  H2  UNL     1      83.296  58.474  13.606  1.00  0.00     0.167 HD
HETATM   11  C23 UNL     1      85.136  56.373  11.841  1.00  0.00    -0.017 A 
HETATM   12  C22 UNL     1      86.351  56.993  11.984  1.00  0.00     0.026 A 
HETATM   13  C24 UNL     1      84.985  55.104  11.046  1.00  0.00     0.052 C 
HETATM   14  C20 UNL     1      87.618  58.828  12.909  1.00  0.00     0.121 A 
HETATM   15  N8  UNL     1      87.653  59.953  13.636  1.00  0.00    -0.309 N 
HETATM   16  N7  UNL     1      86.540  60.451  14.200  1.00  0.00    -0.284 N 
ATOM     17  H8  UNL     1      88.539  60.440  13.763  1.00  0.00     0.186 HD
ATOM     18  H7  UNL     1      86.613  61.309  14.746  1.00  0.00     0.188 HD
BRANCH   9  19
HETATM   19  N1  UNL     1      82.916  56.344  12.300  1.00  0.00    -0.380 N 
HETATM   20  C1  UNL     1      81.737  57.009  11.799  1.00  0.00     0.147 C 
ATOM     21  H1  UNL     1      82.857  55.354  12.540  1.00  0.00     0.160 HD
ENDBRANCH   9  19
ENDBRANCH   3   5
ENDBRANCH   2   3
ENDBRANCH   1   2
BRANCH   1  22
HETATM   22  C7  UNL     1      81.828  61.331  13.138  1.00  0.00     0.275 C 
BRANCH  22  23
HETATM   23  N4  UNL     1      80.462  61.392  13.073  1.00  0.00     0.098 N 
HETATM   24  C8  UNL     1      79.750  61.505  14.313  1.00  0.00     0.276 C 
HETATM   25  C9  UNL     1      79.276  62.878  13.857  1.00  0.00     0.072 C 
HETATM   26  C10 UNL     1      79.656  62.349  12.481  1.00  0.00     0.163 C 
HETATM   27  C11 UNL     1      78.405  61.702  11.864  1.00  0.00     0.057 C 
HETATM   28  C19 UNL     1      80.174  63.407  11.605  1.00  0.00     0.057 C 
HETATM   29  C12 UNL     1      77.445  62.763  11.381  1.00  0.00     0.110 C 
HETATM   30  N5  UNL     1      78.043  63.683  10.468  1.00  0.00    -0.210 NA
HETATM   31  C18 UNL     1      79.434  63.437  10.265  1.00  0.00     0.110 C 
BRANCH  30  32
HETATM   32  S1  UNL     1      77.655  65.319  10.724  1.00  0.00     0.215 S 
HETATM   33  O1  UNL     1      76.485  65.806   9.919  1.00  0.00    -0.211 OA
HETATM   34  O2  UNL     1      77.348  65.502  12.183  1.00  0.00    -0.211 OA
BRANCH  32  35
HETATM   35  C13 UNL     1      79.016  66.404  10.317  1.00  0.00     0.127 C 
HETATM   36  C14 UNL     1      78.647  67.045   8.993  1.00  0.00     0.049 C 
HETATM   37  C15 UNL     1      79.463  68.249   8.659  1.00  0.00     0.233 C 
HETATM   38  N6  UNL     1      79.783  69.083   9.779  1.00  0.00    -0.075 N 
HETATM   39  C16 UNL     1      78.955  68.804  10.924  1.00  0.00     0.233 C 
ATOM     40  H62 UNL     1      80.773  69.016  10.016  1.00  0.00     0.277 HD
ATOM     41  H61 UNL     1      79.742  70.070   9.526  1.00  0.00     0.277 HD
HETATM   42  C17 UNL     1      79.268  67.413  11.408  1.00  0.00     0.049 C 
ENDBRANCH  32  35
ENDBRANCH  30  32
ENDBRANCH  22  23
ENDBRANCH   1  22
TORSDOF 8
ENDMDL
MODEL 5
REMARK VINA RESULT: -6.729709595      6.124      9.167
REMARK  8 active torsions:
REMARK  status: ('A' for Active; 'I' for Inactive)
REMARK    1  A    between atoms: N1_2  and  C2_4 
REMARK    2  A    between atoms: C4_8  and  N3_9 
REMARK    3  A    between atoms: N3_9  and  C5_11 
REMARK    4  A    between atoms: C5_11  and  C6_12 
REMARK    5  A    between atoms: C6_12  and  C7_13 
REMARK    6  A    between atoms: C7_13  and  N4_14 
REMARK    7  A    between atoms: N5_20  and  S1_21 
REMARK    8  A    between atoms: S1_21  and  C13_24 
ROOT
HETATM    1  C6  UNL     1      87.401  58.906  11.694  1.00  0.00     0.050 C 
ENDROOT
BRANCH   1   2
HETATM    2  C5  UNL     1      87.136  58.767  13.142  1.00  0.00     0.123 C 
BRANCH   2   3
HETATM    3  N3  UNL     1      85.724  59.071  13.350  1.00  0.00    -0.373 N 
ATOM      4  H3  UNL     1      85.043  58.454  12.908  1.00  0.00     0.161 HD
BRANCH   3   5
HETATM    5  C4  UNL     1      85.272  60.045  14.040  1.00  0.00     0.144 A 
HETATM    6  C3  UNL     1      84.093  60.695  13.658  1.00  0.00     0.091 A 
HETATM    7  N2  UNL     1      83.460  60.279  12.562  1.00  0.00    -0.339 N 
HETATM    8  C21 UNL     1      83.568  61.745  14.372  1.00  0.00     0.012 A 
HETATM    9  C2  UNL     1      82.329  60.874  12.161  1.00  0.00     0.107 A 
ATOM     10  H2  UNL     1      83.839  59.500  12.024  1.00  0.00     0.167 HD
HETATM   11  C23 UNL     1      81.762  61.934  12.847  1.00  0.00    -0.017 A 
HETATM   12  C22 UNL     1      82.400  62.377  13.978  1.00  0.00     0.026 A 
HETATM   13  C24 UNL     1      80.489  62.571  12.358  1.00  0.00     0.052 C 
HETATM   14  C20 UNL     1      84.257  62.149  15.503  1.00  0.00     0.121 A 
HETATM   15  N8  UNL     1      85.384  61.519  15.859  1.00  0.00    -0.309 N 
HETATM   16  N7  UNL     1      85.867  60.495  15.136  1.00  0.00    -0.284 N 
ATOM     17  H8  UNL     1      85.885  61.821  16.695  1.00  0.00     0.186 HD
ATOM     18  H7  UNL     1      86.729  60.045  15.443  1.00  0.00     0.188 HD
BRANCH   9  19
HETATM   19  N1  UNL     1      81.701  60.486  11.104  1.00  0.00    -0.380 N 
HETATM   20  C1  UNL     1      82.373  59.853   9.994  1.00  0.00     0.147 C 
ATOM     21  H1  UNL     1      80.693  60.632  11.050  1.00  0.00     0.160 HD
ENDBRANCH   9  19
ENDBRANCH   3   5
ENDBRANCH   2   3
ENDBRANCH   1   2
BRANCH   1  22
HETATM   22  C7  UNL     1      86.248  59.050  10.757  1.00  0.00     0.275 C 
BRANCH  22  23
HETATM   23  N4  UNL     1      86.581  59.121   9.431  1.00  0.00     0.098 N 
HETATM   24  C8  UNL     1      85.653  58.566   8.490  1.00  0.00     0.276 C 
HETATM   25  C9  UNL     1      85.447  59.971   7.940  1.00  0.00     0.072 C 
HETATM   26  C10 UNL     1      86.775  60.238   8.637  1.00  0.00     0.163 C 
HETATM   27  C11 UNL     1      87.898  59.993   7.617  1.00  0.00     0.057 C 
HETATM   28  C19 UNL     1      86.853  61.603   9.173  1.00  0.00     0.057 C 
HETATM   29  C12 UNL     1      87.983  61.141   6.639  1.00  0.00     0.110 C 
HETATM   30  N5  UNL     1      88.145  62.408   7.277  1.00  0.00    -0.210 NA
HETATM   31  C18 UNL     1      88.122  62.318   8.701  1.00  0.00     0.110 C 
BRANCH  30  32
HETATM   32  S1  UNL     1      87.194  63.668   6.644  1.00  0.00     0.215 S 
HETATM   33  O1  UNL     1      87.529  64.038   5.229  1.00  0.00    -0.211 OA
HETATM   34  O2  UNL     1      85.754  63.241   6.705  1.00  0.00    -0.211 OA
BRANCH  32  35
HETATM   35  C13 UNL     1      87.353  65.173   7.596  1.00  0.00     0.127 C 
HETATM   36  C14 UNL     1      88.214  66.098   6.757  1.00  0.00     0.049 C 
HETATM   37  C15 UNL     1      88.164  67.525   7.192  1.00  0.00     0.233 C 
HETATM   38  N6  UNL     1      86.875  67.970   7.633  1.00  0.00    -0.075 N 
HETATM   39  C16 UNL     1      85.819  67.082   7.224  1.00  0.00     0.233 C 
ATOM     40  H62 UNL     1      86.863  68.116   8.642  1.00  0.00     0.277 HD
ATOM     41  H61 UNL     1      86.692  68.926   7.328  1.00  0.00     0.277 HD
HETATM   42  C17 UNL     1      86.007  65.764   7.930  1.00  0.00     0.049 C 
ENDBRANCH  32  35
ENDBRANCH  30  32
ENDBRANCH  22  23
ENDBRANCH   1  22
TORSDOF 8
ENDMDL
