MODEL 1
REMARK VINA RESULT: -5.544029192      0.000      0.000
REMARK  6 active torsions:
REMARK  status: ('A' for Active; 'I' for Inactive)
REMARK    1  A    between atoms: C4_8  and  C5_9 
REMARK    2  A    between atoms: C5_9  and  C6_10 
REMARK    3  A    between atoms: C6_10  and  C7_11 
REMARK    4  A    between atoms: C7_11  and  C8_12 
REMARK    5  A    between atoms: C8_12  and  C9_13 
REMARK    6  A    between atoms: C9_13  and  N3_14 
ROOT
HETATM    1  C1  UNL     1      74.094  62.169  15.442  1.00  0.00     0.153 C 
HETATM    2  N1  UNL     1      74.615  63.392  16.025  1.00  0.00    -0.348 N 
HETATM    3  C2  UNL     1      75.516  64.194  15.202  1.00  0.00     0.227 C 
HETATM    4  C3  UNL     1      76.536  63.321  14.566  1.00  0.00     0.235 C 
HETATM    5  O1  UNL     1      76.872  62.294  15.252  1.00  0.00    -0.272 OA
HETATM    6  N2  UNL     1      77.135  63.538  13.311  1.00  0.00    -0.355 N 
ATOM      7  H2  UNL     1      77.180  62.737  12.681  1.00  0.00     0.162 HD
HETATM    8  C4  UNL     1      77.690  64.775  12.826  1.00  0.00     0.086 C 
HETATM    9  C13 UNL     1      76.692  65.922  12.923  1.00  0.00     0.051 C 
HETATM   10  C14 UNL     1      77.260  67.102  12.133  1.00  0.00     0.169 C 
HETATM   11  O2  UNL     1      76.660  68.268  12.663  1.00  0.00    -0.389 OA
HETATM   12  C15 UNL     1      76.940  69.347  11.820  1.00  0.00     0.193 C 
HETATM   13  C16 UNL     1      76.672  70.633  12.564  1.00  0.00     0.193 C 
HETATM   14  O3  UNL     1      75.307  70.937  12.584  1.00  0.00    -0.387 OA
HETATM   15  C17 UNL     1      75.049  71.642  13.764  1.00  0.00     0.195 C 
HETATM   16  C18 UNL     1      73.586  71.686  14.095  1.00  0.00     0.258 C 
HETATM   17  N4  UNL     1      73.252  70.616  15.016  1.00  0.00    -0.073 N 
ATOM     18  H41 UNL     1      74.066  70.295  15.540  1.00  0.00     0.277 HD
ATOM     19  H42 UNL     1      73.036  69.746  14.530  1.00  0.00     0.277 HD
HETATM   20  C19 UNL     1      72.168  71.035  15.894  1.00  0.00     0.232 C 
HETATM   21  C20 UNL     1      72.216  70.311  17.213  1.00  0.00     0.029 C 
HETATM   22  C21 UNL     1      70.883  69.659  17.521  1.00  0.00     0.029 C 
HETATM   23  C22 UNL     1      70.656  68.464  16.639  1.00  0.00     0.232 C 
HETATM   24  N5  UNL     1      71.897  67.827  16.328  1.00  0.00    -0.075 N 
ATOM     25  H51 UNL     1      72.672  68.489  16.335  1.00  0.00     0.277 HD
ATOM     26  H52 UNL     1      71.941  67.547  15.348  1.00  0.00     0.277 HD
HETATM   27  C23 UNL     1      72.142  66.710  17.213  1.00  0.00     0.232 C 
HETATM   28  C24 UNL     1      73.362  65.978  16.696  1.00  0.00     0.036 C 
HETATM   29  C25 UNL     1      73.975  65.129  17.788  1.00  0.00     0.105 C 
HETATM   30  C26 UNL     1      74.232  63.738  17.341  1.00  0.00     0.219 C 
HETATM   31  O4  UNL     1      74.100  62.815  18.186  1.00  0.00    -0.273 OA
ENDROOT
BRANCH   8  32
HETATM   32  C5  UNL     1      78.102  64.667  11.401  1.00  0.00     0.025 C 
BRANCH  32  33
HETATM   33  C6  UNL     1      79.474  64.061  11.197  1.00  0.00     0.002 C 
BRANCH  33  34
HETATM   34  C7  UNL     1      80.354  64.125  12.408  1.00  0.00     0.002 C 
BRANCH  34  35
HETATM   35  C8  UNL     1      81.061  62.845  12.734  1.00  0.00     0.028 C 
BRANCH  35  36
HETATM   36  C9  UNL     1      80.253  61.763  13.338  1.00  0.00     0.236 C 
BRANCH  36  37
HETATM   37  N3  UNL     1      79.950  60.630  12.534  1.00  0.00    -0.079 N 
HETATM   38  C10 UNL     1      80.756  60.463  11.361  1.00  0.00     0.271 C 
HETATM   39  C11 UNL     1      80.257  59.442  13.377  1.00  0.00     0.271 C 
HETATM   40  C12 UNL     1      78.558  60.496  12.162  1.00  0.00     0.271 C 
ENDBRANCH  36  37
ENDBRANCH  35  36
ENDBRANCH  34  35
ENDBRANCH  33  34
ENDBRANCH  32  33
ENDBRANCH   8  32
TORSDOF 6
ENDMDL
MODEL 2
REMARK VINA RESULT: -5.543062317      1.646      2.203
REMARK  6 active torsions:
REMARK  status: ('A' for Active; 'I' for Inactive)
REMARK    1  A    between atoms: C4_8  and  C5_9 
REMARK    2  A    between atoms: C5_9  and  C6_10 
REMARK    3  A    between atoms: C6_10  and  C7_11 
REMARK    4  A    between atoms: C7_11  and  C8_12 
REMARK    5  A    between atoms: C8_12  and  C9_13 
REMARK    6  A    between atoms: C9_13  and  N3_14 
ROOT
HETATM    1  C1  UNL     1      73.669  62.038  15.030  1.00  0.00     0.153 C 
HETATM    2  N1  UNL     1      73.930  63.023  16.064  1.00  0.00    -0.348 N 
HETATM    3  C2  UNL     1      74.773  64.161  15.707  1.00  0.00     0.227 C 
HETATM    4  C3  UNL     1      75.976  63.690  14.974  1.00  0.00     0.235 C 
HETATM    5  O1  UNL     1      76.397  62.530  15.314  1.00  0.00    -0.272 OA
HETATM    6  N2  UNL     1      76.658  64.405  13.972  1.00  0.00    -0.355 N 
ATOM      7  H2  UNL     1      76.892  63.892  13.123  1.00  0.00     0.162 HD
HETATM    8  C4  UNL     1      77.059  65.787  14.024  1.00  0.00     0.086 C 
HETATM    9  C13 UNL     1      75.888  66.706  14.353  1.00  0.00     0.051 C 
HETATM   10  C14 UNL     1      76.342  68.146  14.105  1.00  0.00     0.169 C 
HETATM   11  O2  UNL     1      75.515  68.972  14.902  1.00  0.00    -0.389 OA
HETATM   12  C15 UNL     1      75.707  70.304  14.526  1.00  0.00     0.193 C 
HETATM   13  C16 UNL     1      75.166  71.202  15.612  1.00  0.00     0.193 C 
HETATM   14  O3  UNL     1      73.776  71.326  15.528  1.00  0.00    -0.387 OA
HETATM   15  C17 UNL     1      73.291  71.530  16.825  1.00  0.00     0.195 C 
HETATM   16  C18 UNL     1      71.813  71.290  16.927  1.00  0.00     0.258 C 
HETATM   17  N4  UNL     1      71.560  69.932  17.370  1.00  0.00    -0.073 N 
ATOM     18  H41 UNL     1      72.357  69.539  17.870  1.00  0.00     0.277 HD
ATOM     19  H42 UNL     1      71.533  69.274  16.591  1.00  0.00     0.277 HD
HETATM   20  C19 UNL     1      70.340  69.888  18.164  1.00  0.00     0.232 C 
HETATM   21  C20 UNL     1      70.366  68.752  19.151  1.00  0.00     0.029 C 
HETATM   22  C21 UNL     1      69.127  67.888  19.016  1.00  0.00     0.029 C 
HETATM   23  C22 UNL     1      69.182  67.068  17.758  1.00  0.00     0.232 C 
HETATM   24  N5  UNL     1      70.532  66.726  17.440  1.00  0.00    -0.075 N 
ATOM     25  H51 UNL     1      71.189  67.425  17.787  1.00  0.00     0.277 HD
ATOM     26  H52 UNL     1      70.719  66.821  16.442  1.00  0.00     0.277 HD
HETATM   27  C23 UNL     1      70.858  65.403  17.920  1.00  0.00     0.232 C 
HETATM   28  C24 UNL     1      72.224  65.043  17.375  1.00  0.00     0.036 C 
HETATM   29  C25 UNL     1      72.848  63.935  18.194  1.00  0.00     0.105 C 
HETATM   30  C26 UNL     1      73.365  62.833  17.347  1.00  0.00     0.219 C 
HETATM   31  O4  UNL     1      73.294  61.660  17.799  1.00  0.00    -0.273 OA
ENDROOT
BRANCH   8  32
HETATM   32  C5  UNL     1      77.625  66.241  12.726  1.00  0.00     0.025 C 
BRANCH  32  33
HETATM   33  C6  UNL     1      79.125  66.068  12.611  1.00  0.00     0.002 C 
BRANCH  33  34
HETATM   34  C7  UNL     1      79.539  64.876  11.802  1.00  0.00     0.002 C 
BRANCH  34  35
HETATM   35  C8  UNL     1      80.478  63.942  12.503  1.00  0.00     0.028 C 
BRANCH  35  36
HETATM   36  C9  UNL     1      80.425  62.516  12.114  1.00  0.00     0.236 C 
BRANCH  36  37
HETATM   37  N3  UNL     1      79.771  61.609  12.993  1.00  0.00    -0.079 N 
HETATM   38  C10 UNL     1      80.442  60.363  13.218  1.00  0.00     0.271 C 
HETATM   39  C11 UNL     1      79.755  62.276  14.324  1.00  0.00     0.271 C 
HETATM   40  C12 UNL     1      78.386  61.337  12.675  1.00  0.00     0.271 C 
ENDBRANCH  36  37
ENDBRANCH  35  36
ENDBRANCH  34  35
ENDBRANCH  33  34
ENDBRANCH  32  33
ENDBRANCH   8  32
TORSDOF 6
ENDMDL
MODEL 3
REMARK VINA RESULT: -5.532161077      2.060      2.648
REMARK  6 active torsions:
REMARK  status: ('A' for Active; 'I' for Inactive)
REMARK    1  A    between atoms: C4_8  and  C5_9 
REMARK    2  A    between atoms: C5_9  and  C6_10 
REMARK    3  A    between atoms: C6_10  and  C7_11 
REMARK    4  A    between atoms: C7_11  and  C8_12 
REMARK    5  A    between atoms: C8_12  and  C9_13 
REMARK    6  A    between atoms: C9_13  and  N3_14 
ROOT
HETATM    1  C1  UNL     1      74.287  62.559  15.165  1.00  0.00     0.153 C 
HETATM    2  N1  UNL     1      74.971  63.780  15.548  1.00  0.00    -0.348 N 
HETATM    3  C2  UNL     1      76.112  64.192  14.734  1.00  0.00     0.227 C 
HETATM    4  C3  UNL     1      77.002  63.030  14.483  1.00  0.00     0.235 C 
HETATM    5  O1  UNL     1      77.033  62.160  15.421  1.00  0.00    -0.272 OA
HETATM    6  N2  UNL     1      77.782  62.829  13.329  1.00  0.00    -0.355 N 
ATOM      7  H2  UNL     1      77.740  61.903  12.903  1.00  0.00     0.162 HD
HETATM    8  C4  UNL     1      78.634  63.796  12.688  1.00  0.00     0.086 C 
HETATM    9  C13 UNL     1      77.887  65.085  12.366  1.00  0.00     0.051 C 
HETATM   10  C14 UNL     1      78.778  65.922  11.446  1.00  0.00     0.169 C 
HETATM   11  O2  UNL     1      78.368  67.267  11.603  1.00  0.00    -0.389 OA
HETATM   12  C15 UNL     1      78.965  68.043  10.605  1.00  0.00     0.193 C 
HETATM   13  C16 UNL     1      78.876  69.498  10.998  1.00  0.00     0.193 C 
HETATM   14  O3  UNL     1      77.610  70.025  10.722  1.00  0.00    -0.387 OA
HETATM   15  C17 UNL     1      77.358  71.030  11.662  1.00  0.00     0.195 C 
HETATM   16  C18 UNL     1      75.905  71.402  11.725  1.00  0.00     0.258 C 
HETATM   17  N4  UNL     1      75.249  70.662  12.787  1.00  0.00    -0.073 N 
ATOM     18  H41 UNL     1      75.910  70.346  13.496  1.00  0.00     0.277 HD
ATOM     19  H42 UNL     1      74.921  69.750  12.471  1.00  0.00     0.277 HD
HETATM   20  C19 UNL     1      74.174  71.462  13.359  1.00  0.00     0.232 C 
HETATM   21  C20 UNL     1      73.910  71.085  14.792  1.00  0.00     0.029 C 
HETATM   22  C21 UNL     1      72.444  70.764  15.006  1.00  0.00     0.029 C 
HETATM   23  C22 UNL     1      72.088  69.446  14.378  1.00  0.00     0.232 C 
HETATM   24  N5  UNL     1      73.201  68.551  14.425  1.00  0.00    -0.075 N 
ATOM     25  H51 UNL     1      74.089  69.053  14.418  1.00  0.00     0.277 HD
ATOM     26  H52 UNL     1      73.307  68.037  13.550  1.00  0.00     0.277 HD
HETATM   27  C23 UNL     1      73.101  67.660  15.558  1.00  0.00     0.232 C 
HETATM   28  C24 UNL     1      74.200  66.627  15.424  1.00  0.00     0.036 C 
HETATM   29  C25 UNL     1      74.487  65.979  16.761  1.00  0.00     0.105 C 
HETATM   30  C26 UNL     1      74.508  64.498  16.675  1.00  0.00     0.219 C 
HETATM   31  O4  UNL     1      74.087  63.846  17.665  1.00  0.00    -0.273 OA
ENDROOT
BRANCH   8  32
HETATM   32  C5  UNL     1      79.188  63.275  11.410  1.00  0.00     0.025 C 
BRANCH  32  33
HETATM   33  C6  UNL     1      80.503  62.541  11.558  1.00  0.00     0.002 C 
BRANCH  33  34
HETATM   34  C7  UNL     1      81.243  62.866  12.820  1.00  0.00     0.002 C 
BRANCH  34  35
HETATM   35  C8  UNL     1      81.796  61.676  13.543  1.00  0.00     0.028 C 
BRANCH  35  36
HETATM   36  C9  UNL     1      83.183  61.777  14.048  1.00  0.00     0.236 C 
BRANCH  36  37
HETATM   37  N3  UNL     1      84.091  60.736  13.713  1.00  0.00    -0.079 N 
HETATM   38  C10 UNL     1      84.983  60.326  14.758  1.00  0.00     0.271 C 
HETATM   39  C11 UNL     1      83.251  59.537  13.442  1.00  0.00     0.271 C 
HETATM   40  C12 UNL     1      84.861  60.956  12.508  1.00  0.00     0.271 C 
ENDBRANCH  36  37
ENDBRANCH  35  36
ENDBRANCH  34  35
ENDBRANCH  33  34
ENDBRANCH  32  33
ENDBRANCH   8  32
TORSDOF 6
ENDMDL
MODEL 4
REMARK VINA RESULT: -5.398682158      2.307      3.514
REMARK  6 active torsions:
REMARK  status: ('A' for Active; 'I' for Inactive)
REMARK    1  A    between atoms: C4_8  and  C5_9 
REMARK    2  A    between atoms: C5_9  and  C6_10 
REMARK    3  A    between atoms: C6_10  and  C7_11 
REMARK    4  A    between atoms: C7_11  and  C8_12 
REMARK    5  A    between atoms: C8_12  and  C9_13 
REMARK    6  A    between atoms: C9_13  and  N3_14 
ROOT
HETATM    1  C1  UNL     1      73.181  63.579  16.081  1.00  0.00     0.153 C 
HETATM    2  N1  UNL     1      74.111  64.685  16.219  1.00  0.00    -0.348 N 
HETATM    3  C2  UNL     1      75.368  64.599  15.480  1.00  0.00     0.227 C 
HETATM    4  C3  UNL     1      75.969  63.252  15.656  1.00  0.00     0.235 C 
HETATM    5  O1  UNL     1      75.730  62.696  16.784  1.00  0.00    -0.272 OA
HETATM    6  N2  UNL     1      76.753  62.574  14.704  1.00  0.00    -0.355 N 
ATOM      7  H2  UNL     1      76.518  61.596  14.532  1.00  0.00     0.162 HD
HETATM    8  C4  UNL     1      77.851  63.118  13.950  1.00  0.00     0.086 C 
HETATM    9  C13 UNL     1      77.456  64.391  13.211  1.00  0.00     0.051 C 
HETATM   10  C14 UNL     1      78.580  64.727  12.228  1.00  0.00     0.169 C 
HETATM   11  O2  UNL     1      78.494  66.116  11.976  1.00  0.00    -0.389 OA
HETATM   12  C15 UNL     1      79.323  66.434  10.897  1.00  0.00     0.193 C 
HETATM   13  C16 UNL     1      79.558  67.926  10.884  1.00  0.00     0.193 C 
HETATM   14  O3  UNL     1      78.476  68.609  10.321  1.00  0.00    -0.387 OA
HETATM   15  C17 UNL     1      78.410  69.868  10.927  1.00  0.00     0.195 C 
HETATM   16  C18 UNL     1      77.087  70.541  10.704  1.00  0.00     0.258 C 
HETATM   17  N4  UNL     1      76.205  70.287  11.827  1.00  0.00    -0.073 N 
ATOM     18  H41 UNL     1      76.723  70.051  12.674  1.00  0.00     0.277 HD
ATOM     19  H42 UNL     1      75.690  69.414  11.720  1.00  0.00     0.277 HD
HETATM   20  C19 UNL     1      75.317  71.424  12.029  1.00  0.00     0.232 C 
HETATM   21  C20 UNL     1      74.877  71.532  13.465  1.00  0.00     0.029 C 
HETATM   22  C21 UNL     1      73.365  71.602  13.564  1.00  0.00     0.029 C 
HETATM   23  C22 UNL     1      72.747  70.267  13.259  1.00  0.00     0.232 C 
HETATM   24  N5  UNL     1      73.609  69.207  13.679  1.00  0.00    -0.075 N 
ATOM     25  H51 UNL     1      74.589  69.487  13.657  1.00  0.00     0.277 HD
ATOM     26  H52 UNL     1      73.647  68.457  12.989  1.00  0.00     0.277 HD
HETATM   27  C23 UNL     1      73.225  68.714  14.982  1.00  0.00     0.232 C 
HETATM   28  C24 UNL     1      74.052  67.476  15.263  1.00  0.00     0.036 C 
HETATM   29  C25 UNL     1      74.087  67.186  16.748  1.00  0.00     0.105 C 
HETATM   30  C26 UNL     1      73.760  65.772  17.052  1.00  0.00     0.219 C 
HETATM   31  O4  UNL     1      73.130  65.530  18.115  1.00  0.00    -0.273 OA
ENDROOT
BRANCH   8  32
HETATM   32  C5  UNL     1      78.347  62.153  12.933  1.00  0.00     0.025 C 
BRANCH  32  33
HETATM   33  C6  UNL     1      79.519  61.314  13.395  1.00  0.00     0.002 C 
BRANCH  33  34
HETATM   34  C7  UNL     1      80.650  62.112  13.970  1.00  0.00     0.002 C 
BRANCH  34  35
HETATM   35  C8  UNL     1      81.952  61.960  13.244  1.00  0.00     0.028 C 
BRANCH  35  36
HETATM   36  C9  UNL     1      83.156  61.710  14.066  1.00  0.00     0.236 C 
BRANCH  36  37
HETATM   37  N3  UNL     1      83.948  60.569  13.759  1.00  0.00    -0.079 N 
HETATM   38  C10 UNL     1      83.224  59.385  13.401  1.00  0.00     0.271 C 
HETATM   39  C11 UNL     1      84.716  60.927  12.535  1.00  0.00     0.271 C 
HETATM   40  C12 UNL     1      84.938  60.221  14.756  1.00  0.00     0.271 C 
ENDBRANCH  36  37
ENDBRANCH  35  36
ENDBRANCH  34  35
ENDBRANCH  33  34
ENDBRANCH  32  33
ENDBRANCH   8  32
TORSDOF 6
ENDMDL
MODEL 5
REMARK VINA RESULT: -5.361305223      5.245     13.205
REMARK  6 active torsions:
REMARK  status: ('A' for Active; 'I' for Inactive)
REMARK    1  A    between atoms: C4_8  and  C5_9 
REMARK    2  A    between atoms: C5_9  and  C6_10 
REMARK    3  A    between atoms: C6_10  and  C7_11 
REMARK    4  A    between atoms: C7_11  and  C8_12 
REMARK    5  A    between atoms: C8_12  and  C9_13 
REMARK    6  A    between atoms: C9_13  and  N3_14 
ROOT
HETATM    1  C1  UNL     1      85.846  61.023  11.879  1.00  0.00     0.153 C 
HETATM    2  N1  UNL     1      85.371  59.915  12.686  1.00  0.00    -0.348 N 
HETATM    3  C2  UNL     1      83.955  59.904  13.042  1.00  0.00     0.227 C 
HETATM    4  C3  UNL     1      83.543  61.248  13.523  1.00  0.00     0.235 C 
HETATM    5  O1  UNL     1      84.457  61.911  14.126  1.00  0.00    -0.272 OA
HETATM    6  N2  UNL     1      82.266  61.819  13.366  1.00  0.00    -0.355 N 
ATOM      7  H2  UNL     1      82.233  62.782  13.030  1.00  0.00     0.162 HD
HETATM    8  C4  UNL     1      81.002  61.183  13.631  1.00  0.00     0.086 C 
HETATM    9  C13 UNL     1      80.867  59.857  12.893  1.00  0.00     0.051 C 
HETATM   10  C14 UNL     1      79.409  59.408  13.003  1.00  0.00     0.169 C 
HETATM   11  O2  UNL     1      79.406  58.003  12.834  1.00  0.00    -0.389 OA
HETATM   12  C15 UNL     1      78.088  57.569  12.668  1.00  0.00     0.193 C 
HETATM   13  C16 UNL     1      78.031  56.078  12.898  1.00  0.00     0.193 C 
HETATM   14  O3  UNL     1      78.461  55.369  11.772  1.00  0.00    -0.387 OA
HETATM   15  C17 UNL     1      79.033  54.173  12.218  1.00  0.00     0.195 C 
HETATM   16  C18 UNL     1      79.870  53.512  11.163  1.00  0.00     0.258 C 
HETATM   17  N4  UNL     1      81.262  53.887  11.326  1.00  0.00    -0.073 N 
ATOM     18  H41 UNL     1      81.467  54.189  12.278  1.00  0.00     0.277 HD
ATOM     19  H42 UNL     1      81.483  54.758  10.843  1.00  0.00     0.277 HD
HETATM   20  C19 UNL     1      82.125  52.794  10.900  1.00  0.00     0.232 C 
HETATM   21  C20 UNL     1      83.450  52.828  11.614  1.00  0.00     0.029 C 
HETATM   22  C21 UNL     1      84.599  52.801  10.624  1.00  0.00     0.029 C 
HETATM   23  C22 UNL     1      84.718  54.116   9.907  1.00  0.00     0.232 C 
HETATM   24  N5  UNL     1      84.315  55.191  10.758  1.00  0.00    -0.075 N 
ATOM     25  H51 UNL     1      83.625  54.887  11.446  1.00  0.00     0.277 HD
ATOM     26  H52 UNL     1      83.745  55.873  10.258  1.00  0.00     0.277 HD
HETATM   27  C23 UNL     1      85.459  55.810  11.387  1.00  0.00     0.232 C 
HETATM   28  C24 UNL     1      84.969  57.049  12.106  1.00  0.00     0.036 C 
HETATM   29  C25 UNL     1      85.958  57.473  13.169  1.00  0.00     0.105 C 
HETATM   30  C26 UNL     1      86.291  58.916  13.083  1.00  0.00     0.219 C 
HETATM   31  O4  UNL     1      87.462  59.269  13.382  1.00  0.00    -0.273 OA
ENDROOT
BRANCH   8  32
HETATM   32  C5  UNL     1      79.861  62.040  13.210  1.00  0.00     0.025 C 
BRANCH  32  33
HETATM   33  C6  UNL     1      80.267  63.407  12.704  1.00  0.00     0.002 C 
BRANCH  33  34
HETATM   34  C7  UNL     1      79.782  63.713  11.320  1.00  0.00     0.002 C 
BRANCH  34  35
HETATM   35  C8  UNL     1      79.067  65.023  11.185  1.00  0.00     0.028 C 
BRANCH  35  36
HETATM   36  C9  UNL     1      78.751  65.750  12.434  1.00  0.00     0.236 C 
BRANCH  36  37
HETATM   37  N3  UNL     1      77.382  65.885  12.798  1.00  0.00    -0.079 N 
HETATM   38  C10 UNL     1      77.072  66.987  13.661  1.00  0.00     0.271 C 
HETATM   39  C11 UNL     1      76.654  66.178  11.533  1.00  0.00     0.271 C 
HETATM   40  C12 UNL     1      76.770  64.689  13.336  1.00  0.00     0.271 C 
ENDBRANCH  36  37
ENDBRANCH  35  36
ENDBRANCH  34  35
ENDBRANCH  33  34
ENDBRANCH  32  33
ENDBRANCH   8  32
TORSDOF 6
ENDMDL
