MODEL 1
REMARK VINA RESULT: -8.870604805      0.000      0.000
REMARK  16 active torsions:
REMARK  status: ('A' for Active; 'I' for Inactive)
REMARK    1  A    between atoms: C4_4  and  C5_5 
REMARK    2  A    between atoms: C5_5  and  C6_6 
REMARK    3  A    between atoms: C6_6  and  C7_7 
REMARK    4  A    between atoms: C9_9  and  C10_10 
REMARK    5  A    between atoms: C10_10  and  C11_11 
REMARK    6  A    between atoms: C11_11  and  C12_12 
REMARK    7  A    between atoms: C14_14  and  C15_15 
REMARK    8  A    between atoms: C15_15  and  C16_16 
REMARK    9  A    between atoms: C16_16  and  C17_17 
REMARK   10  A    between atoms: C17_17  and  C26_29 
REMARK   11  A    between atoms: C18_18  and  C19_19 
REMARK   12  A    between atoms: C19_19  and  C20_20 
REMARK   13  A    between atoms: C20_20  and  O1_21 
REMARK   14  A    between atoms: C26_29  and  O3_30 
REMARK   15  A    between atoms: O3_30  and  C27_31 
REMARK   16  A    between atoms: C27_31  and  C28_33 
ROOT
HETATM    1  C17 UNL     1      14.550  17.777  10.372  1.00  0.00    -0.039 C 
HETATM    2  C18 UNL     1      15.201  18.893  10.083  1.00  0.00    -0.012 C 
ENDROOT
BRANCH   1   3
HETATM    3  C16 UNL     1      15.165  16.878  11.372  1.00  0.00     0.044 C 
BRANCH   3   4
HETATM    4  C15 UNL     1      16.091  17.524  12.363  1.00  0.00     0.032 C 
BRANCH   4   5
HETATM    5  C14 UNL     1      16.624  16.438  13.218  1.00  0.00    -0.024 C 
HETATM    6  C12 UNL     1      16.253  16.184  14.443  1.00  0.00    -0.087 C 
HETATM    7  C13 UNL     1      16.967  15.060  15.159  1.00  0.00     0.043 C 
BRANCH   6   8
HETATM    8  C11 UNL     1      15.246  16.948  15.157  1.00  0.00     0.037 C 
BRANCH   8   9
HETATM    9  C10 UNL     1      13.940  16.266  15.391  1.00  0.00     0.031 C 
BRANCH   9  10
HETATM   10  C9  UNL     1      13.106  16.086  14.214  1.00  0.00    -0.024 C 
HETATM   11  C7  UNL     1      12.628  14.934  13.811  1.00  0.00    -0.087 C 
HETATM   12  C8  UNL     1      11.824  14.958  12.538  1.00  0.00     0.043 C 
BRANCH  11  13
HETATM   13  C6  UNL     1      12.871  13.671  14.489  1.00  0.00     0.037 C 
BRANCH  13  14
HETATM   14  C5  UNL     1      11.679  12.832  14.760  1.00  0.00     0.031 C 
BRANCH  14  15
HETATM   15  C4  UNL     1      10.846  13.157  15.918  1.00  0.00    -0.024 C 
HETATM   16  C2  UNL     1       9.537  13.307  15.760  1.00  0.00    -0.091 C 
HETATM   17  C1  UNL     1       8.925  13.150  14.433  1.00  0.00     0.042 C 
HETATM   18  C3  UNL     1       8.697  13.635  16.932  1.00  0.00     0.042 C 
ENDBRANCH  14  15
ENDBRANCH  13  14
ENDBRANCH  11  13
ENDBRANCH   9  10
ENDBRANCH   8   9
ENDBRANCH   6   8
ENDBRANCH   4   5
ENDBRANCH   3   4
ENDBRANCH   1   3
BRANCH   1  19
HETATM   19  C26 UNL     1      13.324  17.379   9.710  1.00  0.00     0.152 C 
BRANCH  19  20
HETATM   20  O3  UNL     1      12.113  17.886  10.098  1.00  0.00    -0.285 OA
BRANCH  20  21
HETATM   21  C27 UNL     1      10.931  18.020   9.442  1.00  0.00     0.325 C 
HETATM   22  O4  UNL     1      10.300  19.078   9.547  1.00  0.00    -0.256 OA
BRANCH  21  23
HETATM   23  C28 UNL     1      10.417  16.942   8.632  1.00  0.00     0.341 C 
HETATM   24  O5  UNL     1      10.435  16.943   7.375  1.00  0.00    -0.296 OA
ENDBRANCH  21  23
ENDBRANCH  20  21
ENDBRANCH  19  20
ENDBRANCH   1  19
BRANCH   2  25
HETATM   25  C19 UNL     1      14.804  19.944   9.134  1.00  0.00     0.097 C 
BRANCH  25  26
HETATM   26  C20 UNL     1      14.352  21.196   9.871  1.00  0.00     0.171 C 
HETATM   27  O2  UNL     1      13.065  21.038  10.295  1.00  0.00    -0.354 OA
HETATM   28  C21 UNL     1      12.265  22.060   9.878  1.00  0.00     0.172 C 
HETATM   29  C22 UNL     1      12.962  22.677   8.670  1.00  0.00     0.040 C 
HETATM   30  C23 UNL     1      14.390  22.393   9.011  1.00  0.00     0.011 C 
HETATM   31  C24 UNL     1      15.266  22.247   7.788  1.00  0.00     0.020 C 
HETATM   32  C25 UNL     1      14.875  23.568   9.871  1.00  0.00     0.020 C 
BRANCH  26  33
HETATM   33  O1  UNL     1      15.205  21.311  10.991  1.00  0.00    -0.364 OA
ATOM     34  H1  UNL     1      15.176  22.226  11.244  1.00  0.00     0.213 HD
ENDBRANCH  26  33
ENDBRANCH  25  26
ENDBRANCH   2  25
TORSDOF 16
ENDMDL
MODEL 2
REMARK VINA RESULT: -8.446863844      1.401      1.973
REMARK  16 active torsions:
REMARK  status: ('A' for Active; 'I' for Inactive)
REMARK    1  A    between atoms: C4_4  and  C5_5 
REMARK    2  A    between atoms: C5_5  and  C6_6 
REMARK    3  A    between atoms: C6_6  and  C7_7 
REMARK    4  A    between atoms: C9_9  and  C10_10 
REMARK    5  A    between atoms: C10_10  and  C11_11 
REMARK    6  A    between atoms: C11_11  and  C12_12 
REMARK    7  A    between atoms: C14_14  and  C15_15 
REMARK    8  A    between atoms: C15_15  and  C16_16 
REMARK    9  A    between atoms: C16_16  and  C17_17 
REMARK   10  A    between atoms: C17_17  and  C26_29 
REMARK   11  A    between atoms: C18_18  and  C19_19 
REMARK   12  A    between atoms: C19_19  and  C20_20 
REMARK   13  A    between atoms: C20_20  and  O1_21 
REMARK   14  A    between atoms: C26_29  and  O3_30 
REMARK   15  A    between atoms: O3_30  and  C27_31 
REMARK   16  A    between atoms: C27_31  and  C28_33 
ROOT
HETATM    1  C17 UNL     1      15.924  19.101  10.132  1.00  0.00    -0.039 C 
HETATM    2  C18 UNL     1      16.781  19.771   9.377  1.00  0.00    -0.012 C 
ENDROOT
BRANCH   1   3
HETATM    3  C16 UNL     1      16.476  18.033  10.992  1.00  0.00     0.044 C 
BRANCH   3   4
HETATM    4  C15 UNL     1      16.003  18.019  12.418  1.00  0.00     0.032 C 
BRANCH   4   5
HETATM    5  C14 UNL     1      16.397  16.708  12.984  1.00  0.00    -0.024 C 
HETATM    6  C12 UNL     1      16.016  16.234  14.138  1.00  0.00    -0.087 C 
HETATM    7  C13 UNL     1      16.581  14.894  14.551  1.00  0.00     0.043 C 
BRANCH   6   8
HETATM    8  C11 UNL     1      15.134  16.940  15.050  1.00  0.00     0.037 C 
BRANCH   8   9
HETATM    9  C10 UNL     1      13.840  16.270  15.371  1.00  0.00     0.031 C 
BRANCH   9  10
HETATM   10  C9  UNL     1      12.982  15.984  14.233  1.00  0.00    -0.024 C 
HETATM   11  C7  UNL     1      12.462  14.810  13.971  1.00  0.00    -0.087 C 
HETATM   12  C8  UNL     1      11.639  14.714  12.713  1.00  0.00     0.043 C 
BRANCH  11  13
HETATM   13  C6  UNL     1      12.677  13.625  14.787  1.00  0.00     0.037 C 
BRANCH  13  14
HETATM   14  C5  UNL     1      11.484  12.784  15.049  1.00  0.00     0.031 C 
BRANCH  14  15
HETATM   15  C4  UNL     1      10.638  13.113  16.196  1.00  0.00    -0.024 C 
HETATM   16  C2  UNL     1       9.343  13.341  16.009  1.00  0.00    -0.091 C 
HETATM   17  C1  UNL     1       8.762  13.266  14.662  1.00  0.00     0.042 C 
HETATM   18  C3  UNL     1       8.490  13.674  17.170  1.00  0.00     0.042 C 
ENDBRANCH  14  15
ENDBRANCH  13  14
ENDBRANCH  11  13
ENDBRANCH   9  10
ENDBRANCH   8   9
ENDBRANCH   6   8
ENDBRANCH   4   5
ENDBRANCH   3   4
ENDBRANCH   1   3
BRANCH   1  19
HETATM   19  C26 UNL     1      14.492  19.322  10.093  1.00  0.00     0.152 C 
BRANCH  19  20
HETATM   20  O3  UNL     1      13.669  18.504   9.366  1.00  0.00    -0.285 OA
BRANCH  20  21
HETATM   21  C27 UNL     1      12.880  17.457   9.722  1.00  0.00     0.325 C 
HETATM   22  O4  UNL     1      13.357  16.553  10.416  1.00  0.00    -0.256 OA
BRANCH  21  23
HETATM   23  C28 UNL     1      11.502  17.402   9.298  1.00  0.00     0.341 C 
HETATM   24  O5  UNL     1      10.822  18.416   8.998  1.00  0.00    -0.296 OA
ENDBRANCH  21  23
ENDBRANCH  20  21
ENDBRANCH  19  20
ENDBRANCH   1  19
BRANCH   2  25
HETATM   25  C19 UNL     1      16.489  20.871   8.445  1.00  0.00     0.097 C 
BRANCH  25  26
HETATM   26  C20 UNL     1      16.752  22.220   9.099  1.00  0.00     0.171 C 
HETATM   27  O2  UNL     1      15.643  22.619   9.785  1.00  0.00    -0.354 OA
HETATM   28  C21 UNL     1      15.240  23.867   9.414  1.00  0.00     0.172 C 
HETATM   29  C22 UNL     1      15.825  24.105   8.026  1.00  0.00     0.040 C 
HETATM   30  C23 UNL     1      17.061  23.267   8.109  1.00  0.00     0.011 C 
HETATM   31  C24 UNL     1      17.499  22.736   6.764  1.00  0.00     0.020 C 
HETATM   32  C25 UNL     1      18.156  24.163   8.706  1.00  0.00     0.020 C 
BRANCH  26  33
HETATM   33  O1  UNL     1      17.815  22.005  10.005  1.00  0.00    -0.364 OA
ATOM     34  H1  UNL     1      17.647  22.583  10.740  1.00  0.00     0.213 HD
ENDBRANCH  26  33
ENDBRANCH  25  26
ENDBRANCH   2  25
TORSDOF 16
ENDMDL
MODEL 3
REMARK VINA RESULT: -8.414171451      3.378      9.250
REMARK  16 active torsions:
REMARK  status: ('A' for Active; 'I' for Inactive)
REMARK    1  A    between atoms: C4_4  and  C5_5 
REMARK    2  A    between atoms: C5_5  and  C6_6 
REMARK    3  A    between atoms: C6_6  and  C7_7 
REMARK    4  A    between atoms: C9_9  and  C10_10 
REMARK    5  A    between atoms: C10_10  and  C11_11 
REMARK    6  A    between atoms: C11_11  and  C12_12 
REMARK    7  A    between atoms: C14_14  and  C15_15 
REMARK    8  A    between atoms: C15_15  and  C16_16 
REMARK    9  A    between atoms: C16_16  and  C17_17 
REMARK   10  A    between atoms: C17_17  and  C26_29 
REMARK   11  A    between atoms: C18_18  and  C19_19 
REMARK   12  A    between atoms: C19_19  and  C20_20 
REMARK   13  A    between atoms: C20_20  and  O1_21 
REMARK   14  A    between atoms: C26_29  and  O3_30 
REMARK   15  A    between atoms: O3_30  and  C27_31 
REMARK   16  A    between atoms: C27_31  and  C28_33 
ROOT
HETATM    1  C17 UNL     1      12.623  19.459   9.732  1.00  0.00    -0.039 C 
HETATM    2  C18 UNL     1      13.947  19.453   9.706  1.00  0.00    -0.012 C 
ENDROOT
BRANCH   1   3
HETATM    3  C16 UNL     1      11.961  20.756   9.987  1.00  0.00     0.044 C 
BRANCH   3   4
HETATM    4  C15 UNL     1      12.831  21.847  10.543  1.00  0.00     0.032 C 
BRANCH   4   5
HETATM    5  C14 UNL     1      12.163  23.130  10.221  1.00  0.00    -0.024 C 
HETATM    6  C12 UNL     1      12.762  24.275  10.045  1.00  0.00    -0.087 C 
HETATM    7  C13 UNL     1      11.885  25.477   9.778  1.00  0.00     0.043 C 
BRANCH   6   8
HETATM    8  C11 UNL     1      14.199  24.458  10.143  1.00  0.00     0.037 C 
BRANCH   8   9
HETATM    9  C10 UNL     1      14.968  24.357   8.868  1.00  0.00     0.031 C 
BRANCH   9  10
HETATM   10  C9  UNL     1      15.309  23.009   8.446  1.00  0.00    -0.024 C 
HETATM   11  C7  UNL     1      16.532  22.546   8.354  1.00  0.00    -0.087 C 
HETATM   12  C8  UNL     1      16.672  21.134   7.849  1.00  0.00     0.043 C 
BRANCH  11  13
HETATM   13  C6  UNL     1      17.721  23.325   8.661  1.00  0.00     0.037 C 
BRANCH  13  14
HETATM   14  C5  UNL     1      18.618  23.630   7.520  1.00  0.00     0.031 C 
BRANCH  14  15
HETATM   15  C4  UNL     1      18.500  24.937   6.873  1.00  0.00    -0.024 C 
HETATM   16  C2  UNL     1      17.898  25.030   5.694  1.00  0.00    -0.091 C 
HETATM   17  C1  UNL     1      17.353  23.832   5.040  1.00  0.00     0.042 C 
HETATM   18  C3  UNL     1      17.780  26.352   5.042  1.00  0.00     0.042 C 
ENDBRANCH  14  15
ENDBRANCH  13  14
ENDBRANCH  11  13
ENDBRANCH   9  10
ENDBRANCH   8   9
ENDBRANCH   6   8
ENDBRANCH   4   5
ENDBRANCH   3   4
ENDBRANCH   1   3
BRANCH   1  19
HETATM   19  C26 UNL     1      11.822  18.260   9.595  1.00  0.00     0.152 C 
BRANCH  19  20
HETATM   20  O3  UNL     1      10.478  18.331   9.343  1.00  0.00    -0.285 OA
BRANCH  20  21
HETATM   21  C27 UNL     1       9.416  17.674   9.876  1.00  0.00     0.325 C 
HETATM   22  O4  UNL     1       9.521  16.471  10.138  1.00  0.00    -0.256 OA
BRANCH  21  23
HETATM   23  C28 UNL     1       8.178  18.371  10.136  1.00  0.00     0.341 C 
HETATM   24  O5  UNL     1       8.113  19.489  10.706  1.00  0.00    -0.296 OA
ENDBRANCH  21  23
ENDBRANCH  20  21
ENDBRANCH  19  20
ENDBRANCH   1  19
BRANCH   2  25
HETATM   25  C19 UNL     1      14.836  18.305   9.471  1.00  0.00     0.097 C 
BRANCH  25  26
HETATM   26  C20 UNL     1      15.958  18.269  10.499  1.00  0.00     0.171 C 
HETATM   27  O2  UNL     1      17.161  18.219   9.860  1.00  0.00    -0.354 OA
HETATM   28  C21 UNL     1      17.921  17.173  10.292  1.00  0.00     0.172 C 
HETATM   29  C22 UNL     1      16.949  16.166  10.897  1.00  0.00     0.040 C 
HETATM   30  C23 UNL     1      15.872  17.087  11.375  1.00  0.00     0.011 C 
HETATM   31  C24 UNL     1      14.511  16.432  11.399  1.00  0.00     0.020 C 
HETATM   32  C25 UNL     1      16.271  17.527  12.791  1.00  0.00     0.020 C 
BRANCH  26  33
HETATM   33  O1  UNL     1      15.857  19.481  11.218  1.00  0.00    -0.364 OA
ATOM     34  H1  UNL     1      16.303  19.328  12.043  1.00  0.00     0.213 HD
ENDBRANCH  26  33
ENDBRANCH  25  26
ENDBRANCH   2  25
TORSDOF 16
ENDMDL
MODEL 4
REMARK VINA RESULT: -8.380271778      1.422      2.362
REMARK  16 active torsions:
REMARK  status: ('A' for Active; 'I' for Inactive)
REMARK    1  A    between atoms: C4_4  and  C5_5 
REMARK    2  A    between atoms: C5_5  and  C6_6 
REMARK    3  A    between atoms: C6_6  and  C7_7 
REMARK    4  A    between atoms: C9_9  and  C10_10 
REMARK    5  A    between atoms: C10_10  and  C11_11 
REMARK    6  A    between atoms: C11_11  and  C12_12 
REMARK    7  A    between atoms: C14_14  and  C15_15 
REMARK    8  A    between atoms: C15_15  and  C16_16 
REMARK    9  A    between atoms: C16_16  and  C17_17 
REMARK   10  A    between atoms: C17_17  and  C26_29 
REMARK   11  A    between atoms: C18_18  and  C19_19 
REMARK   12  A    between atoms: C19_19  and  C20_20 
REMARK   13  A    between atoms: C20_20  and  O1_21 
REMARK   14  A    between atoms: C26_29  and  O3_30 
REMARK   15  A    between atoms: O3_30  and  C27_31 
REMARK   16  A    between atoms: C27_31  and  C28_33 
ROOT
HETATM    1  C17 UNL     1      15.767  18.804  10.004  1.00  0.00    -0.039 C 
HETATM    2  C18 UNL     1      15.902  20.118  10.094  1.00  0.00    -0.012 C 
ENDROOT
BRANCH   1   3
HETATM    3  C16 UNL     1      16.943  18.038   9.538  1.00  0.00     0.044 C 
BRANCH   3   4
HETATM    4  C15 UNL     1      17.057  16.627  10.040  1.00  0.00     0.032 C 
BRANCH   4   5
HETATM    5  C14 UNL     1      17.844  16.684  11.294  1.00  0.00    -0.024 C 
HETATM    6  C12 UNL     1      17.403  16.374  12.482  1.00  0.00    -0.087 C 
HETATM    7  C13 UNL     1      18.360  16.556  13.639  1.00  0.00     0.043 C 
BRANCH   6   8
HETATM    8  C11 UNL     1      16.050  15.923  12.750  1.00  0.00     0.037 C 
BRANCH   8   9
HETATM    9  C10 UNL     1      15.770  15.455  14.138  1.00  0.00     0.031 C 
BRANCH   9  10
HETATM   10  C9  UNL     1      14.510  15.900  14.709  1.00  0.00    -0.024 C 
HETATM   11  C7  UNL     1      13.378  15.245  14.615  1.00  0.00    -0.087 C 
HETATM   12  C8  UNL     1      12.176  15.905  15.237  1.00  0.00     0.043 C 
BRANCH  11  13
HETATM   13  C6  UNL     1      13.229  13.977  13.920  1.00  0.00     0.037 C 
BRANCH  13  14
HETATM   14  C5  UNL     1      11.985  13.219  14.199  1.00  0.00     0.031 C 
BRANCH  14  15
HETATM   15  C4  UNL     1      11.128  12.847  13.072  1.00  0.00    -0.024 C 
HETATM   16  C2  UNL     1       9.810  12.842  13.228  1.00  0.00    -0.091 C 
HETATM   17  C1  UNL     1       9.212  13.204  14.521  1.00  0.00     0.042 C 
HETATM   18  C3  UNL     1       8.946  12.467  12.088  1.00  0.00     0.042 C 
ENDBRANCH  14  15
ENDBRANCH  13  14
ENDBRANCH  11  13
ENDBRANCH   9  10
ENDBRANCH   8   9
ENDBRANCH   6   8
ENDBRANCH   4   5
ENDBRANCH   3   4
ENDBRANCH   1   3
BRANCH   1  19
HETATM   19  C26 UNL     1      14.521  18.114  10.268  1.00  0.00     0.152 C 
BRANCH  19  20
HETATM   20  O3  UNL     1      13.519  18.079   9.336  1.00  0.00    -0.285 OA
BRANCH  20  21
HETATM   21  C27 UNL     1      12.191  18.352   9.417  1.00  0.00     0.325 C 
HETATM   22  O4  UNL     1      11.828  19.491   9.728  1.00  0.00    -0.256 OA
BRANCH  21  23
HETATM   23  C28 UNL     1      11.214  17.325   9.143  1.00  0.00     0.341 C 
HETATM   24  O5  UNL     1      10.461  17.328   8.137  1.00  0.00    -0.296 OA
ENDBRANCH  21  23
ENDBRANCH  20  21
ENDBRANCH  19  20
ENDBRANCH   1  19
BRANCH   2  25
HETATM   25  C19 UNL     1      14.892  21.096  10.529  1.00  0.00     0.097 C 
BRANCH  25  26
HETATM   26  C20 UNL     1      14.483  22.001   9.377  1.00  0.00     0.171 C 
HETATM   27  O2  UNL     1      15.595  22.551   8.810  1.00  0.00    -0.354 OA
HETATM   28  C21 UNL     1      15.514  23.910   8.750  1.00  0.00     0.172 C 
HETATM   29  C22 UNL     1      14.496  24.321   9.808  1.00  0.00     0.040 C 
HETATM   30  C23 UNL     1      13.619  23.110   9.820  1.00  0.00     0.011 C 
HETATM   31  C24 UNL     1      12.956  22.880  11.159  1.00  0.00     0.020 C 
HETATM   32  C25 UNL     1      12.554  23.332   8.736  1.00  0.00     0.020 C 
BRANCH  26  33
HETATM   33  O1  UNL     1      13.843  21.162   8.438  1.00  0.00    -0.364 OA
ATOM     34  H1  UNL     1      14.539  20.788   7.911  1.00  0.00     0.213 HD
ENDBRANCH  26  33
ENDBRANCH  25  26
ENDBRANCH   2  25
TORSDOF 16
ENDMDL
MODEL 5
REMARK VINA RESULT: -8.339458631      1.569      3.337
REMARK  16 active torsions:
REMARK  status: ('A' for Active; 'I' for Inactive)
REMARK    1  A    between atoms: C4_4  and  C5_5 
REMARK    2  A    between atoms: C5_5  and  C6_6 
REMARK    3  A    between atoms: C6_6  and  C7_7 
REMARK    4  A    between atoms: C9_9  and  C10_10 
REMARK    5  A    between atoms: C10_10  and  C11_11 
REMARK    6  A    between atoms: C11_11  and  C12_12 
REMARK    7  A    between atoms: C14_14  and  C15_15 
REMARK    8  A    between atoms: C15_15  and  C16_16 
REMARK    9  A    between atoms: C16_16  and  C17_17 
REMARK   10  A    between atoms: C17_17  and  C26_29 
REMARK   11  A    between atoms: C18_18  and  C19_19 
REMARK   12  A    between atoms: C19_19  and  C20_20 
REMARK   13  A    between atoms: C20_20  and  O1_21 
REMARK   14  A    between atoms: C26_29  and  O3_30 
REMARK   15  A    between atoms: O3_30  and  C27_31 
REMARK   16  A    between atoms: C27_31  and  C28_33 
ROOT
HETATM    1  C17 UNL     1      13.715  18.496  10.095  1.00  0.00    -0.039 C 
HETATM    2  C18 UNL     1      14.581  19.472   9.869  1.00  0.00    -0.012 C 
ENDROOT
BRANCH   1   3
HETATM    3  C16 UNL     1      14.210  17.315  10.834  1.00  0.00     0.044 C 
BRANCH   3   4
HETATM    4  C15 UNL     1      14.768  16.197  10.000  1.00  0.00     0.032 C 
BRANCH   4   5
HETATM    5  C14 UNL     1      15.979  16.728   9.332  1.00  0.00    -0.024 C 
HETATM    6  C12 UNL     1      17.206  16.569   9.745  1.00  0.00    -0.087 C 
HETATM    7  C13 UNL     1      18.295  17.243   8.941  1.00  0.00     0.043 C 
BRANCH   6   8
HETATM    8  C11 UNL     1      17.565  15.835  10.945  1.00  0.00     0.037 C 
BRANCH   8   9
HETATM    9  C10 UNL     1      17.657  16.629  12.204  1.00  0.00     0.031 C 
BRANCH   9  10
HETATM   10  C9  UNL     1      17.888  15.860  13.416  1.00  0.00    -0.024 C 
HETATM   11  C7  UNL     1      16.980  15.625  14.331  1.00  0.00    -0.087 C 
HETATM   12  C8  UNL     1      17.437  14.846  15.537  1.00  0.00     0.043 C 
BRANCH  11  13
HETATM   13  C6  UNL     1      15.610  16.107  14.259  1.00  0.00     0.037 C 
BRANCH  13  14
HETATM   14  C5  UNL     1      14.596  15.134  13.787  1.00  0.00     0.031 C 
BRANCH  14  15
HETATM   15  C4  UNL     1      13.652  14.583  14.760  1.00  0.00    -0.024 C 
HETATM   16  C2  UNL     1      12.583  13.922  14.332  1.00  0.00    -0.091 C 
HETATM   17  C1  UNL     1      12.346  13.743  12.892  1.00  0.00     0.042 C 
HETATM   18  C3  UNL     1      11.631  13.366  15.317  1.00  0.00     0.042 C 
ENDBRANCH  14  15
ENDBRANCH  13  14
ENDBRANCH  11  13
ENDBRANCH   9  10
ENDBRANCH   8   9
ENDBRANCH   6   8
ENDBRANCH   4   5
ENDBRANCH   3   4
ENDBRANCH   1   3
BRANCH   1  19
HETATM   19  C26 UNL     1      12.355  18.511   9.596  1.00  0.00     0.152 C 
BRANCH  19  20
HETATM   20  O3  UNL     1      11.886  17.510   8.787  1.00  0.00    -0.285 OA
BRANCH  20  21
HETATM   21  C27 UNL     1      10.628  17.091   8.494  1.00  0.00     0.325 C 
HETATM   22  O4  UNL     1      10.359  16.757   7.335  1.00  0.00    -0.256 OA
BRANCH  21  23
HETATM   23  C28 UNL     1       9.617  17.036   9.522  1.00  0.00     0.341 C 
HETATM   24  O5  UNL     1       9.649  16.236  10.491  1.00  0.00    -0.296 OA
ENDBRANCH  21  23
ENDBRANCH  20  21
ENDBRANCH  19  20
ENDBRANCH   1  19
BRANCH   2  25
HETATM   25  C19 UNL     1      14.340  20.741   9.166  1.00  0.00     0.097 C 
BRANCH  25  26
HETATM   26  C20 UNL     1      15.174  21.862   9.770  1.00  0.00     0.171 C 
HETATM   27  O2  UNL     1      14.353  22.758  10.389  1.00  0.00    -0.354 OA
HETATM   28  C21 UNL     1      14.566  24.030   9.946  1.00  0.00     0.172 C 
HETATM   29  C22 UNL     1      15.222  23.895   8.576  1.00  0.00     0.040 C 
HETATM   30  C23 UNL     1      15.941  22.596   8.749  1.00  0.00     0.011 C 
HETATM   31  C24 UNL     1      16.117  21.847   7.449  1.00  0.00     0.020 C 
HETATM   32  C25 UNL     1      17.312  22.935   9.352  1.00  0.00     0.020 C 
BRANCH  26  33
HETATM   33  O1  UNL     1      16.007  21.245  10.730  1.00  0.00    -0.364 OA
ATOM     34  H1  UNL     1      15.657  21.499  11.576  1.00  0.00     0.213 HD
ENDBRANCH  26  33
ENDBRANCH  25  26
ENDBRANCH   2  25
TORSDOF 16
ENDMDL
