MODEL 1
REMARK VINA RESULT: -8.100456036      0.000      0.000
REMARK  14 active torsions:
REMARK  status: ('A' for Active; 'I' for Inactive)
REMARK    1  A    between atoms: C2_2  and  C3_3 
REMARK    2  A    between atoms: C3_3  and  C4_4 
REMARK    3  A    between atoms: C3_3  and  O5_31 
REMARK    4  A    between atoms: C4_4  and  O1_5 
REMARK    5  A    between atoms: O1_5  and  C5_6 
REMARK    6  A    between atoms: C6_7  and  C7_8 
REMARK    7  A    between atoms: C6_7  and  C12_13 
REMARK    8  A    between atoms: C7_8  and  C8_9 
REMARK    9  A    between atoms: C8_9  and  C9_10 
REMARK   10  A    between atoms: C12_13  and  C14_15 
REMARK   11  A    between atoms: C14_15  and  C15_16 
REMARK   12  A    between atoms: C15_16  and  C16_17 
REMARK   13  A    between atoms: C16_17  and  C17_18 
REMARK   14  A    between atoms: C25_27  and  C26_28 
ROOT
HETATM    1  C12 UNL     1      14.341  18.501   9.985  1.00  0.00     0.012 C 
HETATM    2  C13 UNL     1      12.992  19.027   9.688  1.00  0.00     0.015 C 
ENDROOT
BRANCH   1   3
HETATM    3  C6  UNL     1      14.208  17.112  10.534  1.00  0.00    -0.054 C 
HETATM    4  C5  UNL     1      13.066  16.610  10.901  1.00  0.00     0.138 C 
BRANCH   4   5
HETATM    5  O1  UNL     1      13.031  15.287  11.384  1.00  0.00    -0.360 OA
BRANCH   5   6
HETATM    6  C4  UNL     1      12.250  14.992  12.522  1.00  0.00     0.206 C 
BRANCH   6   7
HETATM    7  C3  UNL     1      13.021  14.039  13.415  1.00  0.00     0.144 C 
BRANCH   7   8
HETATM    8  C2  UNL     1      13.711  14.769  14.540  1.00  0.00     0.029 C 
HETATM    9  C1  UNL     1      15.131  15.143  14.231  1.00  0.00     0.007 C 
ENDBRANCH   7   8
BRANCH   7  10
HETATM   10  O5  UNL     1      12.203  13.067  13.932  1.00  0.00    -0.389 OA
HETATM   11  C27 UNL     1      11.116  12.872  13.105  1.00  0.00     0.202 C 
ENDBRANCH   7  10
ENDBRANCH   6   7
ENDBRANCH   5   6
ENDBRANCH   4   5
BRANCH   3  12
HETATM   12  C7  UNL     1      15.448  16.288  10.629  1.00  0.00     0.037 C 
BRANCH  12  13
HETATM   13  C8  UNL     1      16.296  16.418   9.391  1.00  0.00     0.008 C 
BRANCH  13  14
HETATM   14  C9  UNL     1      17.749  16.388   9.848  1.00  0.00    -0.023 C 
HETATM   15  C10 UNL     1      17.895  16.742  11.300  1.00  0.00     0.009 C 
HETATM   16  C11 UNL     1      18.573  17.305   8.973  1.00  0.00     0.009 C 
ENDBRANCH  13  14
ENDBRANCH  12  13
ENDBRANCH   3  12
ENDBRANCH   1   3
BRANCH   1  17
HETATM   17  C14 UNL     1      15.235  19.232  10.896  1.00  0.00     0.009 C 
BRANCH  17  18
HETATM   18  C15 UNL     1      16.338  20.067  10.356  1.00  0.00     0.004 C 
BRANCH  18  19
HETATM   19  C16 UNL     1      16.492  20.161   8.894  1.00  0.00     0.038 C 
BRANCH  19  20
HETATM   20  C17 UNL     1      16.879  21.607   8.510  1.00  0.00     0.062 C 
HETATM   21  C18 UNL     1      18.322  21.483   8.031  1.00  0.00     0.046 C 
HETATM   22  O2  UNL     1      16.876  22.432   9.593  1.00  0.00    -0.374 OA
HETATM   23  C19 UNL     1      16.181  23.599   9.297  1.00  0.00     0.141 C 
HETATM   24  C20 UNL     1      14.754  23.338   9.805  1.00  0.00     0.011 C 
HETATM   25  C25 UNL     1      16.068  23.677   7.805  1.00  0.00     0.123 C 
HETATM   26  C21 UNL     1      14.202  24.722  10.163  1.00  0.00     0.012 C 
HETATM   27  C22 UNL     1      13.873  22.778   8.735  1.00  0.00     0.007 C 
HETATM   28  C23 UNL     1      14.528  21.838   7.780  1.00  0.00     0.009 C 
HETATM   29  C24 UNL     1      15.967  22.188   7.475  1.00  0.00     0.037 C 
BRANCH  25  30
HETATM   30  C26 UNL     1      17.138  24.380   7.119  1.00  0.00     0.180 C 
HETATM   31  O3  UNL     1      18.068  24.917   7.761  1.00  0.00    -0.648 OA
HETATM   32  O4  UNL     1      17.112  24.449   5.735  1.00  0.00    -0.648 OA
ENDBRANCH  25  30
ENDBRANCH  19  20
ENDBRANCH  18  19
ENDBRANCH  17  18
ENDBRANCH   1  17
TORSDOF 14
ENDMDL
MODEL 2
REMARK VINA RESULT: -7.946391848      2.028      3.657
REMARK  14 active torsions:
REMARK  status: ('A' for Active; 'I' for Inactive)
REMARK    1  A    between atoms: C2_2  and  C3_3 
REMARK    2  A    between atoms: C3_3  and  C4_4 
REMARK    3  A    between atoms: C3_3  and  O5_31 
REMARK    4  A    between atoms: C4_4  and  O1_5 
REMARK    5  A    between atoms: O1_5  and  C5_6 
REMARK    6  A    between atoms: C6_7  and  C7_8 
REMARK    7  A    between atoms: C6_7  and  C12_13 
REMARK    8  A    between atoms: C7_8  and  C8_9 
REMARK    9  A    between atoms: C8_9  and  C9_10 
REMARK   10  A    between atoms: C12_13  and  C14_15 
REMARK   11  A    between atoms: C14_15  and  C15_16 
REMARK   12  A    between atoms: C15_16  and  C16_17 
REMARK   13  A    between atoms: C16_17  and  C17_18 
REMARK   14  A    between atoms: C25_27  and  C26_28 
ROOT
HETATM    1  C12 UNL     1      13.934  16.603  10.802  1.00  0.00     0.012 C 
HETATM    2  C13 UNL     1      14.829  15.683  10.069  1.00  0.00     0.015 C 
ENDROOT
BRANCH   1   3
HETATM    3  C6  UNL     1      13.412  15.901  12.020  1.00  0.00    -0.054 C 
HETATM    4  C5  UNL     1      12.191  15.461  12.107  1.00  0.00     0.138 C 
BRANCH   4   5
HETATM    5  O1  UNL     1      11.793  14.792  13.281  1.00  0.00    -0.360 OA
BRANCH   5   6
HETATM    6  C4  UNL     1      11.369  13.450  13.195  1.00  0.00     0.206 C 
BRANCH   6   7
HETATM    7  C3  UNL     1      10.508  13.127  14.402  1.00  0.00     0.144 C 
BRANCH   7   8
HETATM    8  C2  UNL     1      11.272  13.300  15.691  1.00  0.00     0.029 C 
HETATM    9  C1  UNL     1      10.535  12.797  16.897  1.00  0.00     0.007 C 
ENDBRANCH   7   8
BRANCH   7  10
HETATM   10  O5  UNL     1       9.378  13.904  14.431  1.00  0.00    -0.389 OA
HETATM   11  C27 UNL     1       8.292  13.180  13.985  1.00  0.00     0.202 C 
ENDBRANCH   7  10
ENDBRANCH   6   7
ENDBRANCH   5   6
ENDBRANCH   4   5
BRANCH   3  12
HETATM   12  C7  UNL     1      14.360  15.693  13.154  1.00  0.00     0.037 C 
BRANCH  12  13
HETATM   13  C8  UNL     1      15.303  16.857  13.308  1.00  0.00     0.008 C 
BRANCH  13  14
HETATM   14  C9  UNL     1      16.653  16.280  13.713  1.00  0.00    -0.023 C 
HETATM   15  C10 UNL     1      17.535  16.014  12.527  1.00  0.00     0.009 C 
HETATM   16  C11 UNL     1      16.442  15.028  14.533  1.00  0.00     0.009 C 
ENDBRANCH  13  14
ENDBRANCH  12  13
ENDBRANCH   3  12
ENDBRANCH   1   3
BRANCH   1  17
HETATM   17  C14 UNL     1      12.771  17.198  10.126  1.00  0.00     0.009 C 
BRANCH  17  18
HETATM   18  C15 UNL     1      12.779  18.634   9.744  1.00  0.00     0.004 C 
BRANCH  18  19
HETATM   19  C16 UNL     1      14.072  19.334   9.684  1.00  0.00     0.038 C 
BRANCH  19  20
HETATM   20  C17 UNL     1      13.828  20.855   9.559  1.00  0.00     0.062 C 
HETATM   21  C18 UNL     1      12.397  21.036  10.057  1.00  0.00     0.046 C 
HETATM   22  O2  UNL     1      13.866  21.265   8.262  1.00  0.00    -0.374 OA
HETATM   23  C19 UNL     1      14.670  22.393   8.145  1.00  0.00     0.141 C 
HETATM   24  C20 UNL     1      16.050  21.843   7.750  1.00  0.00     0.011 C 
HETATM   25  C25 UNL     1      14.842  22.955   9.524  1.00  0.00     0.123 C 
HETATM   26  C21 UNL     1      16.709  22.968   6.945  1.00  0.00     0.012 C 
HETATM   27  C22 UNL     1      16.915  21.593   8.943  1.00  0.00     0.007 C 
HETATM   28  C23 UNL     1      16.214  21.095  10.162  1.00  0.00     0.009 C 
HETATM   29  C24 UNL     1      14.823  21.660  10.335  1.00  0.00     0.037 C 
BRANCH  25  30
HETATM   30  C26 UNL     1      13.863  23.945   9.936  1.00  0.00     0.180 C 
HETATM   31  O3  UNL     1      13.670  24.193  11.147  1.00  0.00    -0.648 OA
HETATM   32  O4  UNL     1      13.139  24.614   8.961  1.00  0.00    -0.648 OA
ENDBRANCH  25  30
ENDBRANCH  19  20
ENDBRANCH  18  19
ENDBRANCH  17  18
ENDBRANCH   1  17
TORSDOF 14
ENDMDL
MODEL 3
REMARK VINA RESULT: -7.730843322      1.980      3.741
REMARK  14 active torsions:
REMARK  status: ('A' for Active; 'I' for Inactive)
REMARK    1  A    between atoms: C2_2  and  C3_3 
REMARK    2  A    between atoms: C3_3  and  C4_4 
REMARK    3  A    between atoms: C3_3  and  O5_31 
REMARK    4  A    between atoms: C4_4  and  O1_5 
REMARK    5  A    between atoms: O1_5  and  C5_6 
REMARK    6  A    between atoms: C6_7  and  C7_8 
REMARK    7  A    between atoms: C6_7  and  C12_13 
REMARK    8  A    between atoms: C7_8  and  C8_9 
REMARK    9  A    between atoms: C8_9  and  C9_10 
REMARK   10  A    between atoms: C12_13  and  C14_15 
REMARK   11  A    between atoms: C14_15  and  C15_16 
REMARK   12  A    between atoms: C15_16  and  C16_17 
REMARK   13  A    between atoms: C16_17  and  C17_18 
REMARK   14  A    between atoms: C25_27  and  C26_28 
ROOT
HETATM    1  C12 UNL     1      13.838  16.477  10.654  1.00  0.00     0.012 C 
HETATM    2  C13 UNL     1      14.488  15.438   9.828  1.00  0.00     0.015 C 
ENDROOT
BRANCH   1   3
HETATM    3  C6  UNL     1      13.512  15.893  11.996  1.00  0.00    -0.054 C 
HETATM    4  C5  UNL     1      12.399  15.264  12.236  1.00  0.00     0.138 C 
BRANCH   4   5
HETATM    5  O1  UNL     1      12.187  14.727  13.521  1.00  0.00    -0.360 OA
BRANCH   5   6
HETATM    6  C4  UNL     1      11.709  13.405  13.641  1.00  0.00     0.206 C 
BRANCH   6   7
HETATM    7  C3  UNL     1      10.216  13.444  13.910  1.00  0.00     0.144 C 
BRANCH   7   8
HETATM    8  C2  UNL     1       9.460  12.538  12.969  1.00  0.00     0.029 C 
HETATM    9  C1  UNL     1       8.852  13.260  11.802  1.00  0.00     0.007 C 
ENDBRANCH   7   8
BRANCH   7  10
HETATM   10  O5  UNL     1       9.933  13.098  15.207  1.00  0.00    -0.389 OA
HETATM   11  C27 UNL     1       8.710  13.617  15.579  1.00  0.00     0.202 C 
ENDBRANCH   7  10
ENDBRANCH   6   7
ENDBRANCH   5   6
ENDBRANCH   4   5
BRANCH   3  12
HETATM   12  C7  UNL     1      14.534  16.034  13.075  1.00  0.00     0.037 C 
BRANCH  12  13
HETATM   13  C8  UNL     1      15.436  17.215  12.832  1.00  0.00     0.008 C 
BRANCH  13  14
HETATM   14  C9  UNL     1      16.867  16.715  12.982  1.00  0.00    -0.023 C 
HETATM   15  C10 UNL     1      17.526  16.475  11.654  1.00  0.00     0.009 C 
HETATM   16  C11 UNL     1      16.880  15.467  13.836  1.00  0.00     0.009 C 
ENDBRANCH  13  14
ENDBRANCH  12  13
ENDBRANCH   3  12
ENDBRANCH   1   3
BRANCH   1  17
HETATM   17  C14 UNL     1      12.618  17.146  10.177  1.00  0.00     0.009 C 
BRANCH  17  18
HETATM   18  C15 UNL     1      12.667  18.559   9.720  1.00  0.00     0.004 C 
BRANCH  18  19
HETATM   19  C16 UNL     1      13.971  19.241   9.693  1.00  0.00     0.038 C 
BRANCH  19  20
HETATM   20  C17 UNL     1      13.753  20.765   9.572  1.00  0.00     0.062 C 
HETATM   21  C18 UNL     1      12.314  20.965  10.040  1.00  0.00     0.046 C 
HETATM   22  O2  UNL     1      13.824  21.181   8.277  1.00  0.00    -0.374 OA
HETATM   23  C19 UNL     1      14.648  22.297   8.184  1.00  0.00     0.141 C 
HETATM   24  C20 UNL     1      16.027  21.728   7.815  1.00  0.00     0.011 C 
HETATM   25  C25 UNL     1      14.798  22.850   9.569  1.00  0.00     0.123 C 
HETATM   26  C21 UNL     1      16.720  22.848   7.030  1.00  0.00     0.012 C 
HETATM   27  C22 UNL     1      16.863  21.460   9.025  1.00  0.00     0.007 C 
HETATM   28  C23 UNL     1      16.128  20.966  10.226  1.00  0.00     0.009 C 
HETATM   29  C24 UNL     1      14.742  21.551  10.373  1.00  0.00     0.037 C 
BRANCH  25  30
HETATM   30  C26 UNL     1      13.825  23.852   9.965  1.00  0.00     0.180 C 
HETATM   31  O3  UNL     1      13.661  24.149  11.170  1.00  0.00    -0.648 OA
HETATM   32  O4  UNL     1      13.074  24.479   8.982  1.00  0.00    -0.648 OA
ENDBRANCH  25  30
ENDBRANCH  19  20
ENDBRANCH  18  19
ENDBRANCH  17  18
ENDBRANCH   1  17
TORSDOF 14
ENDMDL
MODEL 4
REMARK VINA RESULT: -7.677731632      1.056      1.626
REMARK  14 active torsions:
REMARK  status: ('A' for Active; 'I' for Inactive)
REMARK    1  A    between atoms: C2_2  and  C3_3 
REMARK    2  A    between atoms: C3_3  and  C4_4 
REMARK    3  A    between atoms: C3_3  and  O5_31 
REMARK    4  A    between atoms: C4_4  and  O1_5 
REMARK    5  A    between atoms: O1_5  and  C5_6 
REMARK    6  A    between atoms: C6_7  and  C7_8 
REMARK    7  A    between atoms: C6_7  and  C12_13 
REMARK    8  A    between atoms: C7_8  and  C8_9 
REMARK    9  A    between atoms: C8_9  and  C9_10 
REMARK   10  A    between atoms: C12_13  and  C14_15 
REMARK   11  A    between atoms: C14_15  and  C15_16 
REMARK   12  A    between atoms: C15_16  and  C16_17 
REMARK   13  A    between atoms: C16_17  and  C17_18 
REMARK   14  A    between atoms: C25_27  and  C26_28 
ROOT
HETATM    1  C12 UNL     1      14.818  18.193  10.377  1.00  0.00     0.012 C 
HETATM    2  C13 UNL     1      13.532  18.553   9.744  1.00  0.00     0.015 C 
ENDROOT
BRANCH   1   3
HETATM    3  C6  UNL     1      14.606  16.995  11.254  1.00  0.00    -0.054 C 
HETATM    4  C5  UNL     1      13.680  16.112  11.023  1.00  0.00     0.138 C 
BRANCH   4   5
HETATM    5  O1  UNL     1      13.568  15.005  11.887  1.00  0.00    -0.360 OA
BRANCH   5   6
HETATM    6  C4  UNL     1      12.419  14.880  12.696  1.00  0.00     0.206 C 
BRANCH   6   7
HETATM    7  C3  UNL     1      12.723  13.929  13.838  1.00  0.00     0.144 C 
BRANCH   7   8
HETATM    8  C2  UNL     1      12.517  14.590  15.179  1.00  0.00     0.029 C 
HETATM    9  C1  UNL     1      12.975  16.019  15.219  1.00  0.00     0.007 C 
ENDBRANCH   7   8
BRANCH   7  10
HETATM   10  O5  UNL     1      11.953  12.796  13.763  1.00  0.00    -0.389 OA
HETATM   11  C27 UNL     1      10.834  13.032  12.991  1.00  0.00     0.202 C 
ENDBRANCH   7  10
ENDBRANCH   6   7
ENDBRANCH   5   6
ENDBRANCH   4   5
BRANCH   3  12
HETATM   12  C7  UNL     1      15.524  16.823  12.418  1.00  0.00     0.037 C 
BRANCH  12  13
HETATM   13  C8  UNL     1      16.822  16.179  12.009  1.00  0.00     0.008 C 
BRANCH  13  14
HETATM   14  C9  UNL     1      17.431  15.577  13.269  1.00  0.00    -0.023 C 
HETATM   15  C10 UNL     1      16.385  15.182  14.272  1.00  0.00     0.009 C 
HETATM   16  C11 UNL     1      18.425  16.549  13.864  1.00  0.00     0.009 C 
ENDBRANCH  13  14
ENDBRANCH  12  13
ENDBRANCH   3  12
ENDBRANCH   1   3
BRANCH   1  17
HETATM   17  C14 UNL     1      15.548  19.184  11.184  1.00  0.00     0.009 C 
BRANCH  17  18
HETATM   18  C15 UNL     1      16.332  20.259  10.522  1.00  0.00     0.004 C 
BRANCH  18  19
HETATM   19  C16 UNL     1      16.584  20.151   9.076  1.00  0.00     0.038 C 
BRANCH  19  20
HETATM   20  C17 UNL     1      16.954  21.542   8.514  1.00  0.00     0.062 C 
HETATM   21  C18 UNL     1      18.382  21.362   8.005  1.00  0.00     0.046 C 
HETATM   22  O2  UNL     1      16.984  22.488   9.493  1.00  0.00    -0.374 OA
HETATM   23  C19 UNL     1      16.277  23.613   9.086  1.00  0.00     0.141 C 
HETATM   24  C20 UNL     1      14.868  23.414   9.667  1.00  0.00     0.011 C 
HETATM   25  C25 UNL     1      16.115  23.517   7.599  1.00  0.00     0.123 C 
HETATM   26  C21 UNL     1      14.324  24.831   9.880  1.00  0.00     0.012 C 
HETATM   27  C22 UNL     1      13.954  22.735   8.699  1.00  0.00     0.007 C 
HETATM   28  C23 UNL     1      14.580  21.689   7.838  1.00  0.00     0.009 C 
HETATM   29  C24 UNL     1      16.007  21.999   7.449  1.00  0.00     0.037 C 
BRANCH  25  30
HETATM   30  C26 UNL     1      17.160  24.134   6.802  1.00  0.00     0.180 C 
HETATM   31  O3  UNL     1      17.127  24.087   5.552  1.00  0.00    -0.648 OA
HETATM   32  O4  UNL     1      18.201  24.779   7.451  1.00  0.00    -0.648 OA
ENDBRANCH  25  30
ENDBRANCH  19  20
ENDBRANCH  18  19
ENDBRANCH  17  18
ENDBRANCH   1  17
TORSDOF 14
ENDMDL
MODEL 5
REMARK VINA RESULT: -7.568496675      2.750      4.349
REMARK  14 active torsions:
REMARK  status: ('A' for Active; 'I' for Inactive)
REMARK    1  A    between atoms: C2_2  and  C3_3 
REMARK    2  A    between atoms: C3_3  and  C4_4 
REMARK    3  A    between atoms: C3_3  and  O5_31 
REMARK    4  A    between atoms: C4_4  and  O1_5 
REMARK    5  A    between atoms: O1_5  and  C5_6 
REMARK    6  A    between atoms: C6_7  and  C7_8 
REMARK    7  A    between atoms: C6_7  and  C12_13 
REMARK    8  A    between atoms: C7_8  and  C8_9 
REMARK    9  A    between atoms: C8_9  and  C9_10 
REMARK   10  A    between atoms: C12_13  and  C14_15 
REMARK   11  A    between atoms: C14_15  and  C15_16 
REMARK   12  A    between atoms: C15_16  and  C16_17 
REMARK   13  A    between atoms: C16_17  and  C17_18 
REMARK   14  A    between atoms: C25_27  and  C26_28 
ROOT
HETATM    1  C12 UNL     1      16.587  17.583  11.009  1.00  0.00     0.012 C 
HETATM    2  C13 UNL     1      16.146  16.519  10.084  1.00  0.00     0.015 C 
ENDROOT
BRANCH   1   3
HETATM    3  C6  UNL     1      16.822  16.981  12.362  1.00  0.00    -0.054 C 
HETATM    4  C5  UNL     1      17.956  16.443  12.703  1.00  0.00     0.138 C 
BRANCH   4   5
HETATM    5  O1  UNL     1      18.095  15.921  14.005  1.00  0.00    -0.360 OA
BRANCH   5   6
HETATM    6  C4  UNL     1      19.183  16.338  14.798  1.00  0.00     0.206 C 
BRANCH   6   7
HETATM    7  C3  UNL     1      18.672  16.723  16.174  1.00  0.00     0.144 C 
BRANCH   7   8
HETATM    8  C2  UNL     1      17.794  15.645  16.760  1.00  0.00     0.029 C 
HETATM    9  C1  UNL     1      17.781  15.633  18.261  1.00  0.00     0.007 C 
ENDBRANCH   7   8
BRANCH   7  10
HETATM   10  O5  UNL     1      19.706  16.991  17.034  1.00  0.00    -0.389 OA
HETATM   11  C27 UNL     1      19.990  18.341  17.028  1.00  0.00     0.202 C 
ENDBRANCH   7  10
ENDBRANCH   6   7
ENDBRANCH   5   6
ENDBRANCH   4   5
BRANCH   3  12
HETATM   12  C7  UNL     1      15.699  17.035  13.343  1.00  0.00     0.037 C 
BRANCH  12  13
HETATM   13  C8  UNL     1      14.728  15.902  13.137  1.00  0.00     0.008 C 
BRANCH  13  14
HETATM   14  C9  UNL     1      14.535  15.235  14.492  1.00  0.00    -0.023 C 
HETATM   15  C10 UNL     1      13.503  14.144  14.445  1.00  0.00     0.009 C 
HETATM   16  C11 UNL     1      14.182  16.281  15.525  1.00  0.00     0.009 C 
ENDBRANCH  13  14
ENDBRANCH  12  13
ENDBRANCH   3  12
ENDBRANCH   1   3
BRANCH   1  17
HETATM   17  C14 UNL     1      15.751  18.776  11.217  1.00  0.00     0.009 C 
BRANCH  17  18
HETATM   18  C15 UNL     1      16.098  20.060  10.554  1.00  0.00     0.004 C 
BRANCH  18  19
HETATM   19  C16 UNL     1      16.169  20.091   9.084  1.00  0.00     0.038 C 
BRANCH  19  20
HETATM   20  C17 UNL     1      16.667  21.479   8.623  1.00  0.00     0.062 C 
HETATM   21  C18 UNL     1      18.097  21.218   8.159  1.00  0.00     0.046 C 
HETATM   22  O2  UNL     1      16.727  22.361   9.659  1.00  0.00    -0.374 OA
HETATM   23  C19 UNL     1      16.125  23.560   9.295  1.00  0.00     0.141 C 
HETATM   24  C20 UNL     1      14.681  23.438   9.810  1.00  0.00     0.011 C 
HETATM   25  C25 UNL     1      16.019  23.564   7.800  1.00  0.00     0.123 C 
HETATM   26  C21 UNL     1      14.237  24.879  10.088  1.00  0.00     0.012 C 
HETATM   27  C22 UNL     1      13.760  22.890   8.768  1.00  0.00     0.007 C 
HETATM   28  C23 UNL     1      14.342  21.851   7.869  1.00  0.00     0.009 C 
HETATM   29  C24 UNL     1      15.804  22.071   7.553  1.00  0.00     0.037 C 
BRANCH  25  30
HETATM   30  C26 UNL     1      17.141  24.143   7.083  1.00  0.00     0.180 C 
HETATM   31  O3  UNL     1      18.096  24.667   7.699  1.00  0.00    -0.648 OA
HETATM   32  O4  UNL     1      17.137  24.108   5.697  1.00  0.00    -0.648 OA
ENDBRANCH  25  30
ENDBRANCH  19  20
ENDBRANCH  18  19
ENDBRANCH  17  18
ENDBRANCH   1  17
TORSDOF 14
ENDMDL
