MODEL 1
REMARK VINA RESULT: -8.954101577      0.000      0.000
REMARK  13 active torsions:
REMARK  status: ('A' for Active; 'I' for Inactive)
REMARK    1  A    between atoms: C2_2  and  C3_3 
REMARK    2  A    between atoms: C5_5  and  O1_6 
REMARK    3  A    between atoms: O1_6  and  C6_7 
REMARK    4  A    between atoms: C6_7  and  C7_8 
REMARK    5  A    between atoms: C8_11  and  C9_12 
REMARK    6  A    between atoms: C14_17  and  C15_18 
REMARK    7  A    between atoms: C15_18  and  C16_20 
REMARK       I    between atoms: C16_20  and  N2_22 
REMARK    8  A    between atoms: N2_22  and  C17_24 
REMARK    9  A    between atoms: C20_27  and  S1_28 
REMARK   10  A    between atoms: N3_30  and  C22_31 
REMARK   11  A    between atoms: C22_31  and  C23_32 
REMARK       I    between atoms: C23_32  and  N4_34 
REMARK   12  A    between atoms: N4_34  and  C24_35 
REMARK   13  A    between atoms: N4_34  and  C26_37 
ROOT
HETATM    1  C16 UNL     1      16.973  22.412  18.040  1.00  0.00     0.297 C 
HETATM    2  O4  UNL     1      16.099  23.171  18.507  1.00  0.00    -0.264 OA
HETATM    3  N2  UNL     1      18.331  22.626  18.320  1.00  0.00    -0.316 N 
ATOM      4  H2  UNL     1      18.982  21.966  17.897  1.00  0.00     0.169 HD
ENDROOT
BRANCH   1   5
HETATM    5  C15 UNL     1      16.567  21.271  17.177  1.00  0.00     0.250 C 
HETATM    6  O3  UNL     1      17.478  20.663  16.569  1.00  0.00    -0.281 OA
BRANCH   5   7
HETATM    7  C14 UNL     1      15.198  20.877  17.045  1.00  0.00     0.027 A 
HETATM    8  C3  UNL     1      14.464  21.315  15.947  1.00  0.00    -0.041 A 
HETATM    9  C4  UNL     1      13.122  20.912  15.898  1.00  0.00     0.045 A 
HETATM   10  C5  UNL     1      12.542  20.133  16.865  1.00  0.00     0.076 A 
HETATM   11  C8  UNL     1      13.279  19.703  17.956  1.00  0.00    -0.016 A 
HETATM   12  C13 UNL     1      14.602  20.080  18.037  1.00  0.00     0.027 A 
BRANCH   8  13
HETATM   13  C2  UNL     1      14.985  22.154  14.869  1.00  0.00     0.035 C 
HETATM   14  C1  UNL     1      14.563  21.682  13.477  1.00  0.00     0.010 C 
ENDBRANCH   8  13
BRANCH  10  15
HETATM   15  O1  UNL     1      11.212  19.742  16.807  1.00  0.00    -0.342 OA
BRANCH  15  16
HETATM   16  C6  UNL     1      10.538  19.855  15.584  1.00  0.00     0.275 C 
BRANCH  16  17
HETATM   17  C7  UNL     1       9.914  18.584  15.148  1.00  0.00     0.255 C 
HETATM   18  N1  UNL     1       9.686  17.479  15.967  1.00  0.00    -0.060 NA
HETATM   19  O2  UNL     1       9.561  18.496  13.940  1.00  0.00    -0.274 OA
ENDBRANCH  16  17
ENDBRANCH  15  16
ENDBRANCH  10  15
BRANCH  11  20
HETATM   20  C9  UNL     1      12.621  18.875  18.968  1.00  0.00    -0.021 C 
HETATM   21  C10 UNL     1      12.777  17.388  18.697  1.00  0.00     0.019 C 
HETATM   22  C11 UNL     1      11.146  19.169  19.108  1.00  0.00     0.019 C 
HETATM   23  C12 UNL     1      13.294  19.136  20.311  1.00  0.00     0.019 C 
ENDBRANCH  11  20
ENDBRANCH   5   7
ENDBRANCH   1   5
BRANCH   3  24
HETATM   24  C17 UNL     1      18.904  23.634  19.108  1.00  0.00     0.104 A 
HETATM   25  C18 UNL     1      19.011  23.552  20.465  1.00  0.00     0.038 A 
HETATM   26  C19 UNL     1      19.616  24.602  21.162  1.00  0.00     0.039 A 
HETATM   27  C20 UNL     1      20.105  25.712  20.490  1.00  0.00     0.074 A 
HETATM   28  N3  UNL     1      19.997  25.790  19.142  1.00  0.00    -0.298 N 
HETATM   29  C28 UNL     1      19.418  24.784  18.494  1.00  0.00     0.275 A 
HETATM   30  O6  UNL     1      19.328  24.875  17.235  1.00  0.00    -0.265 OA
BRANCH  27  31
HETATM   31  S1  UNL     1      20.885  26.988  21.433  1.00  0.00    -0.117 SA
HETATM   32  C21 UNL     1      22.408  26.367  22.175  1.00  0.00     0.097 C 
ENDBRANCH  27  31
BRANCH  28  33
HETATM   33  C22 UNL     1      20.500  26.969  18.468  1.00  0.00     0.236 C 
BRANCH  33  34
HETATM   34  C23 UNL     1      21.811  26.707  17.845  1.00  0.00     0.238 C 
HETATM   35  O5  UNL     1      22.722  26.163  18.511  1.00  0.00    -0.272 OA
HETATM   36  N4  UNL     1      22.058  27.060  16.503  1.00  0.00    -0.351 N 
BRANCH  36  37
HETATM   37  C24 UNL     1      23.315  26.809  15.853  1.00  0.00     0.121 C 
HETATM   38  C25 UNL     1      24.157  28.059  15.670  1.00  0.00     0.026 C 
ENDBRANCH  36  37
BRANCH  36  39
HETATM   39  C26 UNL     1      21.019  27.703  15.732  1.00  0.00     0.121 C 
HETATM   40  C27 UNL     1      20.641  26.861  14.516  1.00  0.00     0.026 C 
ENDBRANCH  36  39
ENDBRANCH  33  34
ENDBRANCH  28  33
ENDBRANCH   3  24
TORSDOF 13
ENDMDL
MODEL 2
REMARK VINA RESULT: -8.468426541      2.217      3.694
REMARK  13 active torsions:
REMARK  status: ('A' for Active; 'I' for Inactive)
REMARK    1  A    between atoms: C2_2  and  C3_3 
REMARK    2  A    between atoms: C5_5  and  O1_6 
REMARK    3  A    between atoms: O1_6  and  C6_7 
REMARK    4  A    between atoms: C6_7  and  C7_8 
REMARK    5  A    between atoms: C8_11  and  C9_12 
REMARK    6  A    between atoms: C14_17  and  C15_18 
REMARK    7  A    between atoms: C15_18  and  C16_20 
REMARK       I    between atoms: C16_20  and  N2_22 
REMARK    8  A    between atoms: N2_22  and  C17_24 
REMARK    9  A    between atoms: C20_27  and  S1_28 
REMARK   10  A    between atoms: N3_30  and  C22_31 
REMARK   11  A    between atoms: C22_31  and  C23_32 
REMARK       I    between atoms: C23_32  and  N4_34 
REMARK   12  A    between atoms: N4_34  and  C24_35 
REMARK   13  A    between atoms: N4_34  and  C26_37 
ROOT
HETATM    1  C16 UNL     1      15.360  23.446  17.095  1.00  0.00     0.297 C 
HETATM    2  O4  UNL     1      16.080  22.513  16.687  1.00  0.00    -0.264 OA
HETATM    3  N2  UNL     1      15.763  24.781  16.945  1.00  0.00    -0.316 N 
ATOM      4  H2  UNL     1      15.120  25.484  17.309  1.00  0.00     0.169 HD
ENDROOT
BRANCH   1   5
HETATM    5  C15 UNL     1      14.061  23.135  17.749  1.00  0.00     0.250 C 
HETATM    6  O3  UNL     1      13.588  24.001  18.521  1.00  0.00    -0.281 OA
BRANCH   5   7
HETATM    7  C14 UNL     1      13.373  21.903  17.510  1.00  0.00     0.027 A 
HETATM    8  C3  UNL     1      12.840  21.653  16.249  1.00  0.00    -0.041 A 
HETATM    9  C4  UNL     1      12.156  20.438  16.096  1.00  0.00     0.045 A 
HETATM   10  C5  UNL     1      12.008  19.533  17.114  1.00  0.00     0.076 A 
HETATM   11  C8  UNL     1      12.540  19.791  18.365  1.00  0.00    -0.016 A 
HETATM   12  C13 UNL     1      13.219  20.975  18.554  1.00  0.00     0.027 A 
BRANCH   8  13
HETATM   13  C2  UNL     1      12.935  22.555  15.103  1.00  0.00     0.035 C 
HETATM   14  C1  UNL     1      13.885  22.053  14.015  1.00  0.00     0.010 C 
ENDBRANCH   8  13
BRANCH  10  15
HETATM   15  O1  UNL     1      11.328  18.334  16.950  1.00  0.00    -0.342 OA
BRANCH  15  16
HETATM   16  C6  UNL     1      10.115  18.347  16.249  1.00  0.00     0.275 C 
BRANCH  16  17
HETATM   17  C7  UNL     1       9.785  17.037  15.642  1.00  0.00     0.255 C 
HETATM   18  N1  UNL     1      10.218  15.800  16.117  1.00  0.00    -0.060 NA
HETATM   19  O2  UNL     1       9.053  17.043  14.614  1.00  0.00    -0.274 OA
ENDBRANCH  16  17
ENDBRANCH  15  16
ENDBRANCH  10  15
BRANCH  11  20
HETATM   20  C9  UNL     1      12.357  18.798  19.426  1.00  0.00    -0.021 C 
HETATM   21  C10 UNL     1      12.943  17.444  19.067  1.00  0.00     0.019 C 
HETATM   22  C11 UNL     1      10.909  18.593  19.803  1.00  0.00     0.019 C 
HETATM   23  C12 UNL     1      13.113  19.274  20.662  1.00  0.00     0.019 C 
ENDBRANCH  11  20
ENDBRANCH   5   7
ENDBRANCH   1   5
BRANCH   3  24
HETATM   24  C17 UNL     1      16.937  25.269  16.356  1.00  0.00     0.104 A 
HETATM   25  C18 UNL     1      16.993  25.741  15.078  1.00  0.00     0.038 A 
HETATM   26  C19 UNL     1      18.209  26.226  14.587  1.00  0.00     0.039 A 
HETATM   27  C20 UNL     1      19.344  26.232  15.381  1.00  0.00     0.074 A 
HETATM   28  N3  UNL     1      19.285  25.763  16.651  1.00  0.00    -0.298 N 
HETATM   29  C28 UNL     1      18.123  25.305  17.103  1.00  0.00     0.275 A 
HETATM   30  O6  UNL     1      18.088  24.872  18.292  1.00  0.00    -0.265 OA
BRANCH  27  31
HETATM   31  S1  UNL     1      20.840  26.887  14.704  1.00  0.00    -0.117 SA
HETATM   32  C21 UNL     1      20.542  28.529  14.017  1.00  0.00     0.097 C 
ENDBRANCH  27  31
BRANCH  28  33
HETATM   33  C22 UNL     1      20.491  25.765  17.453  1.00  0.00     0.236 C 
BRANCH  33  34
HETATM   34  C23 UNL     1      20.451  26.833  18.471  1.00  0.00     0.238 C 
HETATM   35  O5  UNL     1      20.180  28.008  18.132  1.00  0.00    -0.272 OA
HETATM   36  N4  UNL     1      20.713  26.550  19.826  1.00  0.00    -0.351 N 
BRANCH  36  37
HETATM   37  C24 UNL     1      20.670  27.557  20.851  1.00  0.00     0.121 C 
HETATM   38  C25 UNL     1      21.129  27.053  22.208  1.00  0.00     0.026 C 
ENDBRANCH  36  37
BRANCH  36  39
HETATM   39  C26 UNL     1      21.044  25.201  20.222  1.00  0.00     0.121 C 
HETATM   40  C27 UNL     1      22.528  24.917  20.008  1.00  0.00     0.026 C 
ENDBRANCH  36  39
ENDBRANCH  33  34
ENDBRANCH  28  33
ENDBRANCH   3  24
TORSDOF 13
ENDMDL
MODEL 3
REMARK VINA RESULT: -8.432904949      1.608      1.908
REMARK  13 active torsions:
REMARK  status: ('A' for Active; 'I' for Inactive)
REMARK    1  A    between atoms: C2_2  and  C3_3 
REMARK    2  A    between atoms: C5_5  and  O1_6 
REMARK    3  A    between atoms: O1_6  and  C6_7 
REMARK    4  A    between atoms: C6_7  and  C7_8 
REMARK    5  A    between atoms: C8_11  and  C9_12 
REMARK    6  A    between atoms: C14_17  and  C15_18 
REMARK    7  A    between atoms: C15_18  and  C16_20 
REMARK       I    between atoms: C16_20  and  N2_22 
REMARK    8  A    between atoms: N2_22  and  C17_24 
REMARK    9  A    between atoms: C20_27  and  S1_28 
REMARK   10  A    between atoms: N3_30  and  C22_31 
REMARK   11  A    between atoms: C22_31  and  C23_32 
REMARK       I    between atoms: C23_32  and  N4_34 
REMARK   12  A    between atoms: N4_34  and  C24_35 
REMARK   13  A    between atoms: N4_34  and  C26_37 
ROOT
HETATM    1  C16 UNL     1      15.616  23.069  18.577  1.00  0.00     0.297 C 
HETATM    2  O4  UNL     1      16.299  22.029  18.479  1.00  0.00    -0.264 OA
HETATM    3  N2  UNL     1      16.186  24.257  19.058  1.00  0.00    -0.316 N 
ATOM      4  H2  UNL     1      15.561  25.061  19.112  1.00  0.00     0.169 HD
ENDROOT
BRANCH   1   5
HETATM    5  C15 UNL     1      14.183  23.044  18.179  1.00  0.00     0.250 C 
HETATM    6  O3  UNL     1      13.585  24.144  18.131  1.00  0.00    -0.281 OA
BRANCH   5   7
HETATM    7  C14 UNL     1      13.512  21.821  17.860  1.00  0.00     0.027 A 
HETATM    8  C3  UNL     1      13.130  21.575  16.545  1.00  0.00    -0.041 A 
HETATM    9  C4  UNL     1      12.453  20.369  16.312  1.00  0.00     0.045 A 
HETATM   10  C5  UNL     1      12.170  19.470  17.307  1.00  0.00     0.076 A 
HETATM   11  C8  UNL     1      12.551  19.724  18.613  1.00  0.00    -0.016 A 
HETATM   12  C13 UNL     1      13.220  20.899  18.880  1.00  0.00     0.027 A 
BRANCH   8  13
HETATM   13  C2  UNL     1      13.376  22.472  15.417  1.00  0.00     0.035 C 
HETATM   14  C1  UNL     1      14.359  21.901  14.393  1.00  0.00     0.010 C 
ENDBRANCH   8  13
BRANCH  10  15
HETATM   15  O1  UNL     1      11.497  18.280  17.065  1.00  0.00    -0.342 OA
BRANCH  15  16
HETATM   16  C6  UNL     1      10.334  18.320  16.286  1.00  0.00     0.275 C 
BRANCH  16  17
HETATM   17  C7  UNL     1       9.807  16.974  15.964  1.00  0.00     0.255 C 
HETATM   18  N1  UNL     1      10.344  15.771  16.423  1.00  0.00    -0.060 NA
HETATM   19  O2  UNL     1       8.794  16.911  15.216  1.00  0.00    -0.274 OA
ENDBRANCH  16  17
ENDBRANCH  15  16
ENDBRANCH  10  15
BRANCH  11  20
HETATM   20  C9  UNL     1      12.227  18.738  19.646  1.00  0.00    -0.021 C 
HETATM   21  C10 UNL     1      12.829  17.373  19.360  1.00  0.00     0.019 C 
HETATM   22  C11 UNL     1      10.742  18.558  19.848  1.00  0.00     0.019 C 
HETATM   23  C12 UNL     1      12.839  19.205  20.962  1.00  0.00     0.019 C 
ENDBRANCH  11  20
ENDBRANCH   5   7
ENDBRANCH   1   5
BRANCH   3  24
HETATM   24  C17 UNL     1      17.506  24.478  19.472  1.00  0.00     0.104 A 
HETATM   25  C18 UNL     1      17.918  24.339  20.765  1.00  0.00     0.038 A 
HETATM   26  C19 UNL     1      19.262  24.563  21.076  1.00  0.00     0.039 A 
HETATM   27  C20 UNL     1      20.170  24.921  20.091  1.00  0.00     0.074 A 
HETATM   28  N3  UNL     1      19.758  25.058  18.808  1.00  0.00    -0.298 N 
HETATM   29  C28 UNL     1      18.476  24.842  18.528  1.00  0.00     0.275 A 
HETATM   30  O6  UNL     1      18.111  24.975  17.323  1.00  0.00    -0.265 OA
BRANCH  27  31
HETATM   31  S1  UNL     1      21.860  25.160  20.552  1.00  0.00    -0.117 SA
HETATM   32  C21 UNL     1      21.977  26.409  21.850  1.00  0.00     0.097 C 
ENDBRANCH  27  31
BRANCH  28  33
HETATM   33  C22 UNL     1      20.723  25.450  17.802  1.00  0.00     0.236 C 
BRANCH  33  34
HETATM   34  C23 UNL     1      20.523  26.853  17.391  1.00  0.00     0.238 C 
HETATM   35  O5  UNL     1      20.324  27.735  18.258  1.00  0.00    -0.272 OA
HETATM   36  N4  UNL     1      20.556  27.220  16.031  1.00  0.00    -0.351 N 
BRANCH  36  37
HETATM   37  C24 UNL     1      20.382  28.576  15.589  1.00  0.00     0.121 C 
HETATM   38  C25 UNL     1      21.564  29.107  14.796  1.00  0.00     0.026 C 
ENDBRANCH  36  37
BRANCH  36  39
HETATM   39  C26 UNL     1      20.768  26.206  15.024  1.00  0.00     0.121 C 
HETATM   40  C27 UNL     1      19.540  26.062  14.128  1.00  0.00     0.026 C 
ENDBRANCH  36  39
ENDBRANCH  33  34
ENDBRANCH  28  33
ENDBRANCH   3  24
TORSDOF 13
ENDMDL
MODEL 4
REMARK VINA RESULT: -8.237467298      1.820      3.041
REMARK  13 active torsions:
REMARK  status: ('A' for Active; 'I' for Inactive)
REMARK    1  A    between atoms: C2_2  and  C3_3 
REMARK    2  A    between atoms: C5_5  and  O1_6 
REMARK    3  A    between atoms: O1_6  and  C6_7 
REMARK    4  A    between atoms: C6_7  and  C7_8 
REMARK    5  A    between atoms: C8_11  and  C9_12 
REMARK    6  A    between atoms: C14_17  and  C15_18 
REMARK    7  A    between atoms: C15_18  and  C16_20 
REMARK       I    between atoms: C16_20  and  N2_22 
REMARK    8  A    between atoms: N2_22  and  C17_24 
REMARK    9  A    between atoms: C20_27  and  S1_28 
REMARK   10  A    between atoms: N3_30  and  C22_31 
REMARK   11  A    between atoms: C22_31  and  C23_32 
REMARK       I    between atoms: C23_32  and  N4_34 
REMARK   12  A    between atoms: N4_34  and  C24_35 
REMARK   13  A    between atoms: N4_34  and  C26_37 
ROOT
HETATM    1  C16 UNL     1      16.692  23.075  17.424  1.00  0.00     0.297 C 
HETATM    2  O4  UNL     1      15.911  23.995  17.741  1.00  0.00    -0.264 OA
HETATM    3  N2  UNL     1      17.864  23.347  16.704  1.00  0.00    -0.316 N 
ATOM      4  H2  UNL     1      18.446  22.541  16.479  1.00  0.00     0.169 HD
ENDROOT
BRANCH   1   5
HETATM    5  C15 UNL     1      16.372  21.676  17.815  1.00  0.00     0.250 C 
HETATM    6  O3  UNL     1      17.244  21.050  18.460  1.00  0.00    -0.281 OA
BRANCH   5   7
HETATM    7  C14 UNL     1      15.123  21.067  17.475  1.00  0.00     0.027 A 
HETATM    8  C3  UNL     1      14.581  21.279  16.212  1.00  0.00    -0.041 A 
HETATM    9  C4  UNL     1      13.342  20.673  15.959  1.00  0.00     0.045 A 
HETATM   10  C5  UNL     1      12.682  19.911  16.888  1.00  0.00     0.076 A 
HETATM   11  C8  UNL     1      13.227  19.707  18.144  1.00  0.00    -0.016 A 
HETATM   12  C13 UNL     1      14.445  20.287  18.428  1.00  0.00     0.027 A 
BRANCH   8  13
HETATM   13  C2  UNL     1      15.199  22.080  15.156  1.00  0.00     0.035 C 
HETATM   14  C1  UNL     1      14.623  21.798  13.767  1.00  0.00     0.010 C 
ENDBRANCH   8  13
BRANCH  10  15
HETATM   15  O1  UNL     1      11.455  19.318  16.627  1.00  0.00    -0.342 OA
BRANCH  15  16
HETATM   16  C6  UNL     1      10.855  19.548  15.382  1.00  0.00     0.275 C 
BRANCH  16  17
HETATM   17  C7  UNL     1       9.937  18.461  14.973  1.00  0.00     0.255 C 
HETATM   18  N1  UNL     1       9.515  17.415  15.793  1.00  0.00    -0.060 NA
HETATM   19  O2  UNL     1       9.502  18.484  13.789  1.00  0.00    -0.274 OA
ENDBRANCH  16  17
ENDBRANCH  15  16
ENDBRANCH  10  15
BRANCH  11  20
HETATM   20  C9  UNL     1      12.489  18.889  19.108  1.00  0.00    -0.021 C 
HETATM   21  C10 UNL     1      12.681  17.400  18.879  1.00  0.00     0.019 C 
HETATM   22  C11 UNL     1      11.005  19.171  19.111  1.00  0.00     0.019 C 
HETATM   23  C12 UNL     1      13.036  19.180  20.501  1.00  0.00     0.019 C 
ENDBRANCH  11  20
ENDBRANCH   5   7
ENDBRANCH   1   5
BRANCH   3  24
HETATM   24  C17 UNL     1      18.336  24.588  16.254  1.00  0.00     0.104 A 
HETATM   25  C18 UNL     1      18.035  25.103  15.028  1.00  0.00     0.038 A 
HETATM   26  C19 UNL     1      18.539  26.360  14.679  1.00  0.00     0.039 A 
HETATM   27  C20 UNL     1      19.332  27.078  15.561  1.00  0.00     0.074 A 
HETATM   28  N3  UNL     1      19.629  26.563  16.778  1.00  0.00    -0.298 N 
HETATM   29  C28 UNL     1      19.143  25.367  17.095  1.00  0.00     0.275 A 
HETATM   30  O6  UNL     1      19.431  24.904  18.238  1.00  0.00    -0.265 OA
BRANCH  27  31
HETATM   31  S1  UNL     1      19.910  28.673  15.063  1.00  0.00    -0.117 SA
HETATM   32  C21 UNL     1      20.956  28.524  13.600  1.00  0.00     0.097 C 
ENDBRANCH  27  31
BRANCH  28  33
HETATM   33  C22 UNL     1      20.474  27.326  17.673  1.00  0.00     0.236 C 
BRANCH  33  34
HETATM   34  C23 UNL     1      21.866  26.839  17.635  1.00  0.00     0.238 C 
HETATM   35  O5  UNL     1      22.453  26.709  16.536  1.00  0.00    -0.272 OA
HETATM   36  N4  UNL     1      22.552  26.517  18.823  1.00  0.00    -0.351 N 
BRANCH  36  37
HETATM   37  C24 UNL     1      23.912  26.054  18.833  1.00  0.00     0.121 C 
HETATM   38  C25 UNL     1      24.911  27.131  19.217  1.00  0.00     0.026 C 
ENDBRANCH  36  37
BRANCH  36  39
HETATM   39  C26 UNL     1      21.877  26.648  20.094  1.00  0.00     0.121 C 
HETATM   40  C27 UNL     1      21.799  25.302  20.811  1.00  0.00     0.026 C 
ENDBRANCH  36  39
ENDBRANCH  33  34
ENDBRANCH  28  33
ENDBRANCH   3  24
TORSDOF 13
ENDMDL
MODEL 5
REMARK VINA RESULT: -8.203419606      1.773      3.098
REMARK  13 active torsions:
REMARK  status: ('A' for Active; 'I' for Inactive)
REMARK    1  A    between atoms: C2_2  and  C3_3 
REMARK    2  A    between atoms: C5_5  and  O1_6 
REMARK    3  A    between atoms: O1_6  and  C6_7 
REMARK    4  A    between atoms: C6_7  and  C7_8 
REMARK    5  A    between atoms: C8_11  and  C9_12 
REMARK    6  A    between atoms: C14_17  and  C15_18 
REMARK    7  A    between atoms: C15_18  and  C16_20 
REMARK       I    between atoms: C16_20  and  N2_22 
REMARK    8  A    between atoms: N2_22  and  C17_24 
REMARK    9  A    between atoms: C20_27  and  S1_28 
REMARK   10  A    between atoms: N3_30  and  C22_31 
REMARK   11  A    between atoms: C22_31  and  C23_32 
REMARK       I    between atoms: C23_32  and  N4_34 
REMARK   12  A    between atoms: N4_34  and  C24_35 
REMARK   13  A    between atoms: N4_34  and  C26_37 
ROOT
HETATM    1  C16 UNL     1      16.083  23.530  17.210  1.00  0.00     0.297 C 
HETATM    2  O4  UNL     1      15.408  24.399  17.798  1.00  0.00    -0.264 OA
HETATM    3  N2  UNL     1      17.455  23.394  17.467  1.00  0.00    -0.316 N 
ATOM      4  H2  UNL     1      17.936  22.664  16.943  1.00  0.00     0.169 HD
ENDROOT
BRANCH   1   5
HETATM    5  C15 UNL     1      15.422  22.631  16.227  1.00  0.00     0.250 C 
HETATM    6  O3  UNL     1      15.751  22.760  15.025  1.00  0.00    -0.281 OA
BRANCH   5   7
HETATM    7  C14 UNL     1      14.454  21.657  16.629  1.00  0.00     0.027 A 
HETATM    8  C3  UNL     1      14.762  20.775  17.660  1.00  0.00    -0.041 A 
HETATM    9  C4  UNL     1      13.776  19.830  17.982  1.00  0.00     0.045 A 
HETATM   10  C5  UNL     1      12.572  19.760  17.332  1.00  0.00     0.076 A 
HETATM   11  C8  UNL     1      12.275  20.641  16.306  1.00  0.00    -0.016 A 
HETATM   12  C13 UNL     1      13.220  21.583  15.962  1.00  0.00     0.027 A 
BRANCH   8  13
HETATM   13  C2  UNL     1      16.018  20.761  18.408  1.00  0.00     0.035 C 
HETATM   14  C1  UNL     1      15.884  21.319  19.826  1.00  0.00     0.010 C 
ENDBRANCH   8  13
BRANCH  10  15
HETATM   15  O1  UNL     1      11.605  18.820  17.658  1.00  0.00    -0.342 OA
BRANCH  15  16
HETATM   16  C6  UNL     1      11.948  17.792  18.547  1.00  0.00     0.275 C 
BRANCH  16  17
HETATM   17  C7  UNL     1      11.239  17.888  19.843  1.00  0.00     0.255 C 
HETATM   18  N1  UNL     1      11.637  17.262  21.025  1.00  0.00    -0.060 NA
HETATM   19  O2  UNL     1      10.193  18.593  19.882  1.00  0.00    -0.274 OA
ENDBRANCH  16  17
ENDBRANCH  15  16
ENDBRANCH  10  15
BRANCH  11  20
HETATM   20  C9  UNL     1      10.978  20.529  15.636  1.00  0.00    -0.021 C 
HETATM   21  C10 UNL     1       9.822  20.420  16.615  1.00  0.00     0.019 C 
HETATM   22  C11 UNL     1      10.898  19.355  14.690  1.00  0.00     0.019 C 
HETATM   23  C12 UNL     1      10.740  21.807  14.838  1.00  0.00     0.019 C 
ENDBRANCH  11  20
ENDBRANCH   5   7
ENDBRANCH   1   5
BRANCH   3  24
HETATM   24  C17 UNL     1      18.248  24.135  18.354  1.00  0.00     0.104 A 
HETATM   25  C18 UNL     1      17.992  24.225  19.690  1.00  0.00     0.038 A 
HETATM   26  C19 UNL     1      18.853  24.974  20.497  1.00  0.00     0.039 A 
HETATM   27  C20 UNL     1      19.954  25.618  19.955  1.00  0.00     0.074 A 
HETATM   28  N3  UNL     1      20.206  25.526  18.627  1.00  0.00    -0.298 N 
HETATM   29  C28 UNL     1      19.378  24.811  17.873  1.00  0.00     0.275 A 
HETATM   30  O6  UNL     1      19.631  24.737  16.635  1.00  0.00    -0.265 OA
BRANCH  27  31
HETATM   31  S1  UNL     1      21.017  26.524  21.039  1.00  0.00    -0.117 SA
HETATM   32  C21 UNL     1      22.387  25.479  21.578  1.00  0.00     0.097 C 
ENDBRANCH  27  31
BRANCH  28  33
HETATM   33  C22 UNL     1      21.354  26.224  18.083  1.00  0.00     0.236 C 
BRANCH  33  34
HETATM   34  C23 UNL     1      20.938  27.406  17.305  1.00  0.00     0.238 C 
HETATM   35  O5  UNL     1      20.043  28.162  17.747  1.00  0.00    -0.272 OA
HETATM   36  N4  UNL     1      21.538  27.702  16.064  1.00  0.00    -0.351 N 
BRANCH  36  37
HETATM   37  C24 UNL     1      21.174  28.851  15.282  1.00  0.00     0.121 C 
HETATM   38  C25 UNL     1      20.706  28.499  13.880  1.00  0.00     0.026 C 
ENDBRANCH  36  37
BRANCH  36  39
HETATM   39  C26 UNL     1      22.559  26.826  15.539  1.00  0.00     0.121 C 
HETATM   40  C27 UNL     1      23.938  27.473  15.641  1.00  0.00     0.026 C 
ENDBRANCH  36  39
ENDBRANCH  33  34
ENDBRANCH  28  33
ENDBRANCH   3  24
TORSDOF 13
ENDMDL
