MODEL 1
REMARK VINA RESULT: -7.695263535      0.000      0.000
REMARK  18 active torsions:
REMARK  status: ('A' for Active; 'I' for Inactive)
REMARK    1  A    between atoms: C2_2  and  N1_3 
REMARK    2  A    between atoms: C2_2  and  C21_31 
REMARK    3  A    between atoms: C3_5  and  O1_6 
REMARK    4  A    between atoms: C3_5  and  C4_8 
REMARK    5  A    between atoms: C4_8  and  C5_9 
REMARK    6  A    between atoms: C4_8  and  C15_21 
REMARK    7  A    between atoms: C5_9  and  C6_10 
REMARK    8  A    between atoms: C7_11  and  C8_12 
REMARK    9  A    between atoms: C8_12  and  C9_13 
REMARK   10  A    between atoms: C9_13  and  N2_14 
REMARK       I    between atoms: N2_14  and  C10_15 
REMARK   11  A    between atoms: C10_15  and  C11_17 
REMARK   12  A    between atoms: C15_21  and  S1_22 
REMARK   13  A    between atoms: S1_22  and  C16_23 
REMARK   14  A    between atoms: C16_23  and  N3_25 
REMARK       I    between atoms: C21_31  and  N4_33 
REMARK   15  A    between atoms: N4_33  and  C22_35 
REMARK   16  A    between atoms: C22_35  and  C23_36 
REMARK   17  A    between atoms: C23_36  and  C24_37 
REMARK   18  A    between atoms: C24_37  and  N5_38 
ROOT
HETATM    1  C4  UNL     1      14.849  21.777  19.171  1.00  0.00     0.047 C 
ENDROOT
BRANCH   1   2
HETATM    2  C3  UNL     1      14.437  20.340  19.048  1.00  0.00     0.155 C 
HETATM    3  N1  UNL     1      13.570  19.682  19.753  1.00  0.00    -0.335 N 
ATOM      4  H1  UNL     1      13.530  20.216  20.622  1.00  0.00     0.168 HD
BRANCH   3   5
HETATM    5  C2  UNL     1      12.769  18.769  19.952  1.00  0.00     0.075 C 
HETATM    6  C1  UNL     1      11.967  18.787  21.216  1.00  0.00     0.074 C 
BRANCH   5   7
HETATM    7  C21 UNL     1      12.602  17.610  19.005  1.00  0.00     0.263 C 
HETATM    8  O4  UNL     1      13.665  17.155  18.588  1.00  0.00    -0.266 OA
HETATM    9  N4  UNL     1      11.290  17.213  18.716  1.00  0.00    -0.356 N 
ATOM     10  H4  UNL     1      10.504  17.674  19.174  1.00  0.00     0.162 HD
BRANCH   9  11
HETATM   11  C22 UNL     1      11.046  16.136  17.754  1.00  0.00     0.124 C 
BRANCH  11  12
HETATM   12  C23 UNL     1       9.593  15.803  17.656  1.00  0.00     0.041 C 
BRANCH  12  13
HETATM   13  C24 UNL     1       8.979  16.550  16.463  1.00  0.00     0.150 C 
BRANCH  13  14
HETATM   14  N5  UNL     1       9.576  16.019  15.289  1.00  0.00    -0.304 N 
HETATM   15  C25 UNL     1       9.556  14.745  14.812  1.00  0.00     0.111 A 
HETATM   16  C26 UNL     1      10.306  14.753  13.632  1.00  0.00     0.037 A 
HETATM   17  C27 UNL     1      10.740  16.024  13.462  1.00  0.00     0.108 A 
HETATM   18  N6  UNL     1      10.310  16.777  14.444  1.00  0.00    -0.310 N 
ATOM     19  H6  UNL     1      10.499  17.773  14.553  1.00  0.00     0.186 HD
ENDBRANCH  13  14
ENDBRANCH  12  13
ENDBRANCH  11  12
ENDBRANCH   9  11
ENDBRANCH   5   7
ENDBRANCH   3   5
BRANCH   2  20
HETATM   20  O1  UNL     1      15.062  19.710  18.066  1.00  0.00    -0.345 OA
ATOM     21  H1  UNL     1      15.625  20.214  17.489  1.00  0.00     0.219 HD
ENDBRANCH   2  20
ENDBRANCH   1   2
BRANCH   1  22
HETATM   22  C5  UNL     1      16.049  22.040  19.377  1.00  0.00    -0.116 C 
BRANCH  22  23
HETATM   23  C6  UNL     1      17.344  22.366  19.777  1.00  0.00     0.052 C 
HETATM   24  C7  UNL     1      17.542  23.642  20.125  1.00  0.00    -0.012 C 
BRANCH  24  25
HETATM   25  C8  UNL     1      18.896  24.106  20.611  1.00  0.00     0.087 C 
BRANCH  25  26
HETATM   26  C9  UNL     1      19.644  24.081  19.321  1.00  0.00     0.162 C 
BRANCH  26  27
HETATM   27  N2  UNL     1      19.331  24.901  18.235  1.00  0.00    -0.387 NA
HETATM   28  C10 UNL     1      19.038  25.668  17.220  1.00  0.00     0.298 C 
HETATM   29  O2  UNL     1      19.534  26.686  16.708  1.00  0.00    -0.256 OA
BRANCH  28  30
HETATM   30  C11 UNL     1      17.729  25.240  16.419  1.00  0.00     0.044 C 
HETATM   31  C12 UNL     1      16.554  25.580  17.264  1.00  0.00     0.026 C 
HETATM   32  C13 UNL     1      17.847  23.710  16.261  1.00  0.00     0.026 C 
HETATM   33  C14 UNL     1      17.681  25.862  15.096  1.00  0.00     0.026 C 
ENDBRANCH  28  30
ENDBRANCH  26  27
ENDBRANCH  25  26
ENDBRANCH  24  25
ENDBRANCH  22  23
ENDBRANCH   1  22
BRANCH   1  34
HETATM   34  C15 UNL     1      13.738  22.709  18.670  1.00  0.00     0.133 C 
BRANCH  34  35
HETATM   35  S1  UNL     1      13.856  23.106  16.977  1.00  0.00    -0.095 SA
BRANCH  35  36
HETATM   36  C16 UNL     1      13.492  21.970  15.748  1.00  0.00     0.137 C 
HETATM   37  S2  UNL     1      14.558  21.823  14.487  1.00  0.00    -0.053 SA
BRANCH  36  38
HETATM   38  N3  UNL     1      12.343  21.156  15.718  1.00  0.00    -0.362 N 
HETATM   39  C17 UNL     1      11.286  21.619  14.708  1.00  0.00     0.150 C 
HETATM   40  C18 UNL     1      10.644  20.299  14.246  1.00  0.00     0.187 C 
HETATM   41  O3  UNL     1       9.807  19.864  15.282  1.00  0.00    -0.388 OA
HETATM   42  C19 UNL     1      10.471  19.980  16.515  1.00  0.00     0.187 C 
HETATM   43  C20 UNL     1      12.007  19.953  16.374  1.00  0.00     0.150 C 
ENDBRANCH  36  38
ENDBRANCH  35  36
ENDBRANCH  34  35
ENDBRANCH   1  34
TORSDOF 18
ENDMDL
MODEL 2
REMARK VINA RESULT: -7.573353470      2.009      3.698
REMARK  18 active torsions:
REMARK  status: ('A' for Active; 'I' for Inactive)
REMARK    1  A    between atoms: C2_2  and  N1_3 
REMARK    2  A    between atoms: C2_2  and  C21_31 
REMARK    3  A    between atoms: C3_5  and  O1_6 
REMARK    4  A    between atoms: C3_5  and  C4_8 
REMARK    5  A    between atoms: C4_8  and  C5_9 
REMARK    6  A    between atoms: C4_8  and  C15_21 
REMARK    7  A    between atoms: C5_9  and  C6_10 
REMARK    8  A    between atoms: C7_11  and  C8_12 
REMARK    9  A    between atoms: C8_12  and  C9_13 
REMARK   10  A    between atoms: C9_13  and  N2_14 
REMARK       I    between atoms: N2_14  and  C10_15 
REMARK   11  A    between atoms: C10_15  and  C11_17 
REMARK   12  A    between atoms: C15_21  and  S1_22 
REMARK   13  A    between atoms: S1_22  and  C16_23 
REMARK   14  A    between atoms: C16_23  and  N3_25 
REMARK       I    between atoms: C21_31  and  N4_33 
REMARK   15  A    between atoms: N4_33  and  C22_35 
REMARK   16  A    between atoms: C22_35  and  C23_36 
REMARK   17  A    between atoms: C23_36  and  C24_37 
REMARK   18  A    between atoms: C24_37  and  N5_38 
ROOT
HETATM    1  C4  UNL     1      15.565  21.083  18.684  1.00  0.00     0.047 C 
ENDROOT
BRANCH   1   2
HETATM    2  C3  UNL     1      15.459  21.168  17.191  1.00  0.00     0.155 C 
HETATM    3  N1  UNL     1      14.420  21.444  16.466  1.00  0.00    -0.335 N 
ATOM      4  H1  UNL     1      13.642  21.205  17.081  1.00  0.00     0.168 HD
BRANCH   3   5
HETATM    5  C2  UNL     1      13.854  21.837  15.446  1.00  0.00     0.075 C 
HETATM    6  C1  UNL     1      13.164  23.164  15.477  1.00  0.00     0.074 C 
BRANCH   5   7
HETATM    7  C21 UNL     1      13.782  21.013  14.186  1.00  0.00     0.263 C 
HETATM    8  O4  UNL     1      14.612  21.334  13.338  1.00  0.00    -0.266 OA
HETATM    9  N4  UNL     1      12.797  20.019  14.135  1.00  0.00    -0.356 N 
ATOM     10  H4  UNL     1      12.200  19.850  14.944  1.00  0.00     0.162 HD
BRANCH   9  11
HETATM   11  C22 UNL     1      12.624  19.221  12.920  1.00  0.00     0.124 C 
BRANCH  11  12
HETATM   12  C23 UNL     1      11.399  18.368  12.990  1.00  0.00     0.041 C 
BRANCH  12  13
HETATM   13  C24 UNL     1      11.610  17.103  12.144  1.00  0.00     0.150 C 
BRANCH  13  14
HETATM   14  N5  UNL     1      10.893  16.056  12.780  1.00  0.00    -0.304 N 
HETATM   15  C25 UNL     1      10.294  14.963  12.231  1.00  0.00     0.111 A 
HETATM   16  C26 UNL     1       9.719  14.255  13.291  1.00  0.00     0.037 A 
HETATM   17  C27 UNL     1       9.994  14.955  14.416  1.00  0.00     0.108 A 
HETATM   18  N6  UNL     1      10.690  16.025  14.116  1.00  0.00    -0.310 N 
ATOM     19  H6  UNL     1      11.024  16.720  14.782  1.00  0.00     0.186 HD
ENDBRANCH  13  14
ENDBRANCH  12  13
ENDBRANCH  11  12
ENDBRANCH   9  11
ENDBRANCH   5   7
ENDBRANCH   3   5
BRANCH   2  20
HETATM   20  O1  UNL     1      16.611  20.933  16.582  1.00  0.00    -0.345 OA
ATOM     21  H1  UNL     1      17.186  20.267  16.939  1.00  0.00     0.219 HD
ENDBRANCH   2  20
ENDBRANCH   1   2
BRANCH   1  22
HETATM   22  C5  UNL     1      16.590  21.526  19.237  1.00  0.00    -0.116 C 
BRANCH  22  23
HETATM   23  C6  UNL     1      17.746  22.137  19.719  1.00  0.00     0.052 C 
HETATM   24  C7  UNL     1      17.622  23.418  20.079  1.00  0.00    -0.012 C 
BRANCH  24  25
HETATM   25  C8  UNL     1      18.799  24.175  20.651  1.00  0.00     0.087 C 
BRANCH  25  26
HETATM   26  C9  UNL     1      19.631  24.304  19.421  1.00  0.00     0.162 C 
BRANCH  26  27
HETATM   27  N2  UNL     1      19.267  25.090  18.325  1.00  0.00    -0.387 NA
HETATM   28  C10 UNL     1      18.926  25.825  17.302  1.00  0.00     0.298 C 
HETATM   29  O2  UNL     1      19.226  26.956  16.885  1.00  0.00    -0.256 OA
BRANCH  28  30
HETATM   30  C11 UNL     1      17.860  25.152  16.327  1.00  0.00     0.044 C 
HETATM   31  C12 UNL     1      16.583  25.024  17.077  1.00  0.00     0.026 C 
HETATM   32  C13 UNL     1      18.437  23.757  16.013  1.00  0.00     0.026 C 
HETATM   33  C14 UNL     1      17.717  25.909  15.083  1.00  0.00     0.026 C 
ENDBRANCH  28  30
ENDBRANCH  26  27
ENDBRANCH  25  26
ENDBRANCH  24  25
ENDBRANCH  22  23
ENDBRANCH   1  22
BRANCH   1  34
HETATM   34  C15 UNL     1      14.204  20.760  19.313  1.00  0.00     0.133 C 
BRANCH  34  35
HETATM   35  S1  UNL     1      13.746  19.082  19.185  1.00  0.00    -0.095 SA
BRANCH  35  36
HETATM   36  C16 UNL     1      12.126  18.563  19.381  1.00  0.00     0.137 C 
HETATM   37  S2  UNL     1      11.644  18.077  20.890  1.00  0.00    -0.053 SA
BRANCH  36  38
HETATM   38  N3  UNL     1      11.168  18.502  18.348  1.00  0.00    -0.362 N 
HETATM   39  C17 UNL     1      10.932  17.087  17.809  1.00  0.00     0.150 C 
HETATM   40  C18 UNL     1       9.444  17.107  17.419  1.00  0.00     0.187 C 
HETATM   41  O3  UNL     1       9.342  17.835  16.226  1.00  0.00    -0.388 OA
HETATM   42  C19 UNL     1      10.106  19.010  16.315  1.00  0.00     0.187 C 
HETATM   43  C20 UNL     1      10.325  19.474  17.770  1.00  0.00     0.150 C 
ENDBRANCH  36  38
ENDBRANCH  35  36
ENDBRANCH  34  35
ENDBRANCH   1  34
TORSDOF 18
ENDMDL
MODEL 3
REMARK VINA RESULT: -7.569190670      3.219     10.925
REMARK  18 active torsions:
REMARK  status: ('A' for Active; 'I' for Inactive)
REMARK    1  A    between atoms: C2_2  and  N1_3 
REMARK    2  A    between atoms: C2_2  and  C21_31 
REMARK    3  A    between atoms: C3_5  and  O1_6 
REMARK    4  A    between atoms: C3_5  and  C4_8 
REMARK    5  A    between atoms: C4_8  and  C5_9 
REMARK    6  A    between atoms: C4_8  and  C15_21 
REMARK    7  A    between atoms: C5_9  and  C6_10 
REMARK    8  A    between atoms: C7_11  and  C8_12 
REMARK    9  A    between atoms: C8_12  and  C9_13 
REMARK   10  A    between atoms: C9_13  and  N2_14 
REMARK       I    between atoms: N2_14  and  C10_15 
REMARK   11  A    between atoms: C10_15  and  C11_17 
REMARK   12  A    between atoms: C15_21  and  S1_22 
REMARK   13  A    between atoms: S1_22  and  C16_23 
REMARK   14  A    between atoms: C16_23  and  N3_25 
REMARK       I    between atoms: C21_31  and  N4_33 
REMARK   15  A    between atoms: N4_33  and  C22_35 
REMARK   16  A    between atoms: C22_35  and  C23_36 
REMARK   17  A    between atoms: C23_36  and  C24_37 
REMARK   18  A    between atoms: C24_37  and  N5_38 
ROOT
HETATM    1  C4  UNL     1      16.481  23.364  15.867  1.00  0.00     0.047 C 
ENDROOT
BRANCH   1   2
HETATM    2  C3  UNL     1      17.204  22.659  16.974  1.00  0.00     0.155 C 
HETATM    3  N1  UNL     1      17.451  23.076  18.176  1.00  0.00    -0.335 N 
ATOM      4  H1  UNL     1      17.405  24.091  18.080  1.00  0.00     0.168 HD
BRANCH   3   5
HETATM    5  C2  UNL     1      17.711  22.924  19.371  1.00  0.00     0.075 C 
HETATM    6  C1  UNL     1      17.417  21.600  20.002  1.00  0.00     0.074 C 
BRANCH   5   7
HETATM    7  C21 UNL     1      18.260  24.031  20.232  1.00  0.00     0.263 C 
HETATM    8  O4  UNL     1      17.394  24.749  20.728  1.00  0.00    -0.266 OA
HETATM    9  N4  UNL     1      19.654  24.110  20.349  1.00  0.00    -0.356 N 
ATOM     10  H4  UNL     1      20.244  23.410  19.899  1.00  0.00     0.162 HD
BRANCH   9  11
HETATM   11  C22 UNL     1      20.264  25.197  21.116  1.00  0.00     0.124 C 
BRANCH  11  12
HETATM   12  C23 UNL     1      21.756  25.119  21.092  1.00  0.00     0.041 C 
BRANCH  12  13
HETATM   13  C24 UNL     1      22.215  24.549  19.742  1.00  0.00     0.150 C 
BRANCH  13  14
HETATM   14  N5  UNL     1      23.101  25.500  19.171  1.00  0.00    -0.304 N 
HETATM   15  C25 UNL     1      23.075  26.859  19.248  1.00  0.00     0.111 A 
HETATM   16  C26 UNL     1      24.164  27.318  18.502  1.00  0.00     0.037 A 
HETATM   17  C27 UNL     1      24.784  26.220  18.012  1.00  0.00     0.108 A 
HETATM   18  N6  UNL     1      24.156  25.140  18.406  1.00  0.00    -0.310 N 
ATOM     19  H6  UNL     1      24.419  24.183  18.174  1.00  0.00     0.186 HD
ENDBRANCH  13  14
ENDBRANCH  12  13
ENDBRANCH  11  12
ENDBRANCH   9  11
ENDBRANCH   5   7
ENDBRANCH   3   5
BRANCH   2  20
HETATM   20  O1  UNL     1      17.612  21.447  16.629  1.00  0.00    -0.345 OA
ATOM     21  H1  UNL     1      17.525  21.181  15.721  1.00  0.00     0.219 HD
ENDBRANCH   2  20
ENDBRANCH   1   2
BRANCH   1  22
HETATM   22  C5  UNL     1      15.690  22.713  15.158  1.00  0.00    -0.116 C 
BRANCH  22  23
HETATM   23  C6  UNL     1      14.698  21.979  14.510  1.00  0.00     0.052 C 
HETATM   24  C7  UNL     1      14.040  21.093  15.264  1.00  0.00    -0.012 C 
BRANCH  24  25
HETATM   25  C8  UNL     1      12.918  20.266  14.680  1.00  0.00     0.087 C 
BRANCH  25  26
HETATM   26  C9  UNL     1      11.823  20.633  15.624  1.00  0.00     0.162 C 
BRANCH  26  27
HETATM   27  N2  UNL     1      11.781  20.211  16.954  1.00  0.00    -0.387 NA
HETATM   28  C10 UNL     1      11.741  19.818  18.198  1.00  0.00     0.298 C 
HETATM   29  O2  UNL     1      10.855  19.415  18.971  1.00  0.00    -0.256 OA
BRANCH  28  30
HETATM   30  C11 UNL     1      13.144  19.855  18.952  1.00  0.00     0.044 C 
HETATM   31  C12 UNL     1      13.659  21.248  18.874  1.00  0.00     0.026 C 
HETATM   32  C13 UNL     1      14.051  18.904  18.145  1.00  0.00     0.026 C 
HETATM   33  C14 UNL     1      13.029  19.366  20.326  1.00  0.00     0.026 C 
ENDBRANCH  28  30
ENDBRANCH  26  27
ENDBRANCH  25  26
ENDBRANCH  24  25
ENDBRANCH  22  23
ENDBRANCH   1  22
BRANCH   1  34
HETATM   34  C15 UNL     1      16.595  24.886  16.020  1.00  0.00     0.133 C 
BRANCH  34  35
HETATM   35  S1  UNL     1      17.905  25.592  15.112  1.00  0.00    -0.095 SA
BRANCH  35  36
HETATM   36  C16 UNL     1      19.208  26.402  15.873  1.00  0.00     0.137 C 
HETATM   37  S2  UNL     1      19.390  26.212  17.509  1.00  0.00    -0.053 SA
BRANCH  36  38
HETATM   38  N3  UNL     1      20.136  27.234  15.214  1.00  0.00    -0.362 N 
HETATM   39  C17 UNL     1      20.963  28.107  16.164  1.00  0.00     0.150 C 
HETATM   40  C18 UNL     1      22.317  28.222  15.441  1.00  0.00     0.187 C 
HETATM   41  O3  UNL     1      22.142  29.124  14.383  1.00  0.00    -0.388 OA
HETATM   42  C19 UNL     1      20.951  28.832  13.697  1.00  0.00     0.187 C 
HETATM   43  C20 UNL     1      20.509  27.363  13.860  1.00  0.00     0.150 C 
ENDBRANCH  36  38
ENDBRANCH  35  36
ENDBRANCH  34  35
ENDBRANCH   1  34
TORSDOF 18
ENDMDL
MODEL 4
REMARK VINA RESULT: -7.526431014      2.330      9.798
REMARK  18 active torsions:
REMARK  status: ('A' for Active; 'I' for Inactive)
REMARK    1  A    between atoms: C2_2  and  N1_3 
REMARK    2  A    between atoms: C2_2  and  C21_31 
REMARK    3  A    between atoms: C3_5  and  O1_6 
REMARK    4  A    between atoms: C3_5  and  C4_8 
REMARK    5  A    between atoms: C4_8  and  C5_9 
REMARK    6  A    between atoms: C4_8  and  C15_21 
REMARK    7  A    between atoms: C5_9  and  C6_10 
REMARK    8  A    between atoms: C7_11  and  C8_12 
REMARK    9  A    between atoms: C8_12  and  C9_13 
REMARK   10  A    between atoms: C9_13  and  N2_14 
REMARK       I    between atoms: N2_14  and  C10_15 
REMARK   11  A    between atoms: C10_15  and  C11_17 
REMARK   12  A    between atoms: C15_21  and  S1_22 
REMARK   13  A    between atoms: S1_22  and  C16_23 
REMARK   14  A    between atoms: C16_23  and  N3_25 
REMARK       I    between atoms: C21_31  and  N4_33 
REMARK   15  A    between atoms: N4_33  and  C22_35 
REMARK   16  A    between atoms: C22_35  and  C23_36 
REMARK   17  A    between atoms: C23_36  and  C24_37 
REMARK   18  A    between atoms: C24_37  and  N5_38 
ROOT
HETATM    1  C4  UNL     1      15.572  23.822  16.999  1.00  0.00     0.047 C 
ENDROOT
BRANCH   1   2
HETATM    2  C3  UNL     1      16.581  24.929  17.051  1.00  0.00     0.155 C 
HETATM    3  N1  UNL     1      17.412  25.312  16.133  1.00  0.00    -0.335 N 
ATOM      4  H1  UNL     1      17.506  24.481  15.548  1.00  0.00     0.168 HD
BRANCH   3   5
HETATM    5  C2  UNL     1      18.152  26.125  15.577  1.00  0.00     0.075 C 
HETATM    6  C1  UNL     1      17.787  26.599  14.205  1.00  0.00     0.074 C 
BRANCH   5   7
HETATM    7  C21 UNL     1      19.432  26.620  16.198  1.00  0.00     0.263 C 
HETATM    8  O4  UNL     1      20.412  26.509  15.464  1.00  0.00    -0.266 OA
HETATM    9  N4  UNL     1      19.350  27.122  17.503  1.00  0.00    -0.356 N 
ATOM     10  H4  UNL     1      18.446  27.180  17.971  1.00  0.00     0.162 HD
BRANCH   9  11
HETATM   11  C22 UNL     1      20.563  27.561  18.196  1.00  0.00     0.124 C 
BRANCH  11  12
HETATM   12  C23 UNL     1      20.751  26.839  19.490  1.00  0.00     0.041 C 
BRANCH  12  13
HETATM   13  C24 UNL     1      20.934  25.339  19.215  1.00  0.00     0.150 C 
BRANCH  13  14
HETATM   14  N5  UNL     1      19.804  24.677  19.763  1.00  0.00    -0.304 N 
HETATM   15  C25 UNL     1      19.413  23.381  19.624  1.00  0.00     0.111 A 
HETATM   16  C26 UNL     1      18.229  23.245  20.357  1.00  0.00     0.037 A 
HETATM   17  C27 UNL     1      17.968  24.460  20.892  1.00  0.00     0.108 A 
HETATM   18  N6  UNL     1      18.899  25.312  20.541  1.00  0.00    -0.310 N 
ATOM     19  H6  UNL     1      18.936  26.294  20.811  1.00  0.00     0.186 HD
ENDBRANCH  13  14
ENDBRANCH  12  13
ENDBRANCH  11  12
ENDBRANCH   9  11
ENDBRANCH   5   7
ENDBRANCH   3   5
BRANCH   2  20
HETATM   20  O1  UNL     1      16.570  25.579  18.205  1.00  0.00    -0.345 OA
ATOM     21  H1  UNL     1      15.735  25.861  18.559  1.00  0.00     0.219 HD
ENDBRANCH   2  20
ENDBRANCH   1   2
BRANCH   1  22
HETATM   22  C5  UNL     1      15.411  23.208  15.927  1.00  0.00    -0.116 C 
BRANCH  22  23
HETATM   23  C6  UNL     1      15.266  22.373  14.821  1.00  0.00     0.052 C 
HETATM   24  C7  UNL     1      14.013  22.027  14.510  1.00  0.00    -0.012 C 
BRANCH  24  25
HETATM   25  C8  UNL     1      13.729  21.155  13.309  1.00  0.00     0.087 C 
BRANCH  25  26
HETATM   26  C9  UNL     1      13.249  19.926  14.004  1.00  0.00     0.162 C 
BRANCH  26  27
HETATM   27  N2  UNL     1      11.937  19.456  13.915  1.00  0.00    -0.387 NA
HETATM   28  C10 UNL     1      10.711  19.016  13.834  1.00  0.00     0.298 C 
HETATM   29  O2  UNL     1       9.705  19.056  14.562  1.00  0.00    -0.256 OA
BRANCH  28  30
HETATM   30  C11 UNL     1      10.379  18.218  12.494  1.00  0.00     0.044 C 
HETATM   31  C12 UNL     1      11.378  17.125  12.363  1.00  0.00     0.026 C 
HETATM   32  C13 UNL     1      10.567  19.251  11.364  1.00  0.00     0.026 C 
HETATM   33  C14 UNL     1       8.999  17.734  12.485  1.00  0.00     0.026 C 
ENDBRANCH  28  30
ENDBRANCH  26  27
ENDBRANCH  25  26
ENDBRANCH  24  25
ENDBRANCH  22  23
ENDBRANCH   1  22
BRANCH   1  34
HETATM   34  C15 UNL     1      15.142  23.407  18.412  1.00  0.00     0.133 C 
BRANCH  34  35
HETATM   35  S1  UNL     1      13.716  22.405  18.452  1.00  0.00    -0.095 SA
BRANCH  35  36
HETATM   36  C16 UNL     1      13.805  20.697  18.525  1.00  0.00     0.137 C 
HETATM   37  S2  UNL     1      15.107  19.956  17.816  1.00  0.00    -0.053 SA
BRANCH  36  38
HETATM   38  N3  UNL     1      12.843  19.865  19.133  1.00  0.00    -0.362 N 
HETATM   39  C17 UNL     1      11.443  19.995  18.524  1.00  0.00     0.150 C 
HETATM   40  C18 UNL     1      10.864  18.577  18.674  1.00  0.00     0.187 C 
HETATM   41  O3  UNL     1      10.522  18.413  20.022  1.00  0.00    -0.388 OA
HETATM   42  C19 UNL     1      11.560  18.887  20.841  1.00  0.00     0.187 C 
HETATM   43  C20 UNL     1      12.932  18.877  20.136  1.00  0.00     0.150 C 
ENDBRANCH  36  38
ENDBRANCH  35  36
ENDBRANCH  34  35
ENDBRANCH   1  34
TORSDOF 18
ENDMDL
MODEL 5
REMARK VINA RESULT: -7.462848205      3.389     10.951
REMARK  18 active torsions:
REMARK  status: ('A' for Active; 'I' for Inactive)
REMARK    1  A    between atoms: C2_2  and  N1_3 
REMARK    2  A    between atoms: C2_2  and  C21_31 
REMARK    3  A    between atoms: C3_5  and  O1_6 
REMARK    4  A    between atoms: C3_5  and  C4_8 
REMARK    5  A    between atoms: C4_8  and  C5_9 
REMARK    6  A    between atoms: C4_8  and  C15_21 
REMARK    7  A    between atoms: C5_9  and  C6_10 
REMARK    8  A    between atoms: C7_11  and  C8_12 
REMARK    9  A    between atoms: C8_12  and  C9_13 
REMARK   10  A    between atoms: C9_13  and  N2_14 
REMARK       I    between atoms: N2_14  and  C10_15 
REMARK   11  A    between atoms: C10_15  and  C11_17 
REMARK   12  A    between atoms: C15_21  and  S1_22 
REMARK   13  A    between atoms: S1_22  and  C16_23 
REMARK   14  A    between atoms: C16_23  and  N3_25 
REMARK       I    between atoms: C21_31  and  N4_33 
REMARK   15  A    between atoms: N4_33  and  C22_35 
REMARK   16  A    between atoms: C22_35  and  C23_36 
REMARK   17  A    between atoms: C23_36  and  C24_37 
REMARK   18  A    between atoms: C24_37  and  N5_38 
ROOT
HETATM    1  C4  UNL     1      16.638  23.057  15.848  1.00  0.00     0.047 C 
ENDROOT
BRANCH   1   2
HETATM    2  C3  UNL     1      17.282  22.293  16.966  1.00  0.00     0.155 C 
HETATM    3  N1  UNL     1      17.714  22.733  18.105  1.00  0.00    -0.335 N 
ATOM      4  H1  UNL     1      17.882  23.723  17.920  1.00  0.00     0.168 HD
BRANCH   3   5
HETATM    5  C2  UNL     1      18.034  22.617  19.289  1.00  0.00     0.075 C 
HETATM    6  C1  UNL     1      17.345  21.578  20.117  1.00  0.00     0.074 C 
BRANCH   5   7
HETATM    7  C21 UNL     1      19.051  23.512  19.949  1.00  0.00     0.263 C 
HETATM    8  O4  UNL     1      19.146  23.341  21.163  1.00  0.00    -0.266 OA
HETATM    9  N4  UNL     1      19.736  24.411  19.121  1.00  0.00    -0.356 N 
ATOM     10  H4  UNL     1      19.568  24.408  18.116  1.00  0.00     0.162 HD
BRANCH   9  11
HETATM   11  C22 UNL     1      20.693  25.356  19.700  1.00  0.00     0.124 C 
BRANCH  11  12
HETATM   12  C23 UNL     1      22.063  24.767  19.791  1.00  0.00     0.041 C 
BRANCH  12  13
HETATM   13  C24 UNL     1      23.098  25.814  19.351  1.00  0.00     0.150 C 
BRANCH  13  14
HETATM   14  N5  UNL     1      24.207  25.102  18.822  1.00  0.00    -0.304 N 
HETATM   15  C25 UNL     1      25.191  25.535  17.988  1.00  0.00     0.111 A 
HETATM   16  C26 UNL     1      26.030  24.439  17.764  1.00  0.00     0.037 A 
HETATM   17  C27 UNL     1      25.509  23.407  18.467  1.00  0.00     0.108 A 
HETATM   18  N6  UNL     1      24.426  23.797  19.095  1.00  0.00    -0.310 N 
ATOM     19  H6  UNL     1      23.844  23.211  19.693  1.00  0.00     0.186 HD
ENDBRANCH  13  14
ENDBRANCH  12  13
ENDBRANCH  11  12
ENDBRANCH   9  11
ENDBRANCH   5   7
ENDBRANCH   3   5
BRANCH   2  20
HETATM   20  O1  UNL     1      17.386  20.999  16.707  1.00  0.00    -0.345 OA
ATOM     21  H1  UNL     1      17.102  20.681  15.858  1.00  0.00     0.219 HD
ENDBRANCH   2  20
ENDBRANCH   1   2
BRANCH   1  22
HETATM   22  C5  UNL     1      15.769  22.490  15.158  1.00  0.00    -0.116 C 
BRANCH  22  23
HETATM   23  C6  UNL     1      14.680  21.914  14.507  1.00  0.00     0.052 C 
HETATM   24  C7  UNL     1      13.996  21.004  15.209  1.00  0.00    -0.012 C 
BRANCH  24  25
HETATM   25  C8  UNL     1      12.773  20.339  14.621  1.00  0.00     0.087 C 
BRANCH  25  26
HETATM   26  C9  UNL     1      11.760  20.739  15.641  1.00  0.00     0.162 C 
BRANCH  26  27
HETATM   27  N2  UNL     1      11.765  20.269  16.956  1.00  0.00    -0.387 NA
HETATM   28  C10 UNL     1      11.770  19.830  18.185  1.00  0.00     0.298 C 
HETATM   29  O2  UNL     1      10.912  19.406  18.977  1.00  0.00    -0.256 OA
BRANCH  28  30
HETATM   30  C11 UNL     1      13.202  19.830  18.885  1.00  0.00     0.044 C 
HETATM   31  C12 UNL     1      13.017  19.367  20.285  1.00  0.00     0.026 C 
HETATM   32  C13 UNL     1      13.651  21.305  18.866  1.00  0.00     0.026 C 
HETATM   33  C14 UNL     1      14.164  19.020  18.138  1.00  0.00     0.026 C 
ENDBRANCH  28  30
ENDBRANCH  26  27
ENDBRANCH  25  26
ENDBRANCH  24  25
ENDBRANCH  22  23
ENDBRANCH   1  22
BRANCH   1  34
HETATM   34  C15 UNL     1      16.933  24.558  15.970  1.00  0.00     0.133 C 
BRANCH  34  35
HETATM   35  S1  UNL     1      18.573  24.991  15.568  1.00  0.00    -0.095 SA
BRANCH  35  36
HETATM   36  C16 UNL     1      18.963  26.477  14.811  1.00  0.00     0.137 C 
HETATM   37  S2  UNL     1      17.806  27.191  13.862  1.00  0.00    -0.053 SA
BRANCH  36  38
HETATM   38  N3  UNL     1      20.204  27.136  14.919  1.00  0.00    -0.362 N 
HETATM   39  C17 UNL     1      20.987  26.770  16.185  1.00  0.00     0.150 C 
HETATM   40  C18 UNL     1      22.453  26.858  15.725  1.00  0.00     0.187 C 
HETATM   41  O3  UNL     1      22.774  28.219  15.632  1.00  0.00    -0.388 OA
HETATM   42  C19 UNL     1      21.742  28.910  14.976  1.00  0.00     0.187 C 
HETATM   43  C20 UNL     1      20.903  28.002  14.054  1.00  0.00     0.150 C 
ENDBRANCH  36  38
ENDBRANCH  35  36
ENDBRANCH  34  35
ENDBRANCH   1  34
TORSDOF 18
ENDMDL
