MODEL 1
REMARK VINA RESULT: -7.990116083      0.000      0.000
REMARK  18 active torsions:
REMARK  status: ('A' for Active; 'I' for Inactive)
REMARK    1  A    between atoms: C2_2  and  C3_3 
REMARK    2  A    between atoms: C3_3  and  C4_4 
REMARK    3  A    between atoms: C3_3  and  N3_24 
REMARK    4  A    between atoms: C4_4  and  N1_5 
REMARK    5  A    between atoms: N1_5  and  C5_6 
REMARK       I    between atoms: N1_5  and  C7_8 
REMARK    6  A    between atoms: C7_8  and  C8_10 
REMARK    7  A    between atoms: C8_10  and  C9_11 
REMARK    8  A    between atoms: C9_11  and  C10_12 
REMARK    9  A    between atoms: C10_12  and  C11_13 
REMARK   10  A    between atoms: C11_13  and  C12_14 
REMARK   11  A    between atoms: C12_14  and  N2_15 
REMARK       I    between atoms: N2_15  and  C13_17 
REMARK   12  A    between atoms: C13_17  and  O3_19 
REMARK   13  A    between atoms: O3_19  and  C14_20 
REMARK       I    between atoms: N3_24  and  C18_26 
REMARK   14  A    between atoms: C18_26  and  C19_28 
REMARK   15  A    between atoms: C19_28  and  O5_29 
REMARK   16  A    between atoms: C19_28  and  N4_31 
REMARK       I    between atoms: N5_34  and  C22_35 
REMARK   17  A    between atoms: C22_35  and  O7_37 
REMARK   18  A    between atoms: O7_37  and  C23_38 
ROOT
HETATM    1  C3  UNL     1      14.075  22.105  16.024  1.00  0.00     0.102 C 
ENDROOT
BRANCH   1   2
HETATM    2  C2  UNL     1      14.410  22.491  14.625  1.00  0.00     0.022 C 
HETATM    3  C1  UNL     1      14.223  21.335  13.652  1.00  0.00     0.007 C 
ENDBRANCH   1   2
BRANCH   1   4
HETATM    4  C4  UNL     1      13.740  20.641  16.152  1.00  0.00     0.150 C 
BRANCH   4   5
HETATM    5  N1  UNL     1      12.856  20.261  17.185  1.00  0.00    -0.351 N 
HETATM    6  C7  UNL     1      13.335  19.851  18.449  1.00  0.00     0.219 C 
HETATM    7  O1  UNL     1      14.564  19.852  18.667  1.00  0.00    -0.273 OA
BRANCH   5   8
HETATM    8  C5  UNL     1      11.399  20.266  17.046  1.00  0.00     0.121 C 
HETATM    9  C6  UNL     1      11.123  20.472  15.569  1.00  0.00     0.026 C 
ENDBRANCH   5   8
BRANCH   6  10
HETATM   10  C8  UNL     1      12.458  19.404  19.575  1.00  0.00     0.103 C 
BRANCH  10  11
HETATM   11  C9  UNL     1      12.759  17.953  19.933  1.00  0.00     0.009 C 
BRANCH  11  12
HETATM   12  C10 UNL     1      11.469  17.217  20.233  1.00  0.00     0.002 C 
BRANCH  12  13
HETATM   13  C11 UNL     1      10.479  17.337  19.107  1.00  0.00     0.020 C 
BRANCH  13  14
HETATM   14  C12 UNL     1      10.641  16.304  18.032  1.00  0.00     0.125 C 
BRANCH  14  15
HETATM   15  N2  UNL     1      10.614  16.913  16.713  1.00  0.00    -0.337 N 
HETATM   16  C13 UNL     1       9.499  16.900  15.842  1.00  0.00     0.361 C 
HETATM   17  O2  UNL     1       8.409  16.353  16.120  1.00  0.00    -0.238 OA
ATOM     18  H2  UNL     1      11.460  17.383  16.392  1.00  0.00     0.164 HD
BRANCH  16  19
HETATM   19  O3  UNL     1       9.592  17.517  14.617  1.00  0.00    -0.294 OA
BRANCH  19  20
HETATM   20  C14 UNL     1       9.989  16.952  13.409  1.00  0.00     0.061 C 
HETATM   21  C15 UNL     1      11.132  17.810  12.856  1.00  0.00     0.046 C 
HETATM   22  C16 UNL     1       8.907  16.942  12.343  1.00  0.00     0.046 C 
HETATM   23  C17 UNL     1      10.537  15.548  13.530  1.00  0.00     0.046 C 
ENDBRANCH  19  20
ENDBRANCH  16  19
ENDBRANCH  14  15
ENDBRANCH  13  14
ENDBRANCH  12  13
ENDBRANCH  11  12
ENDBRANCH  10  11
ENDBRANCH   6  10
ENDBRANCH   4   5
ENDBRANCH   1   4
BRANCH   1  24
HETATM   24  N3  UNL     1      15.270  22.309  16.857  1.00  0.00    -0.348 N 
HETATM   25  C18 UNL     1      15.290  23.243  17.947  1.00  0.00     0.292 C 
HETATM   26  O4  UNL     1      14.222  23.860  18.135  1.00  0.00    -0.264 OA
ATOM     27  H3  UNL     1      16.111  21.770  16.653  1.00  0.00     0.163 HD
BRANCH  25  28
HETATM   28  C19 UNL     1      16.446  23.449  18.760  1.00  0.00     0.208 C 
BRANCH  28  29
HETATM   29  O5  UNL     1      16.293  23.051  19.997  1.00  0.00    -0.342 OA
ATOM     30  H5  UNL     1      17.106  22.797  20.418  1.00  0.00     0.219 HD
ENDBRANCH  28  29
BRANCH  28  31
HETATM   31  N4  UNL     1      17.670  24.002  18.410  1.00  0.00    -0.354 N 
HETATM   32  C20 UNL     1      18.521  24.558  19.496  1.00  0.00     0.145 C 
HETATM   33  C21 UNL     1      19.791  25.153  18.956  1.00  0.00     0.148 C 
HETATM   34  N5  UNL     1      19.509  26.010  17.805  1.00  0.00    -0.325 N 
HETATM   35  C22 UNL     1      20.243  27.197  17.618  1.00  0.00     0.363 C 
HETATM   36  C27 UNL     1      18.478  25.636  16.875  1.00  0.00     0.148 C 
HETATM   37  O6  UNL     1      21.144  27.569  18.380  1.00  0.00    -0.238 OA
HETATM   38  C28 UNL     1      18.195  24.130  17.095  1.00  0.00     0.145 C 
BRANCH  35  39
HETATM   39  O7  UNL     1      19.953  28.003  16.528  1.00  0.00    -0.294 OA
BRANCH  39  40
HETATM   40  C23 UNL     1      20.734  28.001  15.368  1.00  0.00     0.061 C 
HETATM   41  C24 UNL     1      19.740  28.214  14.213  1.00  0.00     0.046 C 
HETATM   42  C25 UNL     1      21.405  26.686  15.068  1.00  0.00     0.046 C 
HETATM   43  C26 UNL     1      21.720  29.117  15.329  1.00  0.00     0.046 C 
ENDBRANCH  39  40
ENDBRANCH  35  39
ENDBRANCH  28  31
ENDBRANCH  25  28
ENDBRANCH   1  24
TORSDOF 18
ENDMDL
MODEL 2
REMARK VINA RESULT: -7.883185984      2.631     11.258
REMARK  18 active torsions:
REMARK  status: ('A' for Active; 'I' for Inactive)
REMARK    1  A    between atoms: C2_2  and  C3_3 
REMARK    2  A    between atoms: C3_3  and  C4_4 
REMARK    3  A    between atoms: C3_3  and  N3_24 
REMARK    4  A    between atoms: C4_4  and  N1_5 
REMARK    5  A    between atoms: N1_5  and  C5_6 
REMARK       I    between atoms: N1_5  and  C7_8 
REMARK    6  A    between atoms: C7_8  and  C8_10 
REMARK    7  A    between atoms: C8_10  and  C9_11 
REMARK    8  A    between atoms: C9_11  and  C10_12 
REMARK    9  A    between atoms: C10_12  and  C11_13 
REMARK   10  A    between atoms: C11_13  and  C12_14 
REMARK   11  A    between atoms: C12_14  and  N2_15 
REMARK       I    between atoms: N2_15  and  C13_17 
REMARK   12  A    between atoms: C13_17  and  O3_19 
REMARK   13  A    between atoms: O3_19  and  C14_20 
REMARK       I    between atoms: N3_24  and  C18_26 
REMARK   14  A    between atoms: C18_26  and  C19_28 
REMARK   15  A    between atoms: C19_28  and  O5_29 
REMARK   16  A    between atoms: C19_28  and  N4_31 
REMARK       I    between atoms: N5_34  and  C22_35 
REMARK   17  A    between atoms: C22_35  and  O7_37 
REMARK   18  A    between atoms: O7_37  and  C23_38 
ROOT
HETATM    1  C3  UNL     1      18.024  24.318  20.060  1.00  0.00     0.102 C 
ENDROOT
BRANCH   1   2
HETATM    2  C2  UNL     1      18.457  23.215  20.961  1.00  0.00     0.022 C 
HETATM    3  C1  UNL     1      18.043  21.848  20.433  1.00  0.00     0.007 C 
ENDBRANCH   1   2
BRANCH   1   4
HETATM    4  C4  UNL     1      19.190  25.082  19.485  1.00  0.00     0.150 C 
BRANCH   4   5
HETATM    5  N1  UNL     1      20.275  25.362  20.345  1.00  0.00    -0.351 N 
HETATM    6  C7  UNL     1      21.484  24.637  20.263  1.00  0.00     0.219 C 
HETATM    7  O1  UNL     1      21.608  23.749  19.394  1.00  0.00    -0.273 OA
BRANCH   5   8
HETATM    8  C5  UNL     1      20.247  26.408  21.368  1.00  0.00     0.121 C 
HETATM    9  C6  UNL     1      20.617  27.695  20.656  1.00  0.00     0.026 C 
ENDBRANCH   5   8
BRANCH   6  10
HETATM   10  C8  UNL     1      22.658  24.857  21.164  1.00  0.00     0.103 C 
BRANCH  10  11
HETATM   11  C9  UNL     1      23.954  24.807  20.363  1.00  0.00     0.009 C 
BRANCH  11  12
HETATM   12  C10 UNL     1      24.247  26.170  19.771  1.00  0.00     0.002 C 
BRANCH  12  13
HETATM   13  C11 UNL     1      24.112  26.173  18.272  1.00  0.00     0.020 C 
BRANCH  13  14
HETATM   14  C12 UNL     1      23.123  27.168  17.745  1.00  0.00     0.125 C 
BRANCH  14  15
HETATM   15  N2  UNL     1      21.865  26.525  17.402  1.00  0.00    -0.337 N 
HETATM   16  C13 UNL     1      20.757  27.181  16.816  1.00  0.00     0.361 C 
HETATM   17  O2  UNL     1      20.745  28.399  16.532  1.00  0.00    -0.238 OA
ATOM     18  H2  UNL     1      21.775  25.528  17.599  1.00  0.00     0.164 HD
BRANCH  16  19
HETATM   19  O3  UNL     1      19.620  26.464  16.531  1.00  0.00    -0.294 OA
BRANCH  19  20
HETATM   20  C14 UNL     1      19.386  25.643  15.433  1.00  0.00     0.061 C 
HETATM   21  C15 UNL     1      18.183  26.220  14.677  1.00  0.00     0.046 C 
HETATM   22  C16 UNL     1      19.018  24.214  15.793  1.00  0.00     0.046 C 
HETATM   23  C17 UNL     1      20.523  25.595  14.439  1.00  0.00     0.046 C 
ENDBRANCH  19  20
ENDBRANCH  16  19
ENDBRANCH  14  15
ENDBRANCH  13  14
ENDBRANCH  12  13
ENDBRANCH  11  12
ENDBRANCH  10  11
ENDBRANCH   6  10
ENDBRANCH   4   5
ENDBRANCH   1   4
BRANCH   1  24
HETATM   24  N3  UNL     1      17.335  23.725  18.903  1.00  0.00    -0.348 N 
HETATM   25  C18 UNL     1      16.160  24.317  18.330  1.00  0.00     0.292 C 
HETATM   26  O4  UNL     1      15.774  25.368  18.880  1.00  0.00    -0.264 OA
ATOM     27  H3  UNL     1      17.703  22.866  18.496  1.00  0.00     0.163 HD
BRANCH  25  28
HETATM   28  C19 UNL     1      15.483  23.748  17.208  1.00  0.00     0.208 C 
BRANCH  28  29
HETATM   29  O5  UNL     1      15.457  24.532  16.161  1.00  0.00    -0.342 OA
ATOM     30  H5  UNL     1      14.584  24.670  15.812  1.00  0.00     0.219 HD
ENDBRANCH  28  29
BRANCH  28  31
HETATM   31  N4  UNL     1      14.870  22.507  17.098  1.00  0.00    -0.354 N 
HETATM   32  C20 UNL     1      13.932  22.291  15.964  1.00  0.00     0.145 C 
HETATM   33  C21 UNL     1      13.323  20.917  16.004  1.00  0.00     0.148 C 
HETATM   34  N5  UNL     1      12.847  20.605  17.351  1.00  0.00    -0.325 N 
HETATM   35  C22 UNL     1      11.657  19.871  17.522  1.00  0.00     0.363 C 
HETATM   36  C27 UNL     1      13.597  21.055  18.493  1.00  0.00     0.148 C 
HETATM   37  O6  UNL     1      10.973  19.452  16.581  1.00  0.00    -0.238 OA
HETATM   38  C28 UNL     1      15.017  21.410  17.990  1.00  0.00     0.145 C 
BRANCH  35  39
HETATM   39  O7  UNL     1      11.216  19.594  18.807  1.00  0.00    -0.294 OA
BRANCH  39  40
HETATM   40  C23 UNL     1      11.305  18.317  19.370  1.00  0.00     0.061 C 
HETATM   41  C24 UNL     1      11.592  18.553  20.863  1.00  0.00     0.046 C 
HETATM   42  C25 UNL     1      12.467  17.495  18.874  1.00  0.00     0.046 C 
HETATM   43  C26 UNL     1      10.034  17.546  19.269  1.00  0.00     0.046 C 
ENDBRANCH  39  40
ENDBRANCH  35  39
ENDBRANCH  28  31
ENDBRANCH  25  28
ENDBRANCH   1  24
TORSDOF 18
ENDMDL
MODEL 3
REMARK VINA RESULT: -7.873498933      1.347     11.319
REMARK  18 active torsions:
REMARK  status: ('A' for Active; 'I' for Inactive)
REMARK    1  A    between atoms: C2_2  and  C3_3 
REMARK    2  A    between atoms: C3_3  and  C4_4 
REMARK    3  A    between atoms: C3_3  and  N3_24 
REMARK    4  A    between atoms: C4_4  and  N1_5 
REMARK    5  A    between atoms: N1_5  and  C5_6 
REMARK       I    between atoms: N1_5  and  C7_8 
REMARK    6  A    between atoms: C7_8  and  C8_10 
REMARK    7  A    between atoms: C8_10  and  C9_11 
REMARK    8  A    between atoms: C9_11  and  C10_12 
REMARK    9  A    between atoms: C10_12  and  C11_13 
REMARK   10  A    between atoms: C11_13  and  C12_14 
REMARK   11  A    between atoms: C12_14  and  N2_15 
REMARK       I    between atoms: N2_15  and  C13_17 
REMARK   12  A    between atoms: C13_17  and  O3_19 
REMARK   13  A    between atoms: O3_19  and  C14_20 
REMARK       I    between atoms: N3_24  and  C18_26 
REMARK   14  A    between atoms: C18_26  and  C19_28 
REMARK   15  A    between atoms: C19_28  and  O5_29 
REMARK   16  A    between atoms: C19_28  and  N4_31 
REMARK       I    between atoms: N5_34  and  C22_35 
REMARK   17  A    between atoms: C22_35  and  O7_37 
REMARK   18  A    between atoms: O7_37  and  C23_38 
ROOT
HETATM    1  C3  UNL     1      14.424  21.422  16.156  1.00  0.00     0.102 C 
ENDROOT
BRANCH   1   2
HETATM    2  C2  UNL     1      13.751  21.864  14.904  1.00  0.00     0.022 C 
HETATM    3  C1  UNL     1      14.667  21.759  13.692  1.00  0.00     0.007 C 
ENDBRANCH   1   2
BRANCH   1   4
HETATM    4  C4  UNL     1      15.084  22.564  16.887  1.00  0.00     0.150 C 
BRANCH   4   5
HETATM    5  N1  UNL     1      16.346  22.323  17.472  1.00  0.00    -0.351 N 
HETATM    6  C7  UNL     1      16.477  22.035  18.848  1.00  0.00     0.219 C 
HETATM    7  O1  UNL     1      15.453  21.964  19.558  1.00  0.00    -0.273 OA
BRANCH   5   8
HETATM    8  C5  UNL     1      17.602  22.341  16.720  1.00  0.00     0.121 C 
HETATM    9  C6  UNL     1      17.610  23.650  15.955  1.00  0.00     0.026 C 
ENDBRANCH   5   8
BRANCH   6  10
HETATM   10  C8  UNL     1      17.784  21.804  19.537  1.00  0.00     0.103 C 
BRANCH  10  11
HETATM   11  C9  UNL     1      17.956  22.791  20.687  1.00  0.00     0.009 C 
BRANCH  11  12
HETATM   12  C10 UNL     1      18.191  24.184  20.140  1.00  0.00     0.002 C 
BRANCH  12  13
HETATM   13  C11 UNL     1      19.491  24.280  19.387  1.00  0.00     0.020 C 
BRANCH  13  14
HETATM   14  C12 UNL     1      20.028  25.674  19.262  1.00  0.00     0.125 C 
BRANCH  14  15
HETATM   15  N2  UNL     1      19.526  26.323  18.062  1.00  0.00    -0.337 N 
HETATM   16  C13 UNL     1      20.219  27.319  17.334  1.00  0.00     0.361 C 
HETATM   17  O2  UNL     1      21.347  27.752  17.656  1.00  0.00    -0.238 OA
ATOM     18  H2  UNL     1      18.608  26.039  17.719  1.00  0.00     0.164 HD
BRANCH  16  19
HETATM   19  O3  UNL     1      19.643  27.856  16.207  1.00  0.00    -0.294 OA
BRANCH  19  20
HETATM   20  C14 UNL     1      19.683  27.354  14.911  1.00  0.00     0.061 C 
HETATM   21  C15 UNL     1      20.264  28.450  14.012  1.00  0.00     0.046 C 
HETATM   22  C16 UNL     1      18.319  27.008  14.338  1.00  0.00     0.046 C 
HETATM   23  C17 UNL     1      20.580  26.149  14.738  1.00  0.00     0.046 C 
ENDBRANCH  19  20
ENDBRANCH  16  19
ENDBRANCH  14  15
ENDBRANCH  13  14
ENDBRANCH  12  13
ENDBRANCH  11  12
ENDBRANCH  10  11
ENDBRANCH   6  10
ENDBRANCH   4   5
ENDBRANCH   1   4
BRANCH   1  24
HETATM   24  N3  UNL     1      13.397  20.908  17.076  1.00  0.00    -0.348 N 
HETATM   25  C18 UNL     1      13.610  19.739  17.880  1.00  0.00     0.292 C 
HETATM   26  O4  UNL     1      14.726  19.199  17.745  1.00  0.00    -0.264 OA
ATOM     27  H3  UNL     1      12.505  21.398  17.143  1.00  0.00     0.163 HD
BRANCH  25  28
HETATM   28  C19 UNL     1      12.618  19.231  18.774  1.00  0.00     0.208 C 
BRANCH  28  29
HETATM   29  O5  UNL     1      12.855  19.511  20.030  1.00  0.00    -0.342 OA
ATOM     30  H5  UNL     1      12.657  20.411  20.262  1.00  0.00     0.219 HD
ENDBRANCH  28  29
BRANCH  28  31
HETATM   31  N4  UNL     1      11.474  18.502  18.483  1.00  0.00    -0.354 N 
HETATM   32  C20 UNL     1      11.539  17.021  18.614  1.00  0.00     0.145 C 
HETATM   33  C21 UNL     1      10.238  16.374  18.228  1.00  0.00     0.148 C 
HETATM   34  N5  UNL     1       9.743  16.926  16.968  1.00  0.00    -0.325 N 
HETATM   35  C22 UNL     1       9.098  16.085  16.039  1.00  0.00     0.363 C 
HETATM   36  C27 UNL     1       9.923  18.324  16.683  1.00  0.00     0.148 C 
HETATM   37  O6  UNL     1       8.909  14.878  16.229  1.00  0.00    -0.238 OA
HETATM   38  C28 UNL     1      10.232  19.023  18.029  1.00  0.00     0.145 C 
BRANCH  35  39
HETATM   39  O7  UNL     1       8.646  16.624  14.844  1.00  0.00    -0.294 OA
BRANCH  39  40
HETATM   40  C23 UNL     1       9.163  16.233  13.605  1.00  0.00     0.061 C 
HETATM   41  C24 UNL     1       9.155  17.509  12.744  1.00  0.00     0.046 C 
HETATM   42  C25 UNL     1       8.306  15.249  12.852  1.00  0.00     0.046 C 
HETATM   43  C26 UNL     1      10.571  15.751  13.687  1.00  0.00     0.046 C 
ENDBRANCH  39  40
ENDBRANCH  35  39
ENDBRANCH  28  31
ENDBRANCH  25  28
ENDBRANCH   1  24
TORSDOF 18
ENDMDL
MODEL 4
REMARK VINA RESULT: -7.818555469      2.332     11.724
REMARK  18 active torsions:
REMARK  status: ('A' for Active; 'I' for Inactive)
REMARK    1  A    between atoms: C2_2  and  C3_3 
REMARK    2  A    between atoms: C3_3  and  C4_4 
REMARK    3  A    between atoms: C3_3  and  N3_24 
REMARK    4  A    between atoms: C4_4  and  N1_5 
REMARK    5  A    between atoms: N1_5  and  C5_6 
REMARK       I    between atoms: N1_5  and  C7_8 
REMARK    6  A    between atoms: C7_8  and  C8_10 
REMARK    7  A    between atoms: C8_10  and  C9_11 
REMARK    8  A    between atoms: C9_11  and  C10_12 
REMARK    9  A    between atoms: C10_12  and  C11_13 
REMARK   10  A    between atoms: C11_13  and  C12_14 
REMARK   11  A    between atoms: C12_14  and  N2_15 
REMARK       I    between atoms: N2_15  and  C13_17 
REMARK   12  A    between atoms: C13_17  and  O3_19 
REMARK   13  A    between atoms: O3_19  and  C14_20 
REMARK       I    between atoms: N3_24  and  C18_26 
REMARK   14  A    between atoms: C18_26  and  C19_28 
REMARK   15  A    between atoms: C19_28  and  O5_29 
REMARK   16  A    between atoms: C19_28  and  N4_31 
REMARK       I    between atoms: N5_34  and  C22_35 
REMARK   17  A    between atoms: C22_35  and  O7_37 
REMARK   18  A    between atoms: O7_37  and  C23_38 
ROOT
HETATM    1  C3  UNL     1      16.875  24.850  16.659  1.00  0.00     0.102 C 
ENDROOT
BRANCH   1   2
HETATM    2  C2  UNL     1      17.002  26.098  15.856  1.00  0.00     0.022 C 
HETATM    3  C1  UNL     1      17.491  25.821  14.441  1.00  0.00     0.007 C 
ENDBRANCH   1   2
BRANCH   1   4
HETATM    4  C4  UNL     1      17.236  25.060  18.108  1.00  0.00     0.150 C 
BRANCH   4   5
HETATM    5  N1  UNL     1      18.282  24.276  18.641  1.00  0.00    -0.351 N 
HETATM    6  C7  UNL     1      19.576  24.809  18.832  1.00  0.00     0.219 C 
HETATM    7  O1  UNL     1      19.793  26.006  18.551  1.00  0.00    -0.273 OA
BRANCH   5   8
HETATM    8  C5  UNL     1      18.122  22.877  19.040  1.00  0.00     0.121 C 
HETATM    9  C6  UNL     1      17.342  22.903  20.341  1.00  0.00     0.026 C 
ENDBRANCH   5   8
BRANCH   6  10
HETATM   10  C8  UNL     1      20.738  24.026  19.357  1.00  0.00     0.103 C 
BRANCH  10  11
HETATM   11  C9  UNL     1      21.173  24.574  20.712  1.00  0.00     0.009 C 
BRANCH  11  12
HETATM   12  C10 UNL     1      22.645  24.930  20.675  1.00  0.00     0.002 C 
BRANCH  12  13
HETATM   13  C11 UNL     1      22.881  26.281  20.058  1.00  0.00     0.020 C 
BRANCH  13  14
HETATM   14  C12 UNL     1      23.610  26.241  18.748  1.00  0.00     0.125 C 
BRANCH  14  15
HETATM   15  N2  UNL     1      22.923  27.033  17.742  1.00  0.00    -0.337 N 
HETATM   16  C13 UNL     1      23.205  26.997  16.356  1.00  0.00     0.361 C 
HETATM   17  O2  UNL     1      24.090  26.273  15.849  1.00  0.00    -0.238 OA
ATOM     18  H2  UNL     1      22.183  27.660  18.058  1.00  0.00     0.164 HD
BRANCH  16  19
HETATM   19  O3  UNL     1      22.482  27.790  15.498  1.00  0.00    -0.294 OA
BRANCH  19  20
HETATM   20  C14 UNL     1      21.201  27.562  15.006  1.00  0.00     0.061 C 
HETATM   21  C15 UNL     1      21.074  28.327  13.684  1.00  0.00     0.046 C 
HETATM   22  C16 UNL     1      20.090  28.076  15.906  1.00  0.00     0.046 C 
HETATM   23  C17 UNL     1      20.907  26.115  14.685  1.00  0.00     0.046 C 
ENDBRANCH  19  20
ENDBRANCH  16  19
ENDBRANCH  14  15
ENDBRANCH  13  14
ENDBRANCH  12  13
ENDBRANCH  11  12
ENDBRANCH  10  11
ENDBRANCH   6  10
ENDBRANCH   4   5
ENDBRANCH   1   4
BRANCH   1  24
HETATM   24  N3  UNL     1      15.460  24.445  16.662  1.00  0.00    -0.348 N 
HETATM   25  C18 UNL     1      14.978  23.354  15.865  1.00  0.00     0.292 C 
HETATM   26  O4  UNL     1      15.845  22.775  15.179  1.00  0.00    -0.264 OA
ATOM     27  H3  UNL     1      14.801  24.957  17.248  1.00  0.00     0.163 HD
BRANCH  25  28
HETATM   28  C19 UNL     1      13.607  22.955  15.859  1.00  0.00     0.208 C 
BRANCH  28  29
HETATM   29  O5  UNL     1      12.770  23.961  15.877  1.00  0.00    -0.342 OA
ATOM     30  H5  UNL     1      12.411  24.171  15.023  1.00  0.00     0.219 HD
ENDBRANCH  28  29
BRANCH  28  31
HETATM   31  N4  UNL     1      13.072  21.674  15.839  1.00  0.00    -0.354 N 
HETATM   32  C20 UNL     1      11.982  21.388  14.868  1.00  0.00     0.145 C 
HETATM   33  C21 UNL     1      11.484  19.976  14.995  1.00  0.00     0.148 C 
HETATM   34  N5  UNL     1      11.252  19.636  16.398  1.00  0.00    -0.325 N 
HETATM   35  C22 UNL     1      10.159  18.822  16.751  1.00  0.00     0.363 C 
HETATM   36  C27 UNL     1      12.141  20.142  17.409  1.00  0.00     0.148 C 
HETATM   37  O6  UNL     1       9.363  18.353  15.928  1.00  0.00    -0.238 OA
HETATM   38  C28 UNL     1      13.435  20.593  16.689  1.00  0.00     0.145 C 
BRANCH  35  39
HETATM   39  O7  UNL     1       9.948  18.521  18.088  1.00  0.00    -0.294 OA
BRANCH  39  40
HETATM   40  C23 UNL     1      10.267  17.273  18.633  1.00  0.00     0.061 C 
HETATM   41  C24 UNL     1      10.602  17.551  20.109  1.00  0.00     0.046 C 
HETATM   42  C25 UNL     1      11.510  16.641  18.063  1.00  0.00     0.046 C 
HETATM   43  C26 UNL     1       9.126  16.315  18.600  1.00  0.00     0.046 C 
ENDBRANCH  39  40
ENDBRANCH  35  39
ENDBRANCH  28  31
ENDBRANCH  25  28
ENDBRANCH   1  24
TORSDOF 18
ENDMDL
MODEL 5
REMARK VINA RESULT: -7.810956518      1.406      3.840
REMARK  18 active torsions:
REMARK  status: ('A' for Active; 'I' for Inactive)
REMARK    1  A    between atoms: C2_2  and  C3_3 
REMARK    2  A    between atoms: C3_3  and  C4_4 
REMARK    3  A    between atoms: C3_3  and  N3_24 
REMARK    4  A    between atoms: C4_4  and  N1_5 
REMARK    5  A    between atoms: N1_5  and  C5_6 
REMARK       I    between atoms: N1_5  and  C7_8 
REMARK    6  A    between atoms: C7_8  and  C8_10 
REMARK    7  A    between atoms: C8_10  and  C9_11 
REMARK    8  A    between atoms: C9_11  and  C10_12 
REMARK    9  A    between atoms: C10_12  and  C11_13 
REMARK   10  A    between atoms: C11_13  and  C12_14 
REMARK   11  A    between atoms: C12_14  and  N2_15 
REMARK       I    between atoms: N2_15  and  C13_17 
REMARK   12  A    between atoms: C13_17  and  O3_19 
REMARK   13  A    between atoms: O3_19  and  C14_20 
REMARK       I    between atoms: N3_24  and  C18_26 
REMARK   14  A    between atoms: C18_26  and  C19_28 
REMARK   15  A    between atoms: C19_28  and  O5_29 
REMARK   16  A    between atoms: C19_28  and  N4_31 
REMARK       I    between atoms: N5_34  and  C22_35 
REMARK   17  A    between atoms: C22_35  and  O7_37 
REMARK   18  A    between atoms: O7_37  and  C23_38 
ROOT
HETATM    1  C3  UNL     1      13.140  21.071  17.238  1.00  0.00     0.102 C 
ENDROOT
BRANCH   1   2
HETATM    2  C2  UNL     1      12.426  20.537  18.430  1.00  0.00     0.022 C 
HETATM    3  C1  UNL     1      13.378  19.888  19.426  1.00  0.00     0.007 C 
ENDBRANCH   1   2
BRANCH   1   4
HETATM    4  C4  UNL     1      12.207  21.355  16.088  1.00  0.00     0.150 C 
BRANCH   4   5
HETATM    5  N1  UNL     1      12.455  20.691  14.867  1.00  0.00    -0.351 N 
HETATM    6  C7  UNL     1      11.397  20.229  14.053  1.00  0.00     0.219 C 
HETATM    7  O1  UNL     1      10.218  20.436  14.406  1.00  0.00    -0.273 OA
BRANCH   5   8
HETATM    8  C5  UNL     1      13.797  20.436  14.342  1.00  0.00     0.121 C 
HETATM    9  C6  UNL     1      14.305  21.772  13.833  1.00  0.00     0.026 C 
ENDBRANCH   5   8
BRANCH   6  10
HETATM   10  C8  UNL     1      11.588  19.489  12.767  1.00  0.00     0.103 C 
BRANCH  10  11
HETATM   11  C9  UNL     1      10.245  19.267  12.081  1.00  0.00     0.009 C 
BRANCH  11  12
HETATM   12  C10 UNL     1      10.329  18.069  11.159  1.00  0.00     0.002 C 
BRANCH  12  13
HETATM   13  C11 UNL     1      11.016  16.902  11.814  1.00  0.00     0.020 C 
BRANCH  13  14
HETATM   14  C12 UNL     1      10.145  16.123  12.753  1.00  0.00     0.125 C 
BRANCH  14  15
HETATM   15  N2  UNL     1      10.656  16.184  14.113  1.00  0.00    -0.337 N 
HETATM   16  C13 UNL     1      10.007  15.635  15.243  1.00  0.00     0.361 C 
HETATM   17  O2  UNL     1       8.910  15.037  15.189  1.00  0.00    -0.238 OA
ATOM     18  H2  UNL     1      11.548  16.657  14.262  1.00  0.00     0.164 HD
BRANCH  16  19
HETATM   19  O3  UNL     1      10.592  15.751  16.482  1.00  0.00    -0.294 OA
BRANCH  19  20
HETATM   20  C14 UNL     1      10.296  16.675  17.478  1.00  0.00     0.061 C 
HETATM   21  C15 UNL     1      11.544  16.818  18.356  1.00  0.00     0.046 C 
HETATM   22  C16 UNL     1       9.169  16.250  18.403  1.00  0.00     0.046 C 
HETATM   23  C17 UNL     1       9.981  18.062  16.967  1.00  0.00     0.046 C 
ENDBRANCH  19  20
ENDBRANCH  16  19
ENDBRANCH  14  15
ENDBRANCH  13  14
ENDBRANCH  12  13
ENDBRANCH  11  12
ENDBRANCH  10  11
ENDBRANCH   6  10
ENDBRANCH   4   5
ENDBRANCH   1   4
BRANCH   1  24
HETATM   24  N3  UNL     1      13.729  22.371  17.596  1.00  0.00    -0.348 N 
HETATM   25  C18 UNL     1      15.147  22.595  17.586  1.00  0.00     0.292 C 
HETATM   26  O4  UNL     1      15.836  21.612  17.246  1.00  0.00    -0.264 OA
ATOM     27  H3  UNL     1      13.110  23.137  17.861  1.00  0.00     0.163 HD
BRANCH  25  28
HETATM   28  C19 UNL     1      15.727  23.852  17.933  1.00  0.00     0.208 C 
BRANCH  28  29
HETATM   29  O5  UNL     1      14.881  24.684  18.484  1.00  0.00    -0.342 OA
ATOM     30  H5  UNL     1      15.151  25.593  18.428  1.00  0.00     0.219 HD
ENDBRANCH  28  29
BRANCH  28  31
HETATM   31  N4  UNL     1      17.035  24.285  17.763  1.00  0.00    -0.354 N 
HETATM   32  C20 UNL     1      17.789  24.717  18.970  1.00  0.00     0.145 C 
HETATM   33  C21 UNL     1      19.171  25.193  18.618  1.00  0.00     0.148 C 
HETATM   34  N5  UNL     1      19.126  26.108  17.479  1.00  0.00    -0.325 N 
HETATM   35  C22 UNL     1      19.992  27.218  17.436  1.00  0.00     0.363 C 
HETATM   36  C27 UNL     1      18.191  25.871  16.413  1.00  0.00     0.148 C 
HETATM   37  O6  UNL     1      20.820  27.471  18.319  1.00  0.00    -0.238 OA
HETATM   38  C28 UNL     1      17.734  24.397  16.530  1.00  0.00     0.145 C 
BRANCH  35  39
HETATM   39  O7  UNL     1      19.926  28.082  16.354  1.00  0.00    -0.294 OA
BRANCH  39  40
HETATM   40  C23 UNL     1      20.860  28.049  15.313  1.00  0.00     0.061 C 
HETATM   41  C24 UNL     1      20.031  28.194  14.024  1.00  0.00     0.046 C 
HETATM   42  C25 UNL     1      21.585  26.737  15.164  1.00  0.00     0.046 C 
HETATM   43  C26 UNL     1      21.826  29.182  15.361  1.00  0.00     0.046 C 
ENDBRANCH  39  40
ENDBRANCH  35  39
ENDBRANCH  28  31
ENDBRANCH  25  28
ENDBRANCH   1  24
TORSDOF 18
ENDMDL
