MODEL 1
REMARK VINA RESULT: -8.916876767      0.000      0.000
REMARK  13 active torsions:
REMARK  status: ('A' for Active; 'I' for Inactive)
REMARK    1  A    between atoms: C2_2  and  C3_3 
REMARK    2  A    between atoms: C3_3  and  C4_4 
REMARK    3  A    between atoms: C4_4  and  C5_5 
REMARK    4  A    between atoms: C5_5  and  N1_6 
REMARK    5  A    between atoms: C9_13  and  N3_14 
REMARK    6  A    between atoms: N4_17  and  C12_18 
REMARK    7  A    between atoms: C12_18  and  C13_19 
REMARK       I    between atoms: N5_24  and  C17_25 
REMARK    8  A    between atoms: C17_25  and  C18_27 
REMARK    9  A    between atoms: C18_27  and  N6_28 
REMARK   10  A    between atoms: C18_27  and  C19_32 
REMARK   11  A    between atoms: C19_32  and  C20_33 
REMARK   12  A    between atoms: C20_33  and  C21_34 
REMARK   13  A    between atoms: C27_40  and  O4_41 
ROOT
HETATM    1  N3  UNL     1      15.110  22.994  15.702  1.00  0.00    -0.377 N 
HETATM    2  C10 UNL     1      13.856  23.678  15.786  1.00  0.00     0.153 C 
HETATM    3  C11 UNL     1      12.708  23.094  15.071  1.00  0.00     0.292 C 
HETATM    4  N4  UNL     1      12.904  21.794  14.471  1.00  0.00     0.092 N 
HETATM    5  C24 UNL     1      14.184  21.721  13.826  1.00  0.00     0.292 C 
HETATM    6  C25 UNL     1      15.261  21.834  14.876  1.00  0.00     0.153 C 
ENDROOT
BRANCH   1   7
HETATM    7  C9  UNL     1      16.216  23.482  16.442  1.00  0.00     0.035 A 
HETATM    8  C8  UNL     1      16.803  24.717  16.194  1.00  0.00     0.060 A 
HETATM    9  C7  UNL     1      17.873  25.173  16.931  1.00  0.00     0.057 A 
HETATM   10  N2  UNL     1      18.435  26.362  16.686  1.00  0.00    -0.307 N 
HETATM   11  C29 UNL     1      18.369  24.389  17.931  1.00  0.00     0.092 A 
HETATM   12  C6  UNL     1      19.499  26.807  17.420  1.00  0.00     0.329 A 
ATOM     13  H2  UNL     1      18.063  26.946  15.938  1.00  0.00     0.170 HD
HETATM   14  N1  UNL     1      20.016  26.066  18.412  1.00  0.00    -0.265 N 
HETATM   15  O1  UNL     1      19.951  27.936  17.108  1.00  0.00    -0.246 OA
HETATM   16  C30 UNL     1      19.432  24.850  18.652  1.00  0.00     0.266 A 
HETATM   17  O5  UNL     1      19.896  24.137  19.575  1.00  0.00    -0.267 OA
HETATM   18  C27 UNL     1      17.836  23.142  18.238  1.00  0.00     0.088 A 
HETATM   19  C26 UNL     1      16.774  22.737  17.476  1.00  0.00     0.067 A 
BRANCH  14  20
HETATM   20  C5  UNL     1      21.132  26.533  19.177  1.00  0.00     0.137 C 
BRANCH  20  21
HETATM   21  C4  UNL     1      20.754  27.352  20.376  1.00  0.00     0.020 C 
BRANCH  21  22
HETATM   22  C3  UNL     1      21.223  26.744  21.666  1.00  0.00     0.001 C 
BRANCH  22  23
HETATM   23  C2  UNL     1      22.289  25.691  21.451  1.00  0.00    -0.004 C 
HETATM   24  C1  UNL     1      23.289  25.679  22.578  1.00  0.00     0.005 C 
ENDBRANCH  22  23
ENDBRANCH  21  22
ENDBRANCH  20  21
ENDBRANCH  14  20
BRANCH  18  25
HETATM   25  O4  UNL     1      18.369  22.371  19.268  1.00  0.00    -0.355 OA
HETATM   26  C28 UNL     1      17.465  21.928  20.262  1.00  0.00     0.210 C 
ENDBRANCH  18  25
ENDBRANCH   1   7
BRANCH   4  27
HETATM   27  C12 UNL     1      12.617  20.717  15.374  1.00  0.00     0.278 C 
BRANCH  27  28
HETATM   28  C13 UNL     1      11.233  20.857  15.964  1.00  0.00     0.033 C 
HETATM   29  C14 UNL     1      10.200  21.072  14.878  1.00  0.00     0.017 C 
HETATM   30  C15 UNL     1      10.204  19.894  13.919  1.00  0.00     0.104 C 
HETATM   31  C16 UNL     1      10.336  18.622  14.700  1.00  0.00     0.226 C 
HETATM   32  O2  UNL     1      10.459  17.512  14.110  1.00  0.00    -0.273 OA
HETATM   33  N5  UNL     1      10.328  18.619  16.120  1.00  0.00    -0.286 N 
HETATM   34  C17 UNL     1       9.681  17.534  16.799  1.00  0.00     0.257 C 
HETATM   35  C23 UNL     1      10.961  19.688  16.843  1.00  0.00     0.141 C 
HETATM   36  O3  UNL     1       9.136  16.643  16.123  1.00  0.00    -0.271 OA
BRANCH  34  37
HETATM   37  C18 UNL     1       9.648  17.455  18.271  1.00  0.00     0.275 C 
BRANCH  37  38
HETATM   38  N6  UNL     1       8.518  16.581  18.611  1.00  0.00    -0.066 N 
ATOM     39  H63 UNL     1       7.836  17.023  19.229  1.00  0.00     0.275 HD
ATOM     40  H62 UNL     1       7.887  16.411  17.828  1.00  0.00     0.275 HD
ATOM     41  H61 UNL     1       8.923  15.728  18.998  1.00  0.00     0.275 HD
ENDBRANCH  37  38
BRANCH  37  42
HETATM   42  C19 UNL     1      10.933  16.789  18.741  1.00  0.00     0.042 C 
BRANCH  42  43
HETATM   43  C20 UNL     1      11.378  17.324  20.091  1.00  0.00     0.002 C 
BRANCH  43  44
HETATM   44  C21 UNL     1      12.676  18.092  19.810  1.00  0.00    -0.004 C 
HETATM   45  C22 UNL     1      13.372  17.497  18.627  1.00  0.00     0.005 C 
ENDBRANCH  43  44
ENDBRANCH  42  43
ENDBRANCH  37  42
ENDBRANCH  34  37
ENDBRANCH  27  28
ENDBRANCH   4  27
TORSDOF 13
ENDMDL
MODEL 2
REMARK VINA RESULT: -8.852297029      2.286     11.536
REMARK  13 active torsions:
REMARK  status: ('A' for Active; 'I' for Inactive)
REMARK    1  A    between atoms: C2_2  and  C3_3 
REMARK    2  A    between atoms: C3_3  and  C4_4 
REMARK    3  A    between atoms: C4_4  and  C5_5 
REMARK    4  A    between atoms: C5_5  and  N1_6 
REMARK    5  A    between atoms: C9_13  and  N3_14 
REMARK    6  A    between atoms: N4_17  and  C12_18 
REMARK    7  A    between atoms: C12_18  and  C13_19 
REMARK       I    between atoms: N5_24  and  C17_25 
REMARK    8  A    between atoms: C17_25  and  C18_27 
REMARK    9  A    between atoms: C18_27  and  N6_28 
REMARK   10  A    between atoms: C18_27  and  C19_32 
REMARK   11  A    between atoms: C19_32  and  C20_33 
REMARK   12  A    between atoms: C20_33  and  C21_34 
REMARK   13  A    between atoms: C27_40  and  O4_41 
ROOT
HETATM    1  N3  UNL     1      14.974  22.705  17.723  1.00  0.00    -0.377 N 
HETATM    2  C10 UNL     1      14.632  24.086  17.867  1.00  0.00     0.153 C 
HETATM    3  C11 UNL     1      15.733  25.049  18.049  1.00  0.00     0.292 C 
HETATM    4  N4  UNL     1      17.077  24.538  17.912  1.00  0.00     0.092 N 
HETATM    5  C24 UNL     1      17.205  23.265  18.563  1.00  0.00     0.292 C 
HETATM    6  C25 UNL     1      16.332  22.266  17.845  1.00  0.00     0.153 C 
ENDROOT
BRANCH   1   7
HETATM    7  C9  UNL     1      13.949  21.761  17.464  1.00  0.00     0.035 A 
HETATM    8  C8  UNL     1      13.283  21.076  18.474  1.00  0.00     0.060 A 
HETATM    9  C7  UNL     1      12.285  20.168  18.198  1.00  0.00     0.057 A 
HETATM   10  N2  UNL     1      11.649  19.511  19.175  1.00  0.00    -0.307 N 
HETATM   11  C29 UNL     1      11.944  19.935  16.899  1.00  0.00     0.092 A 
HETATM   12  C6  UNL     1      10.661  18.609  18.895  1.00  0.00     0.329 A 
ATOM     13  H2  UNL     1      11.906  19.687  20.146  1.00  0.00     0.170 HD
HETATM   14  N1  UNL     1      10.296  18.351  17.630  1.00  0.00    -0.265 N 
HETATM   15  O1  UNL     1      10.129  18.048  19.884  1.00  0.00    -0.246 OA
HETATM   16  C30 UNL     1      10.956  19.030  16.639  1.00  0.00     0.266 A 
HETATM   17  O5  UNL     1      10.633  18.807  15.446  1.00  0.00    -0.267 OA
HETATM   18  C27 UNL     1      12.565  20.579  15.835  1.00  0.00     0.088 A 
HETATM   19  C26 UNL     1      13.549  21.472  16.163  1.00  0.00     0.067 A 
BRANCH  14  20
HETATM   20  C5  UNL     1       9.264  17.404  17.338  1.00  0.00     0.137 C 
BRANCH  20  21
HETATM   21  C4  UNL     1       9.749  15.991  17.200  1.00  0.00     0.020 C 
BRANCH  21  22
HETATM   22  C3  UNL     1       9.049  15.042  18.131  1.00  0.00     0.001 C 
BRANCH  22  23
HETATM   23  C2  UNL     1       8.677  13.742  17.452  1.00  0.00    -0.004 C 
HETATM   24  C1  UNL     1       9.406  13.572  16.145  1.00  0.00     0.005 C 
ENDBRANCH  22  23
ENDBRANCH  21  22
ENDBRANCH  20  21
ENDBRANCH  14  20
BRANCH  18  25
HETATM   25  O4  UNL     1      12.187  20.315  14.520  1.00  0.00    -0.355 OA
HETATM   26  C28 UNL     1      13.232  20.102  13.592  1.00  0.00     0.210 C 
ENDBRANCH  18  25
ENDBRANCH   1   7
BRANCH   4  27
HETATM   27  C12 UNL     1      17.552  24.579  16.559  1.00  0.00     0.278 C 
BRANCH  27  28
HETATM   28  C13 UNL     1      19.037  24.307  16.496  1.00  0.00     0.033 C 
HETATM   29  C14 UNL     1      19.550  24.427  15.076  1.00  0.00     0.017 C 
HETATM   30  C15 UNL     1      19.287  25.827  14.548  1.00  0.00     0.104 C 
HETATM   31  C16 UNL     1      19.583  26.825  15.626  1.00  0.00     0.226 C 
HETATM   32  O2  UNL     1      19.346  28.054  15.451  1.00  0.00    -0.273 OA
HETATM   33  N5  UNL     1      20.135  26.429  16.873  1.00  0.00    -0.286 N 
HETATM   34  C17 UNL     1      21.090  27.293  17.504  1.00  0.00     0.257 C 
HETATM   35  C23 UNL     1      19.732  25.187  17.473  1.00  0.00     0.141 C 
HETATM   36  O3  UNL     1      21.414  28.348  16.933  1.00  0.00    -0.271 OA
BRANCH  34  37
HETATM   37  C18 UNL     1      21.692  26.955  18.807  1.00  0.00     0.275 C 
BRANCH  37  38
HETATM   38  N6  UNL     1      23.021  27.581  18.822  1.00  0.00    -0.066 N 
ATOM     39  H63 UNL     1      23.338  27.879  17.899  1.00  0.00     0.275 HD
ATOM     40  H62 UNL     1      23.030  28.501  19.261  1.00  0.00     0.275 HD
ATOM     41  H61 UNL     1      23.647  26.912  19.269  1.00  0.00     0.275 HD
ENDBRANCH  37  38
BRANCH  37  42
HETATM   42  C19 UNL     1      20.847  27.590  19.901  1.00  0.00     0.042 C 
BRANCH  42  43
HETATM   43  C20 UNL     1      21.007  26.862  21.225  1.00  0.00     0.002 C 
BRANCH  43  44
HETATM   44  C21 UNL     1      20.946  25.371  20.873  1.00  0.00    -0.004 C 
HETATM   45  C22 UNL     1      19.552  24.862  21.061  1.00  0.00     0.005 C 
ENDBRANCH  43  44
ENDBRANCH  42  43
ENDBRANCH  37  42
ENDBRANCH  34  37
ENDBRANCH  27  28
ENDBRANCH   4  27
TORSDOF 13
ENDMDL
MODEL 3
REMARK VINA RESULT: -8.798935902      3.026      5.195
REMARK  13 active torsions:
REMARK  status: ('A' for Active; 'I' for Inactive)
REMARK    1  A    between atoms: C2_2  and  C3_3 
REMARK    2  A    between atoms: C3_3  and  C4_4 
REMARK    3  A    between atoms: C4_4  and  C5_5 
REMARK    4  A    between atoms: C5_5  and  N1_6 
REMARK    5  A    between atoms: C9_13  and  N3_14 
REMARK    6  A    between atoms: N4_17  and  C12_18 
REMARK    7  A    between atoms: C12_18  and  C13_19 
REMARK       I    between atoms: N5_24  and  C17_25 
REMARK    8  A    between atoms: C17_25  and  C18_27 
REMARK    9  A    between atoms: C18_27  and  N6_28 
REMARK   10  A    between atoms: C18_27  and  C19_32 
REMARK   11  A    between atoms: C19_32  and  C20_33 
REMARK   12  A    between atoms: C20_33  and  C21_34 
REMARK   13  A    between atoms: C27_40  and  O4_41 
ROOT
HETATM    1  N3  UNL     1      15.283  22.552  17.370  1.00  0.00    -0.377 N 
HETATM    2  C10 UNL     1      15.658  21.189  17.150  1.00  0.00     0.153 C 
HETATM    3  C11 UNL     1      14.870  20.144  17.828  1.00  0.00     0.292 C 
HETATM    4  N4  UNL     1      13.687  20.575  18.536  1.00  0.00     0.092 N 
HETATM    5  C24 UNL     1      13.944  21.781  19.270  1.00  0.00     0.292 C 
HETATM    6  C25 UNL     1      14.238  22.889  18.290  1.00  0.00     0.153 C 
ENDROOT
BRANCH   1   7
HETATM    7  C9  UNL     1      15.964  23.579  16.671  1.00  0.00     0.035 A 
HETATM    8  C8  UNL     1      16.891  24.418  17.280  1.00  0.00     0.060 A 
HETATM    9  C7  UNL     1      17.546  25.405  16.578  1.00  0.00     0.057 A 
HETATM   10  N2  UNL     1      18.436  26.210  17.170  1.00  0.00    -0.307 N 
HETATM   11  C29 UNL     1      17.276  25.563  15.251  1.00  0.00     0.092 A 
HETATM   12  C6  UNL     1      19.081  27.190  16.469  1.00  0.00     0.329 A 
ATOM     13  H2  UNL     1      18.636  26.090  18.163  1.00  0.00     0.170 HD
HETATM   14  N1  UNL     1      18.844  27.378  15.162  1.00  0.00    -0.265 N 
HETATM   15  O1  UNL     1      19.896  27.889  17.120  1.00  0.00    -0.246 OA
HETATM   16  C30 UNL     1      17.930  26.548  14.568  1.00  0.00     0.266 A 
HETATM   17  O5  UNL     1      17.690  26.702  13.345  1.00  0.00    -0.267 OA
HETATM   18  C27 UNL     1      16.362  24.765  14.573  1.00  0.00     0.088 A 
HETATM   19  C26 UNL     1      15.739  23.799  15.316  1.00  0.00     0.067 A 
BRANCH  14  20
HETATM   20  C5  UNL     1      19.518  28.407  14.430  1.00  0.00     0.137 C 
BRANCH  20  21
HETATM   21  C4  UNL     1      20.988  28.166  14.247  1.00  0.00     0.020 C 
BRANCH  21  22
HETATM   22  C3  UNL     1      21.780  29.440  14.174  1.00  0.00     0.001 C 
BRANCH  22  23
HETATM   23  C2  UNL     1      23.107  29.333  14.895  1.00  0.00    -0.004 C 
HETATM   24  C1  UNL     1      23.094  28.223  15.913  1.00  0.00     0.005 C 
ENDBRANCH  22  23
ENDBRANCH  21  22
ENDBRANCH  20  21
ENDBRANCH  14  20
BRANCH  18  25
HETATM   25  O4  UNL     1      16.114  24.956  13.215  1.00  0.00    -0.355 OA
HETATM   26  C28 UNL     1      15.250  24.026  12.592  1.00  0.00     0.210 C 
ENDBRANCH  18  25
ENDBRANCH   1   7
BRANCH   4  27
HETATM   27  C12 UNL     1      12.521  20.609  17.701  1.00  0.00     0.278 C 
BRANCH  27  28
HETATM   28  C13 UNL     1      12.232  19.246  17.115  1.00  0.00     0.033 C 
HETATM   29  C14 UNL     1      11.071  18.585  17.829  1.00  0.00     0.017 C 
HETATM   30  C15 UNL     1       9.826  19.446  17.699  1.00  0.00     0.104 C 
HETATM   31  C16 UNL     1       9.745  19.989  16.305  1.00  0.00     0.226 C 
HETATM   32  O2  UNL     1       8.842  20.813  15.985  1.00  0.00    -0.273 OA
HETATM   33  N5  UNL     1      10.672  19.601  15.302  1.00  0.00    -0.286 N 
HETATM   34  C17 UNL     1      10.198  19.439  13.957  1.00  0.00     0.257 C 
HETATM   35  C23 UNL     1      12.049  19.380  15.645  1.00  0.00     0.141 C 
HETATM   36  O3  UNL     1       8.992  19.628  13.719  1.00  0.00    -0.271 OA
BRANCH  34  37
HETATM   37  C18 UNL     1      11.106  19.054  12.861  1.00  0.00     0.275 C 
BRANCH  37  38
HETATM   38  N6  UNL     1      11.282  17.600  12.963  1.00  0.00    -0.066 N 
ATOM     39  H63 UNL     1      12.250  17.319  13.119  1.00  0.00     0.275 HD
ATOM     40  H62 UNL     1      10.897  17.206  13.821  1.00  0.00     0.275 HD
ATOM     41  H61 UNL     1      10.875  17.202  12.117  1.00  0.00     0.275 HD
ENDBRANCH  37  38
BRANCH  37  42
HETATM   42  C19 UNL     1      10.416  19.366  11.541  1.00  0.00     0.042 C 
BRANCH  42  43
HETATM   43  C20 UNL     1      10.394  18.156  10.623  1.00  0.00     0.002 C 
BRANCH  43  44
HETATM   44  C21 UNL     1       9.088  18.280   9.828  1.00  0.00    -0.004 C 
HETATM   45  C22 UNL     1       8.360  19.522  10.237  1.00  0.00     0.005 C 
ENDBRANCH  43  44
ENDBRANCH  42  43
ENDBRANCH  37  42
ENDBRANCH  34  37
ENDBRANCH  27  28
ENDBRANCH   4  27
TORSDOF 13
ENDMDL
MODEL 4
REMARK VINA RESULT: -8.731383459      2.836     11.713
REMARK  13 active torsions:
REMARK  status: ('A' for Active; 'I' for Inactive)
REMARK    1  A    between atoms: C2_2  and  C3_3 
REMARK    2  A    between atoms: C3_3  and  C4_4 
REMARK    3  A    between atoms: C4_4  and  C5_5 
REMARK    4  A    between atoms: C5_5  and  N1_6 
REMARK    5  A    between atoms: C9_13  and  N3_14 
REMARK    6  A    between atoms: N4_17  and  C12_18 
REMARK    7  A    between atoms: C12_18  and  C13_19 
REMARK       I    between atoms: N5_24  and  C17_25 
REMARK    8  A    between atoms: C17_25  and  C18_27 
REMARK    9  A    between atoms: C18_27  and  N6_28 
REMARK   10  A    between atoms: C18_27  and  C19_32 
REMARK   11  A    between atoms: C19_32  and  C20_33 
REMARK   12  A    between atoms: C20_33  and  C21_34 
REMARK   13  A    between atoms: C27_40  and  O4_41 
ROOT
HETATM    1  N3  UNL     1      16.941  23.003  19.200  1.00  0.00    -0.377 N 
HETATM    2  C10 UNL     1      16.739  24.264  19.845  1.00  0.00     0.153 C 
HETATM    3  C11 UNL     1      17.784  24.735  20.770  1.00  0.00     0.292 C 
HETATM    4  N4  UNL     1      19.001  23.958  20.832  1.00  0.00     0.092 N 
HETATM    5  C24 UNL     1      18.706  22.553  20.837  1.00  0.00     0.292 C 
HETATM    6  C25 UNL     1      18.075  22.188  19.516  1.00  0.00     0.153 C 
ENDROOT
BRANCH   1   7
HETATM    7  C9  UNL     1      15.997  22.556  18.242  1.00  0.00     0.035 A 
HETATM    8  C8  UNL     1      14.828  21.890  18.591  1.00  0.00     0.060 A 
HETATM    9  C7  UNL     1      13.922  21.470  17.642  1.00  0.00     0.057 A 
HETATM   10  N2  UNL     1      12.799  20.828  17.983  1.00  0.00    -0.307 N 
HETATM   11  C29 UNL     1      14.182  21.716  16.326  1.00  0.00     0.092 A 
HETATM   12  C6  UNL     1      11.905  20.412  17.037  1.00  0.00     0.329 A 
ATOM     13  H2  UNL     1      12.607  20.645  18.968  1.00  0.00     0.170 HD
HETATM   14  N1  UNL     1      12.123  20.634  15.732  1.00  0.00    -0.265 N 
HETATM   15  O1  UNL     1      10.885  19.819  17.464  1.00  0.00    -0.246 OA
HETATM   16  C30 UNL     1      13.277  21.292  15.395  1.00  0.00     0.266 A 
HETATM   17  O5  UNL     1      13.506  21.513  14.180  1.00  0.00    -0.267 OA
HETATM   18  C27 UNL     1      15.329  22.376  15.899  1.00  0.00     0.088 A 
HETATM   19  C26 UNL     1      16.196  22.771  16.882  1.00  0.00     0.067 A 
BRANCH  14  20
HETATM   20  C5  UNL     1      11.188  20.195  14.742  1.00  0.00     0.137 C 
BRANCH  20  21
HETATM   21  C4  UNL     1      10.083  21.173  14.466  1.00  0.00     0.020 C 
BRANCH  21  22
HETATM   22  C3  UNL     1       9.147  20.703  13.389  1.00  0.00     0.001 C 
BRANCH  22  23
HETATM   23  C2  UNL     1       9.432  19.280  12.961  1.00  0.00    -0.004 C 
HETATM   24  C1  UNL     1       9.511  19.159  11.462  1.00  0.00     0.005 C 
ENDBRANCH  22  23
ENDBRANCH  21  22
ENDBRANCH  20  21
ENDBRANCH  14  20
BRANCH  18  25
HETATM   25  O4  UNL     1      15.558  22.609  14.545  1.00  0.00    -0.355 OA
HETATM   26  C28 UNL     1      15.912  23.929  14.181  1.00  0.00     0.210 C 
ENDBRANCH  18  25
ENDBRANCH   1   7
BRANCH   4  27
HETATM   27  C12 UNL     1      19.974  24.371  19.863  1.00  0.00     0.278 C 
BRANCH  27  28
HETATM   28  C13 UNL     1      20.212  25.862  19.934  1.00  0.00     0.033 C 
HETATM   29  C14 UNL     1      21.056  26.219  21.139  1.00  0.00     0.017 C 
HETATM   30  C15 UNL     1      22.399  25.514  21.058  1.00  0.00     0.104 C 
HETATM   31  C16 UNL     1      22.900  25.568  19.646  1.00  0.00     0.226 C 
HETATM   32  O2  UNL     1      23.958  24.962  19.314  1.00  0.00    -0.273 OA
HETATM   33  N5  UNL     1      22.210  26.295  18.641  1.00  0.00    -0.286 N 
HETATM   34  C17 UNL     1      22.978  26.986  17.647  1.00  0.00     0.257 C 
HETATM   35  C23 UNL     1      20.773  26.324  18.636  1.00  0.00     0.141 C 
HETATM   36  O3  UNL     1      24.219  26.940  17.708  1.00  0.00    -0.271 OA
BRANCH  34  37
HETATM   37  C18 UNL     1      22.330  27.747  16.562  1.00  0.00     0.275 C 
BRANCH  37  38
HETATM   38  N6  UNL     1      23.231  28.862  16.245  1.00  0.00    -0.066 N 
ATOM     39  H63 UNL     1      23.177  29.630  16.915  1.00  0.00     0.275 HD
ATOM     40  H62 UNL     1      24.216  28.639  16.388  1.00  0.00     0.275 HD
ATOM     41  H61 UNL     1      23.014  29.142  15.289  1.00  0.00     0.275 HD
ENDBRANCH  37  38
BRANCH  37  42
HETATM   42  C19 UNL     1      22.229  26.845  15.342  1.00  0.00     0.042 C 
BRANCH  42  43
HETATM   43  C20 UNL     1      20.789  26.675  14.890  1.00  0.00     0.002 C 
BRANCH  43  44
HETATM   44  C21 UNL     1      20.622  25.172  14.635  1.00  0.00    -0.004 C 
HETATM   45  C22 UNL     1      19.471  24.646  15.433  1.00  0.00     0.005 C 
ENDBRANCH  43  44
ENDBRANCH  42  43
ENDBRANCH  37  42
ENDBRANCH  34  37
ENDBRANCH  27  28
ENDBRANCH   4  27
TORSDOF 13
ENDMDL
MODEL 5
REMARK VINA RESULT: -8.714712553      2.727      4.269
REMARK  13 active torsions:
REMARK  status: ('A' for Active; 'I' for Inactive)
REMARK    1  A    between atoms: C2_2  and  C3_3 
REMARK    2  A    between atoms: C3_3  and  C4_4 
REMARK    3  A    between atoms: C4_4  and  C5_5 
REMARK    4  A    between atoms: C5_5  and  N1_6 
REMARK    5  A    between atoms: C9_13  and  N3_14 
REMARK    6  A    between atoms: N4_17  and  C12_18 
REMARK    7  A    between atoms: C12_18  and  C13_19 
REMARK       I    between atoms: N5_24  and  C17_25 
REMARK    8  A    between atoms: C17_25  and  C18_27 
REMARK    9  A    between atoms: C18_27  and  N6_28 
REMARK   10  A    between atoms: C18_27  and  C19_32 
REMARK   11  A    between atoms: C19_32  and  C20_33 
REMARK   12  A    between atoms: C20_33  and  C21_34 
REMARK   13  A    between atoms: C27_40  and  O4_41 
ROOT
HETATM    1  N3  UNL     1      14.959  21.971  17.316  1.00  0.00    -0.377 N 
HETATM    2  C10 UNL     1      15.487  20.646  17.204  1.00  0.00     0.153 C 
HETATM    3  C11 UNL     1      14.693  19.542  17.773  1.00  0.00     0.292 C 
HETATM    4  N4  UNL     1      13.373  19.871  18.260  1.00  0.00     0.092 N 
HETATM    5  C24 UNL     1      13.393  21.107  18.989  1.00  0.00     0.292 C 
HETATM    6  C25 UNL     1      13.748  22.223  18.037  1.00  0.00     0.153 C 
ENDROOT
BRANCH   1   7
HETATM    7  C9  UNL     1      15.655  23.047  16.709  1.00  0.00     0.035 A 
HETATM    8  C8  UNL     1      16.627  23.785  17.373  1.00  0.00     0.060 A 
HETATM    9  C7  UNL     1      17.294  24.823  16.760  1.00  0.00     0.057 A 
HETATM   10  N2  UNL     1      18.228  25.531  17.405  1.00  0.00    -0.307 N 
HETATM   11  C29 UNL     1      16.991  25.131  15.467  1.00  0.00     0.092 A 
HETATM   12  C6  UNL     1      18.885  26.561  16.792  1.00  0.00     0.329 A 
ATOM     13  H2  UNL     1      18.453  25.298  18.372  1.00  0.00     0.170 HD
HETATM   14  N1  UNL     1      18.616  26.897  15.522  1.00  0.00    -0.265 N 
HETATM   15  O1  UNL     1      19.742  27.160  17.487  1.00  0.00    -0.246 OA
HETATM   16  C30 UNL     1      17.657  26.164  14.873  1.00  0.00     0.266 A 
HETATM   17  O5  UNL     1      17.386  26.457  13.682  1.00  0.00    -0.267 OA
HETATM   18  C27 UNL     1      16.030  24.440  14.738  1.00  0.00     0.088 A 
HETATM   19  C26 UNL     1      15.397  23.418  15.393  1.00  0.00     0.067 A 
BRANCH  14  20
HETATM   20  C5  UNL     1      19.302  27.977  14.882  1.00  0.00     0.137 C 
BRANCH  20  21
HETATM   21  C4  UNL     1      20.607  27.587  14.252  1.00  0.00     0.020 C 
BRANCH  21  22
HETATM   22  C3  UNL     1      21.647  28.666  14.355  1.00  0.00     0.001 C 
BRANCH  22  23
HETATM   23  C2  UNL     1      22.488  28.534  15.607  1.00  0.00    -0.004 C 
HETATM   24  C1  UNL     1      22.917  27.109  15.837  1.00  0.00     0.005 C 
ENDBRANCH  22  23
ENDBRANCH  21  22
ENDBRANCH  20  21
ENDBRANCH  14  20
BRANCH  18  25
HETATM   25  O4  UNL     1      15.749  24.784  13.418  1.00  0.00    -0.355 OA
HETATM   26  C28 UNL     1      15.172  23.778  12.609  1.00  0.00     0.210 C 
ENDBRANCH  18  25
ENDBRANCH   1   7
BRANCH   4  27
HETATM   27  C12 UNL     1      12.367  19.784  17.241  1.00  0.00     0.278 C 
BRANCH  27  28
HETATM   28  C13 UNL     1      10.987  19.672  17.848  1.00  0.00     0.033 C 
HETATM   29  C14 UNL     1       9.991  20.524  17.089  1.00  0.00     0.017 C 
HETATM   30  C15 UNL     1       9.925  20.075  15.639  1.00  0.00     0.104 C 
HETATM   31  C16 UNL     1       9.950  18.577  15.585  1.00  0.00     0.226 C 
HETATM   32  O2  UNL     1      10.000  17.972  14.477  1.00  0.00    -0.273 OA
HETATM   33  N5  UNL     1       9.917  17.791  16.767  1.00  0.00    -0.286 N 
HETATM   34  C17 UNL     1       9.180  16.561  16.751  1.00  0.00     0.257 C 
HETATM   35  C23 UNL     1      10.615  18.235  17.942  1.00  0.00     0.141 C 
HETATM   36  O3  UNL     1       8.583  16.233  15.711  1.00  0.00    -0.271 OA
BRANCH  34  37
HETATM   37  C18 UNL     1       9.117  15.685  17.936  1.00  0.00     0.275 C 
BRANCH  37  38
HETATM   38  N6  UNL     1       7.811  15.931  18.560  1.00  0.00    -0.066 N 
ATOM     39  H63 UNL     1       7.060  15.365  18.165  1.00  0.00     0.275 HD
ATOM     40  H62 UNL     1       7.745  15.578  19.514  1.00  0.00     0.275 HD
ATOM     41  H61 UNL     1       7.644  16.935  18.487  1.00  0.00     0.275 HD
ENDBRANCH  37  38
BRANCH  37  42
HETATM   42  C19 UNL     1       9.161  14.240  17.462  1.00  0.00     0.042 C 
BRANCH  42  43
HETATM   43  C20 UNL     1       8.002  13.433  18.020  1.00  0.00     0.002 C 
BRANCH  43  44
HETATM   44  C21 UNL     1       7.443  12.652  16.825  1.00  0.00    -0.004 C 
HETATM   45  C22 UNL     1       6.396  13.466  16.132  1.00  0.00     0.005 C 
ENDBRANCH  43  44
ENDBRANCH  42  43
ENDBRANCH  37  42
ENDBRANCH  34  37
ENDBRANCH  27  28
ENDBRANCH   4  27
TORSDOF 13
ENDMDL
