MODEL 1
REMARK VINA RESULT: -8.717065800      0.000      0.000
REMARK  14 active torsions:
REMARK  status: ('A' for Active; 'I' for Inactive)
REMARK    1  A    between atoms: C2_2  and  C5_5 
REMARK       I    between atoms: C5_5  and  N1_7 
REMARK    2  A    between atoms: N1_7  and  C6_9 
REMARK    3  A    between atoms: C9_12  and  C10_13 
REMARK    4  A    between atoms: C10_13  and  O2_14 
REMARK    5  A    between atoms: O2_14  and  C11_15 
REMARK    6  A    between atoms: C11_15  and  C12_16 
REMARK    7  A    between atoms: C12_16  and  N2_17 
REMARK    8  A    between atoms: N3_20  and  C15_21 
REMARK    9  A    between atoms: C15_21  and  C16_26 
REMARK   10  A    between atoms: N4_22  and  O3_24 
REMARK   11  A    between atoms: C23_33  and  O4_34 
REMARK   12  A    between atoms: O4_34  and  C24_35 
REMARK   13  A    between atoms: C24_35  and  C25_36 
REMARK   14  A    between atoms: C25_36  and  N5_37 
ROOT
HETATM    1  C6  UNL     1      17.290  26.358  15.186  1.00  0.00     0.086 C 
HETATM    2  C7  UNL     1      16.947  25.967  13.788  1.00  0.00     0.026 C 
HETATM    3  C8  UNL     1      16.366  24.606  13.638  1.00  0.00     0.011 C 
HETATM    4  C9  UNL     1      15.314  24.440  14.706  1.00  0.00     0.038 C 
HETATM    5  C23 UNL     1      15.986  24.315  16.000  1.00  0.00     0.129 C 
HETATM    6  C30 UNL     1      16.604  25.699  16.289  1.00  0.00     0.057 C 
ENDROOT
BRANCH   4   7
HETATM    7  C10 UNL     1      14.269  23.418  14.327  1.00  0.00     0.174 C 
BRANCH   7   8
HETATM    8  O2  UNL     1      14.751  22.212  14.009  1.00  0.00    -0.389 OA
BRANCH   8   9
HETATM    9  C11 UNL     1      14.175  21.144  14.600  1.00  0.00     0.187 C 
BRANCH   9  10
HETATM   10  C12 UNL     1      14.385  20.918  16.045  1.00  0.00     0.143 C 
BRANCH  10  11
HETATM   11  N2  UNL     1      13.265  20.770  16.890  1.00  0.00    -0.407 N 
HETATM   12  C13 UNL     1      13.544  20.256  18.208  1.00  0.00     0.136 C 
HETATM   13  C14 UNL     1      13.156  18.778  18.200  1.00  0.00     0.143 C 
HETATM   14  N3  UNL     1      11.702  18.718  18.084  1.00  0.00    -0.366 N 
HETATM   15  C21 UNL     1      11.108  19.893  17.423  1.00  0.00     0.143 C 
HETATM   16  C22 UNL     1      12.078  20.239  16.301  1.00  0.00     0.136 C 
BRANCH  14  17
HETATM   17  C15 UNL     1      10.899  17.666  18.538  1.00  0.00     0.103 C 
HETATM   18  N4  UNL     1      10.357  17.721  19.700  1.00  0.00    -0.257 N 
ATOM     19  H4  UNL     1       9.771  16.955  20.032  1.00  0.00     0.195 HD
BRANCH  18  20
HETATM   20  O3  UNL     1      10.574  18.818  20.491  1.00  0.00    -0.288 OA
ATOM     21  H3  UNL     1      11.343  18.846  21.049  1.00  0.00     0.244 HD
ENDBRANCH  18  20
BRANCH  17  22
HETATM   22  C16 UNL     1      10.659  16.480  17.702  1.00  0.00     0.055 C 
HETATM   23  C17 UNL     1      10.049  16.786  16.356  1.00  0.00     0.012 C 
HETATM   24  C18 UNL     1       9.569  15.417  15.901  1.00  0.00     0.001 C 
HETATM   25  C19 UNL     1       8.956  14.856  17.159  1.00  0.00     0.001 C 
HETATM   26  C20 UNL     1       9.620  15.556  18.303  1.00  0.00     0.012 C 
ENDBRANCH  17  22
ENDBRANCH  14  17
ENDBRANCH  10  11
ENDBRANCH   9  10
ENDBRANCH   8   9
ENDBRANCH   7   8
ENDBRANCH   4   7
BRANCH   5  27
HETATM   27  O4  UNL     1      15.072  24.076  17.010  1.00  0.00    -0.384 OA
BRANCH  27  28
HETATM   28  C24 UNL     1      15.537  23.923  18.270  1.00  0.00     0.198 C 
BRANCH  28  29
HETATM   29  C25 UNL     1      16.514  22.793  18.428  1.00  0.00     0.298 C 
BRANCH  29  30
HETATM   30  N5  UNL     1      17.809  23.306  18.891  1.00  0.00     0.094 N 
HETATM   31  C26 UNL     1      17.568  24.505  19.665  1.00  0.00     0.298 C 
HETATM   32  C27 UNL     1      18.746  24.910  20.511  1.00  0.00     0.198 C 
HETATM   33  O5  UNL     1      19.325  23.820  21.158  1.00  0.00    -0.388 OA
HETATM   34  C28 UNL     1      18.478  22.702  21.109  1.00  0.00     0.198 C 
HETATM   35  C29 UNL     1      18.431  22.250  19.662  1.00  0.00     0.298 C 
ENDBRANCH  29  30
ENDBRANCH  28  29
ENDBRANCH  27  28
ENDBRANCH   5  27
BRANCH   1  36
HETATM   36  N1  UNL     1      18.735  26.335  15.298  1.00  0.00    -0.356 N 
HETATM   37  C5  UNL     1      19.501  27.516  15.121  1.00  0.00     0.225 C 
HETATM   38  O1  UNL     1      18.920  28.619  14.859  1.00  0.00    -0.273 OA
ATOM     39  H1  UNL     1      19.209  25.457  15.509  1.00  0.00     0.162 HD
BRANCH  37  40
HETATM   40  C2  UNL     1      20.981  27.504  15.231  1.00  0.00     0.030 C 
HETATM   41  C1  UNL     1      21.620  28.538  14.319  1.00  0.00     0.024 C 
HETATM   42  C3  UNL     1      21.422  27.827  16.644  1.00  0.00     0.024 C 
HETATM   43  C4  UNL     1      21.560  26.137  14.891  1.00  0.00     0.024 C 
ENDBRANCH  37  40
ENDBRANCH   1  36
TORSDOF 14
ENDMDL
MODEL 2
REMARK VINA RESULT: -8.499314387      2.369      3.726
REMARK  14 active torsions:
REMARK  status: ('A' for Active; 'I' for Inactive)
REMARK    1  A    between atoms: C2_2  and  C5_5 
REMARK       I    between atoms: C5_5  and  N1_7 
REMARK    2  A    between atoms: N1_7  and  C6_9 
REMARK    3  A    between atoms: C9_12  and  C10_13 
REMARK    4  A    between atoms: C10_13  and  O2_14 
REMARK    5  A    between atoms: O2_14  and  C11_15 
REMARK    6  A    between atoms: C11_15  and  C12_16 
REMARK    7  A    between atoms: C12_16  and  N2_17 
REMARK    8  A    between atoms: N3_20  and  C15_21 
REMARK    9  A    between atoms: C15_21  and  C16_26 
REMARK   10  A    between atoms: N4_22  and  O3_24 
REMARK   11  A    between atoms: C23_33  and  O4_34 
REMARK   12  A    between atoms: O4_34  and  C24_35 
REMARK   13  A    between atoms: C24_35  and  C25_36 
REMARK   14  A    between atoms: C25_36  and  N5_37 
ROOT
HETATM    1  C6  UNL     1      20.857  27.259  16.385  1.00  0.00     0.086 C 
HETATM    2  C7  UNL     1      20.261  28.124  15.327  1.00  0.00     0.026 C 
HETATM    3  C8  UNL     1      19.504  27.400  14.271  1.00  0.00     0.011 C 
HETATM    4  C9  UNL     1      18.614  26.394  14.958  1.00  0.00     0.038 C 
HETATM    5  C23 UNL     1      19.454  25.319  15.487  1.00  0.00     0.129 C 
HETATM    6  C30 UNL     1      20.272  25.949  16.634  1.00  0.00     0.057 C 
ENDROOT
BRANCH   4   7
HETATM    7  C10 UNL     1      17.408  26.033  14.125  1.00  0.00     0.174 C 
BRANCH   7   8
HETATM    8  O2  UNL     1      16.289  25.810  14.821  1.00  0.00    -0.389 OA
BRANCH   8   9
HETATM    9  C11 UNL     1      15.465  24.842  14.368  1.00  0.00     0.187 C 
BRANCH   9  10
HETATM   10  C12 UNL     1      15.755  23.433  14.701  1.00  0.00     0.143 C 
BRANCH  10  11
HETATM   11  N2  UNL     1      15.332  22.915  15.944  1.00  0.00    -0.407 N 
HETATM   12  C13 UNL     1      15.571  21.508  16.146  1.00  0.00     0.136 C 
HETATM   13  C14 UNL     1      14.241  20.793  15.915  1.00  0.00     0.143 C 
HETATM   14  N3  UNL     1      13.356  21.174  17.011  1.00  0.00    -0.366 N 
HETATM   15  C21 UNL     1      13.678  22.481  17.611  1.00  0.00     0.143 C 
HETATM   16  C22 UNL     1      14.067  23.363  16.432  1.00  0.00     0.136 C 
BRANCH  14  17
HETATM   17  C15 UNL     1      12.284  20.410  17.486  1.00  0.00     0.103 C 
HETATM   18  N4  UNL     1      11.163  20.411  16.861  1.00  0.00    -0.257 N 
ATOM     19  H4  UNL     1      10.381  19.854  17.206  1.00  0.00     0.195 HD
BRANCH  18  20
HETATM   20  O3  UNL     1      11.026  21.168  15.727  1.00  0.00    -0.288 OA
ATOM     21  H3  UNL     1      10.259  21.719  15.624  1.00  0.00     0.244 HD
ENDBRANCH  18  20
BRANCH  17  22
HETATM   22  C16 UNL     1      12.413  19.596  18.704  1.00  0.00     0.055 C 
HETATM   23  C17 UNL     1      13.215  18.331  18.518  1.00  0.00     0.012 C 
HETATM   24  C18 UNL     1      12.860  17.538  19.766  1.00  0.00     0.001 C 
HETATM   25  C19 UNL     1      11.373  17.758  19.875  1.00  0.00     0.001 C 
HETATM   26  C20 UNL     1      11.082  19.045  19.169  1.00  0.00     0.012 C 
ENDBRANCH  17  22
ENDBRANCH  14  17
ENDBRANCH  10  11
ENDBRANCH   9  10
ENDBRANCH   8   9
ENDBRANCH   7   8
ENDBRANCH   4   7
BRANCH   5  27
HETATM   27  O4  UNL     1      18.682  24.324  16.056  1.00  0.00    -0.384 OA
BRANCH  27  28
HETATM   28  C24 UNL     1      18.672  24.216  17.404  1.00  0.00     0.198 C 
BRANCH  28  29
HETATM   29  C25 UNL     1      17.337  24.495  18.032  1.00  0.00     0.298 C 
BRANCH  29  30
HETATM   30  N5  UNL     1      17.224  23.793  19.315  1.00  0.00     0.094 N 
HETATM   31  C26 UNL     1      17.870  22.504  19.181  1.00  0.00     0.298 C 
HETATM   32  C27 UNL     1      18.167  21.850  20.505  1.00  0.00     0.198 C 
HETATM   33  O5  UNL     1      18.691  22.753  21.428  1.00  0.00    -0.388 OA
HETATM   34  C28 UNL     1      19.101  23.936  20.793  1.00  0.00     0.198 C 
HETATM   35  C29 UNL     1      17.843  24.636  20.316  1.00  0.00     0.298 C 
ENDBRANCH  29  30
ENDBRANCH  28  29
ENDBRANCH  27  28
ENDBRANCH   5  27
BRANCH   1  36
HETATM   36  N1  UNL     1      22.289  27.227  16.162  1.00  0.00    -0.356 N 
HETATM   37  C5  UNL     1      23.197  27.148  17.250  1.00  0.00     0.225 C 
HETATM   38  O1  UNL     1      22.757  27.101  18.445  1.00  0.00    -0.273 OA
ATOM     39  H1  UNL     1      22.650  27.263  15.209  1.00  0.00     0.162 HD
BRANCH  37  40
HETATM   40  C2  UNL     1      24.665  27.117  17.034  1.00  0.00     0.030 C 
HETATM   41  C1  UNL     1      25.025  27.415  15.589  1.00  0.00     0.024 C 
HETATM   42  C3  UNL     1      25.360  28.156  17.889  1.00  0.00     0.024 C 
HETATM   43  C4  UNL     1      25.260  25.767  17.410  1.00  0.00     0.024 C 
ENDBRANCH  37  40
ENDBRANCH   1  36
TORSDOF 14
ENDMDL
MODEL 3
REMARK VINA RESULT: -8.482475965      2.055     10.639
REMARK  14 active torsions:
REMARK  status: ('A' for Active; 'I' for Inactive)
REMARK    1  A    between atoms: C2_2  and  C5_5 
REMARK       I    between atoms: C5_5  and  N1_7 
REMARK    2  A    between atoms: N1_7  and  C6_9 
REMARK    3  A    between atoms: C9_12  and  C10_13 
REMARK    4  A    between atoms: C10_13  and  O2_14 
REMARK    5  A    between atoms: O2_14  and  C11_15 
REMARK    6  A    between atoms: C11_15  and  C12_16 
REMARK    7  A    between atoms: C12_16  and  N2_17 
REMARK    8  A    between atoms: N3_20  and  C15_21 
REMARK    9  A    between atoms: C15_21  and  C16_26 
REMARK   10  A    between atoms: N4_22  and  O3_24 
REMARK   11  A    between atoms: C23_33  and  O4_34 
REMARK   12  A    between atoms: O4_34  and  C24_35 
REMARK   13  A    between atoms: C24_35  and  C25_36 
REMARK   14  A    between atoms: C25_36  and  N5_37 
ROOT
HETATM    1  C6  UNL     1      14.188  20.157  17.439  1.00  0.00     0.086 C 
HETATM    2  C7  UNL     1      13.855  20.739  16.107  1.00  0.00     0.026 C 
HETATM    3  C8  UNL     1      13.904  22.223  16.036  1.00  0.00     0.011 C 
HETATM    4  C9  UNL     1      15.177  22.669  16.713  1.00  0.00     0.038 C 
HETATM    5  C23 UNL     1      15.029  22.464  18.155  1.00  0.00     0.129 C 
HETATM    6  C30 UNL     1      15.005  20.935  18.361  1.00  0.00     0.057 C 
ENDROOT
BRANCH   4   7
HETATM    7  C10 UNL     1      15.651  24.013  16.215  1.00  0.00     0.174 C 
BRANCH   7   8
HETATM    8  O2  UNL     1      15.358  24.275  14.937  1.00  0.00    -0.389 OA
BRANCH   8   9
HETATM    9  C11 UNL     1      16.360  24.730  14.156  1.00  0.00     0.187 C 
BRANCH   9  10
HETATM   10  C12 UNL     1      16.879  26.096  14.370  1.00  0.00     0.143 C 
BRANCH  10  11
HETATM   11  N2  UNL     1      18.254  26.349  14.182  1.00  0.00    -0.407 N 
HETATM   12  C13 UNL     1      19.144  25.294  14.598  1.00  0.00     0.136 C 
HETATM   13  C14 UNL     1      19.722  25.706  15.951  1.00  0.00     0.143 C 
HETATM   14  N3  UNL     1      20.599  26.848  15.711  1.00  0.00    -0.366 N 
HETATM   15  C21 UNL     1      20.242  27.631  14.514  1.00  0.00     0.143 C 
HETATM   16  C22 UNL     1      18.720  27.659  14.508  1.00  0.00     0.136 C 
BRANCH  14  17
HETATM   17  C15 UNL     1      21.687  27.213  16.511  1.00  0.00     0.103 C 
HETATM   18  N4  UNL     1      21.495  27.833  17.618  1.00  0.00    -0.257 N 
ATOM     19  H4  UNL     1      22.288  28.100  18.203  1.00  0.00     0.195 HD
BRANCH  18  20
HETATM   20  O3  UNL     1      20.216  28.135  18.007  1.00  0.00    -0.288 OA
ATOM     21  H3  UNL     1      19.981  28.073  18.925  1.00  0.00     0.244 HD
ENDBRANCH  18  20
BRANCH  17  22
HETATM   22  C16 UNL     1      23.065  26.900  16.106  1.00  0.00     0.055 C 
HETATM   23  C17 UNL     1      23.951  26.438  17.237  1.00  0.00     0.012 C 
HETATM   24  C18 UNL     1      25.340  26.567  16.633  1.00  0.00     0.001 C 
HETATM   25  C19 UNL     1      25.259  27.893  15.921  1.00  0.00     0.001 C 
HETATM   26  C20 UNL     1      23.812  28.124  15.618  1.00  0.00     0.012 C 
ENDBRANCH  17  22
ENDBRANCH  14  17
ENDBRANCH  10  11
ENDBRANCH   9  10
ENDBRANCH   8   9
ENDBRANCH   7   8
ENDBRANCH   4   7
BRANCH   5  27
HETATM   27  O4  UNL     1      16.137  22.933  18.836  1.00  0.00    -0.384 OA
BRANCH  27  28
HETATM   28  C24 UNL     1      17.133  22.062  19.112  1.00  0.00     0.198 C 
BRANCH  28  29
HETATM   29  C25 UNL     1      18.112  22.555  20.138  1.00  0.00     0.298 C 
BRANCH  29  30
HETATM   30  N5  UNL     1      18.428  23.968  19.899  1.00  0.00     0.094 N 
HETATM   31  C26 UNL     1      19.002  24.512  21.110  1.00  0.00     0.298 C 
HETATM   32  C27 UNL     1      19.719  25.819  20.891  1.00  0.00     0.198 C 
HETATM   33  O5  UNL     1      20.511  25.794  19.744  1.00  0.00    -0.388 OA
HETATM   34  C28 UNL     1      20.684  24.480  19.284  1.00  0.00     0.198 C 
HETATM   35  C29 UNL     1      19.335  24.013  18.771  1.00  0.00     0.298 C 
ENDBRANCH  29  30
ENDBRANCH  28  29
ENDBRANCH  27  28
ENDBRANCH   5  27
BRANCH   1  36
HETATM   36  N1  UNL     1      12.952  19.671  18.020  1.00  0.00    -0.356 N 
HETATM   37  C5  UNL     1      12.840  18.336  18.487  1.00  0.00     0.225 C 
HETATM   38  O1  UNL     1      13.835  17.545  18.401  1.00  0.00    -0.273 OA
ATOM     39  H1  UNL     1      12.151  20.297  18.095  1.00  0.00     0.162 HD
BRANCH  37  40
HETATM   40  C2  UNL     1      11.579  17.826  19.082  1.00  0.00     0.030 C 
HETATM   41  C1  UNL     1      10.466  18.857  19.005  1.00  0.00     0.024 C 
HETATM   42  C3  UNL     1      11.094  16.593  18.348  1.00  0.00     0.024 C 
HETATM   43  C4  UNL     1      11.766  17.426  20.539  1.00  0.00     0.024 C 
ENDBRANCH  37  40
ENDBRANCH   1  36
TORSDOF 14
ENDMDL
MODEL 4
REMARK VINA RESULT: -8.463598159      2.223      4.931
REMARK  14 active torsions:
REMARK  status: ('A' for Active; 'I' for Inactive)
REMARK    1  A    between atoms: C2_2  and  C5_5 
REMARK       I    between atoms: C5_5  and  N1_7 
REMARK    2  A    between atoms: N1_7  and  C6_9 
REMARK    3  A    between atoms: C9_12  and  C10_13 
REMARK    4  A    between atoms: C10_13  and  O2_14 
REMARK    5  A    between atoms: O2_14  and  C11_15 
REMARK    6  A    between atoms: C11_15  and  C12_16 
REMARK    7  A    between atoms: C12_16  and  N2_17 
REMARK    8  A    between atoms: N3_20  and  C15_21 
REMARK    9  A    between atoms: C15_21  and  C16_26 
REMARK   10  A    between atoms: N4_22  and  O3_24 
REMARK   11  A    between atoms: C23_33  and  O4_34 
REMARK   12  A    between atoms: O4_34  and  C24_35 
REMARK   13  A    between atoms: C24_35  and  C25_36 
REMARK   14  A    between atoms: C25_36  and  N5_37 
ROOT
HETATM    1  C6  UNL     1      19.029  24.499  19.557  1.00  0.00     0.086 C 
HETATM    2  C7  UNL     1      17.589  24.349  19.915  1.00  0.00     0.026 C 
HETATM    3  C8  UNL     1      16.636  24.526  18.787  1.00  0.00     0.011 C 
HETATM    4  C9  UNL     1      17.168  23.739  17.615  1.00  0.00     0.038 C 
HETATM    5  C23 UNL     1      18.349  24.427  17.093  1.00  0.00     0.129 C 
HETATM    6  C30 UNL     1      19.437  24.276  18.177  1.00  0.00     0.057 C 
ENDROOT
BRANCH   4   7
HETATM    7  C10 UNL     1      16.076  23.336  16.653  1.00  0.00     0.174 C 
BRANCH   7   8
HETATM    8  O2  UNL     1      15.684  24.299  15.812  1.00  0.00    -0.389 OA
BRANCH   8   9
HETATM    9  C11 UNL     1      15.197  23.909  14.615  1.00  0.00     0.187 C 
BRANCH   9  10
HETATM   10  C12 UNL     1      15.018  22.468  14.342  1.00  0.00     0.143 C 
BRANCH  10  11
HETATM   11  N2  UNL     1      13.722  21.912  14.394  1.00  0.00    -0.407 N 
HETATM   12  C13 UNL     1      12.766  22.635  15.194  1.00  0.00     0.136 C 
HETATM   13  C14 UNL     1      12.641  21.889  16.521  1.00  0.00     0.143 C 
HETATM   14  N3  UNL     1      11.987  20.615  16.234  1.00  0.00    -0.366 N 
HETATM   15  C21 UNL     1      12.189  20.140  14.854  1.00  0.00     0.143 C 
HETATM   16  C22 UNL     1      13.634  20.493  14.528  1.00  0.00     0.136 C 
BRANCH  14  17
HETATM   17  C15 UNL     1      11.233  19.871  17.148  1.00  0.00     0.103 C 
HETATM   18  N4  UNL     1       9.966  20.056  17.241  1.00  0.00    -0.257 N 
ATOM     19  H4  UNL     1       9.414  19.514  17.907  1.00  0.00     0.195 HD
BRANCH  18  20
HETATM   20  O3  UNL     1       9.362  20.990  16.440  1.00  0.00    -0.288 OA
ATOM     21  H3  UNL     1       9.527  21.912  16.593  1.00  0.00     0.244 HD
ENDBRANCH  18  20
BRANCH  17  22
HETATM   22  C16 UNL     1      11.866  18.868  18.017  1.00  0.00     0.055 C 
HETATM   23  C17 UNL     1      10.891  17.956  18.719  1.00  0.00     0.012 C 
HETATM   24  C18 UNL     1      11.758  17.324  19.796  1.00  0.00     0.001 C 
HETATM   25  C19 UNL     1      12.549  18.502  20.304  1.00  0.00     0.001 C 
HETATM   26  C20 UNL     1      12.588  19.500  19.189  1.00  0.00     0.012 C 
ENDBRANCH  17  22
ENDBRANCH  14  17
ENDBRANCH  10  11
ENDBRANCH   9  10
ENDBRANCH   8   9
ENDBRANCH   7   8
ENDBRANCH   4   7
BRANCH   5  27
HETATM   27  O4  UNL     1      18.831  23.793  15.964  1.00  0.00    -0.384 OA
BRANCH  27  28
HETATM   28  C24 UNL     1      19.095  24.546  14.872  1.00  0.00     0.198 C 
BRANCH  28  29
HETATM   29  C25 UNL     1      20.548  24.882  14.696  1.00  0.00     0.298 C 
BRANCH  29  30
HETATM   30  N5  UNL     1      20.718  26.333  14.554  1.00  0.00     0.094 N 
HETATM   31  C26 UNL     1      19.414  26.919  14.328  1.00  0.00     0.298 C 
HETATM   32  C27 UNL     1      19.389  28.408  14.549  1.00  0.00     0.198 C 
HETATM   33  O5  UNL     1      20.082  28.778  15.700  1.00  0.00    -0.388 OA
HETATM   34  C28 UNL     1      20.340  27.661  16.509  1.00  0.00     0.198 C 
HETATM   35  C29 UNL     1      21.350  26.806  15.767  1.00  0.00     0.298 C 
ENDBRANCH  29  30
ENDBRANCH  28  29
ENDBRANCH  27  28
ENDBRANCH   5  27
BRANCH   1  36
HETATM   36  N1  UNL     1      19.482  25.763  20.104  1.00  0.00    -0.356 N 
HETATM   37  C5  UNL     1      20.764  25.885  20.699  1.00  0.00     0.225 C 
HETATM   38  O1  UNL     1      21.538  24.875  20.756  1.00  0.00    -0.273 OA
ATOM     39  H1  UNL     1      18.869  26.577  20.061  1.00  0.00     0.162 HD
BRANCH  37  40
HETATM   40  C2  UNL     1      21.237  27.173  21.264  1.00  0.00     0.030 C 
HETATM   41  C1  UNL     1      20.302  28.317  20.912  1.00  0.00     0.024 C 
HETATM   42  C3  UNL     1      21.309  27.107  22.776  1.00  0.00     0.024 C 
HETATM   43  C4  UNL     1      22.635  27.524  20.771  1.00  0.00     0.024 C 
ENDBRANCH  37  40
ENDBRANCH   1  36
TORSDOF 14
ENDMDL
MODEL 5
REMARK VINA RESULT: -8.404498975      1.937     10.465
REMARK  14 active torsions:
REMARK  status: ('A' for Active; 'I' for Inactive)
REMARK    1  A    between atoms: C2_2  and  C5_5 
REMARK       I    between atoms: C5_5  and  N1_7 
REMARK    2  A    between atoms: N1_7  and  C6_9 
REMARK    3  A    between atoms: C9_12  and  C10_13 
REMARK    4  A    between atoms: C10_13  and  O2_14 
REMARK    5  A    between atoms: O2_14  and  C11_15 
REMARK    6  A    between atoms: C11_15  and  C12_16 
REMARK    7  A    between atoms: C12_16  and  N2_17 
REMARK    8  A    between atoms: N3_20  and  C15_21 
REMARK    9  A    between atoms: C15_21  and  C16_26 
REMARK   10  A    between atoms: N4_22  and  O3_24 
REMARK   11  A    between atoms: C23_33  and  O4_34 
REMARK   12  A    between atoms: O4_34  and  C24_35 
REMARK   13  A    between atoms: C24_35  and  C25_36 
REMARK   14  A    between atoms: C25_36  and  N5_37 
ROOT
HETATM    1  C6  UNL     1      13.731  20.528  16.770  1.00  0.00     0.086 C 
HETATM    2  C7  UNL     1      13.475  20.363  15.310  1.00  0.00     0.026 C 
HETATM    3  C8  UNL     1      13.209  21.625  14.570  1.00  0.00     0.011 C 
HETATM    4  C9  UNL     1      14.241  22.635  15.005  1.00  0.00     0.038 C 
HETATM    5  C23 UNL     1      13.935  23.046  16.376  1.00  0.00     0.129 C 
HETATM    6  C30 UNL     1      14.216  21.812  17.258  1.00  0.00     0.057 C 
ENDROOT
BRANCH   4   7
HETATM    7  C10 UNL     1      14.476  23.701  13.962  1.00  0.00     0.174 C 
BRANCH   7   8
HETATM    8  O2  UNL     1      15.758  23.894  13.634  1.00  0.00    -0.389 OA
BRANCH   8   9
HETATM    9  C11 UNL     1      16.176  25.171  13.508  1.00  0.00     0.187 C 
BRANCH   9  10
HETATM   10  C12 UNL     1      16.944  25.790  14.608  1.00  0.00     0.143 C 
BRANCH  10  11
HETATM   11  N2  UNL     1      18.331  25.994  14.450  1.00  0.00    -0.407 N 
HETATM   12  C13 UNL     1      19.179  24.992  15.047  1.00  0.00     0.136 C 
HETATM   13  C14 UNL     1      19.707  25.577  16.356  1.00  0.00     0.143 C 
HETATM   14  N3  UNL     1      20.618  26.661  16.002  1.00  0.00    -0.366 N 
HETATM   15  C21 UNL     1      20.331  27.278  14.694  1.00  0.00     0.143 C 
HETATM   16  C22 UNL     1      18.811  27.329  14.615  1.00  0.00     0.136 C 
BRANCH  14  17
HETATM   17  C15 UNL     1      21.678  27.116  16.794  1.00  0.00     0.103 C 
HETATM   18  N4  UNL     1      21.449  27.858  17.816  1.00  0.00    -0.257 N 
ATOM     19  H4  UNL     1      22.221  28.190  18.395  1.00  0.00     0.195 HD
BRANCH  18  20
HETATM   20  O3  UNL     1      20.158  28.200  18.123  1.00  0.00    -0.288 OA
ATOM     21  H3  UNL     1      19.987  29.017  18.574  1.00  0.00     0.244 HD
ENDBRANCH  18  20
BRANCH  17  22
HETATM   22  C16 UNL     1      23.069  26.762  16.476  1.00  0.00     0.055 C 
HETATM   23  C17 UNL     1      23.974  26.674  17.680  1.00  0.00     0.012 C 
HETATM   24  C18 UNL     1      25.356  26.687  17.047  1.00  0.00     0.001 C 
HETATM   25  C19 UNL     1      25.216  27.755  15.993  1.00  0.00     0.001 C 
HETATM   26  C20 UNL     1      23.760  27.830  15.655  1.00  0.00     0.012 C 
ENDBRANCH  17  22
ENDBRANCH  14  17
ENDBRANCH  10  11
ENDBRANCH   9  10
ENDBRANCH   8   9
ENDBRANCH   7   8
ENDBRANCH   4   7
BRANCH   5  27
HETATM   27  O4  UNL     1      14.802  24.036  16.800  1.00  0.00    -0.384 OA
BRANCH  27  28
HETATM   28  C24 UNL     1      15.977  23.660  17.354  1.00  0.00     0.198 C 
BRANCH  28  29
HETATM   29  C25 UNL     1      16.519  24.635  18.359  1.00  0.00     0.298 C 
BRANCH  29  30
HETATM   30  N5  UNL     1      17.758  24.116  18.951  1.00  0.00     0.094 N 
HETATM   31  C26 UNL     1      17.855  24.617  20.305  1.00  0.00     0.298 C 
HETATM   32  C27 UNL     1      18.855  23.867  21.144  1.00  0.00     0.198 C 
HETATM   33  O5  UNL     1      18.761  22.488  20.961  1.00  0.00    -0.388 OA
HETATM   34  C28 UNL     1      17.567  22.151  20.304  1.00  0.00     0.198 C 
HETATM   35  C29 UNL     1      17.686  22.672  18.885  1.00  0.00     0.298 C 
ENDBRANCH  29  30
ENDBRANCH  28  29
ENDBRANCH  27  28
ENDBRANCH   5  27
BRANCH   1  36
HETATM   36  N1  UNL     1      12.561  20.039  17.472  1.00  0.00    -0.356 N 
HETATM   37  C5  UNL     1      12.613  18.845  18.237  1.00  0.00     0.225 C 
HETATM   38  O1  UNL     1      13.701  18.186  18.315  1.00  0.00    -0.273 OA
ATOM     39  H1  UNL     1      11.687  20.561  17.416  1.00  0.00     0.162 HD
BRANCH  37  40
HETATM   40  C2  UNL     1      11.421  18.333  18.958  1.00  0.00     0.030 C 
HETATM   41  C1  UNL     1      10.132  18.869  18.359  1.00  0.00     0.024 C 
HETATM   42  C3  UNL     1      11.351  16.822  18.884  1.00  0.00     0.024 C 
HETATM   43  C4  UNL     1      11.457  18.701  20.435  1.00  0.00     0.024 C 
ENDBRANCH  37  40
ENDBRANCH   1  36
TORSDOF 14
ENDMDL
