MODEL 1
REMARK VINA RESULT: -9.004921698      0.000      0.000
REMARK  15 active torsions:
REMARK  status: ('A' for Active; 'I' for Inactive)
REMARK    1  A    between atoms: C2_2  and  C3_3 
REMARK    2  A    between atoms: C3_3  and  C4_4 
REMARK    3  A    between atoms: C4_4  and  C5_5 
REMARK    4  A    between atoms: C6_6  and  C7_7 
REMARK    5  A    between atoms: C7_7  and  C8_8 
REMARK    6  A    between atoms: C14_17  and  C16_19 
REMARK    7  A    between atoms: C16_19  and  O4_20 
REMARK    8  A    between atoms: C16_19  and  C17_22 
REMARK    9  A    between atoms: C17_22  and  C18_23 
REMARK   10  A    between atoms: C18_23  and  C19_24 
REMARK   11  A    between atoms: C19_24  and  C20_25 
REMARK   12  A    between atoms: C19_24  and  O5_31 
REMARK   13  A    between atoms: C20_25  and  C21_26 
REMARK   14  A    between atoms: C21_26  and  C22_27 
REMARK   15  A    between atoms: O5_31  and  C26_32 
ROOT
HETATM    1  C8  UNL     1      14.681  15.563  12.476  1.00  0.00     0.157 C 
HETATM    2  O1  UNL     1      15.200  15.399  13.702  1.00  0.00    -0.340 OA
HETATM    3  C9  UNL     1      16.002  16.327  14.274  1.00  0.00     0.235 C 
HETATM    4  C10 UNL     1      15.943  17.719  13.746  1.00  0.00     0.079 C 
HETATM    5  C11 UNL     1      15.861  17.777  12.237  1.00  0.00     0.041 C 
HETATM    6  C12 UNL     1      15.499  16.478  11.655  1.00  0.00    -0.060 C 
HETATM    7  C13 UNL     1      15.912  16.175  10.439  1.00  0.00     0.017 C 
HETATM    8  O2  UNL     1      15.841  16.243  15.686  1.00  0.00    -0.196 OA
HETATM    9  O3  UNL     1      16.454  15.077  15.581  1.00  0.00    -0.218 OA
HETATM   10  C14 UNL     1      17.305  15.739  14.656  1.00  0.00     0.177 C 
HETATM   11  C15 UNL     1      17.855  14.818  13.600  1.00  0.00     0.058 C 
ENDROOT
BRANCH  10  12
HETATM   12  C16 UNL     1      18.309  16.523  15.427  1.00  0.00     0.161 C 
BRANCH  12  13
HETATM   13  O4  UNL     1      17.851  17.725  15.905  1.00  0.00    -0.392 OA
ATOM     14  H4  UNL     1      18.489  18.220  16.408  1.00  0.00     0.210 HD
ENDBRANCH  12  13
BRANCH  12  15
HETATM   15  C17 UNL     1      19.647  16.608  14.712  1.00  0.00     0.037 C 
BRANCH  15  16
HETATM   16  C18 UNL     1      20.780  16.780  15.692  1.00  0.00     0.034 C 
BRANCH  16  17
HETATM   17  C19 UNL     1      21.379  18.153  15.592  1.00  0.00     0.121 C 
BRANCH  17  18
HETATM   18  C20 UNL     1      22.776  18.125  15.076  1.00  0.00     0.036 C 
BRANCH  18  19
HETATM   19  C21 UNL     1      22.875  18.215  13.573  1.00  0.00     0.030 C 
BRANCH  19  20
HETATM   20  C22 UNL     1      23.529  19.446  13.116  1.00  0.00    -0.025 C 
HETATM   21  C23 UNL     1      24.333  19.420  12.072  1.00  0.00    -0.091 C 
HETATM   22  C24 UNL     1      24.595  18.159  11.337  1.00  0.00     0.042 C 
HETATM   23  C25 UNL     1      24.990  20.664  11.617  1.00  0.00     0.042 C 
ENDBRANCH  19  20
ENDBRANCH  18  19
ENDBRANCH  17  18
BRANCH  17  24
HETATM   24  O5  UNL     1      21.379  18.713  16.863  1.00  0.00    -0.386 OA
BRANCH  24  25
HETATM   25  C26 UNL     1      20.463  19.707  17.068  1.00  0.00     0.163 C 
HETATM   26  C27 UNL     1      20.444  20.203  18.483  1.00  0.00     0.033 C 
ENDBRANCH  24  25
ENDBRANCH  17  24
ENDBRANCH  16  17
ENDBRANCH  15  16
ENDBRANCH  12  15
ENDBRANCH  10  12
BRANCH   1  27
HETATM   27  C7  UNL     1      13.212  15.929  12.449  1.00  0.00     0.063 C 
BRANCH  27  28
HETATM   28  C6  UNL     1      12.512  15.030  13.433  1.00  0.00    -0.028 C 
HETATM   29  C5  UNL     1      12.215  13.779  13.137  1.00  0.00    -0.030 C 
BRANCH  29  30
HETATM   30  C4  UNL     1      11.527  12.920  14.124  1.00  0.00     0.030 C 
BRANCH  30  31
HETATM   31  C3  UNL     1      11.813  13.382  15.540  1.00  0.00     0.030 C 
BRANCH  31  32
HETATM   32  C2  UNL     1      10.675  12.965  16.396  1.00  0.00    -0.037 C 
HETATM   33  C1  UNL     1       9.422  13.276  16.105  1.00  0.00     0.007 C 
ENDBRANCH  31  32
ENDBRANCH  30  31
ENDBRANCH  29  30
ENDBRANCH  27  28
ENDBRANCH   1  27
TORSDOF 15
ENDMDL
MODEL 2
REMARK VINA RESULT: -8.797238576      0.812      1.121
REMARK  15 active torsions:
REMARK  status: ('A' for Active; 'I' for Inactive)
REMARK    1  A    between atoms: C2_2  and  C3_3 
REMARK    2  A    between atoms: C3_3  and  C4_4 
REMARK    3  A    between atoms: C4_4  and  C5_5 
REMARK    4  A    between atoms: C6_6  and  C7_7 
REMARK    5  A    between atoms: C7_7  and  C8_8 
REMARK    6  A    between atoms: C14_17  and  C16_19 
REMARK    7  A    between atoms: C16_19  and  O4_20 
REMARK    8  A    between atoms: C16_19  and  C17_22 
REMARK    9  A    between atoms: C17_22  and  C18_23 
REMARK   10  A    between atoms: C18_23  and  C19_24 
REMARK   11  A    between atoms: C19_24  and  C20_25 
REMARK   12  A    between atoms: C19_24  and  O5_31 
REMARK   13  A    between atoms: C20_25  and  C21_26 
REMARK   14  A    between atoms: C21_26  and  C22_27 
REMARK   15  A    between atoms: O5_31  and  C26_32 
ROOT
HETATM    1  C8  UNL     1      14.690  15.569  12.466  1.00  0.00     0.157 C 
HETATM    2  O1  UNL     1      15.221  15.393  13.685  1.00  0.00    -0.340 OA
HETATM    3  C9  UNL     1      16.010  16.323  14.269  1.00  0.00     0.235 C 
HETATM    4  C10 UNL     1      15.924  17.724  13.768  1.00  0.00     0.079 C 
HETATM    5  C11 UNL     1      15.830  17.808  12.261  1.00  0.00     0.041 C 
HETATM    6  C12 UNL     1      15.487  16.514  11.657  1.00  0.00    -0.060 C 
HETATM    7  C13 UNL     1      15.897  16.241  10.433  1.00  0.00     0.017 C 
HETATM    8  O2  UNL     1      15.860  16.211  15.681  1.00  0.00    -0.196 OA
HETATM    9  O3  UNL     1      16.493  15.058  15.550  1.00  0.00    -0.218 OA
HETATM   10  C14 UNL     1      17.325  15.752  14.632  1.00  0.00     0.177 C 
HETATM   11  C15 UNL     1      17.884  14.860  13.556  1.00  0.00     0.058 C 
ENDROOT
BRANCH  10  12
HETATM   12  C16 UNL     1      18.321  16.539  15.411  1.00  0.00     0.161 C 
BRANCH  12  13
HETATM   13  O4  UNL     1      17.852  17.733  15.897  1.00  0.00    -0.392 OA
ATOM     14  H4  UNL     1      18.045  18.486  15.349  1.00  0.00     0.210 HD
ENDBRANCH  12  13
BRANCH  12  15
HETATM   15  C17 UNL     1      19.660  16.639  14.701  1.00  0.00     0.037 C 
BRANCH  15  16
HETATM   16  C18 UNL     1      20.789  16.806  15.686  1.00  0.00     0.034 C 
BRANCH  16  17
HETATM   17  C19 UNL     1      21.398  18.175  15.585  1.00  0.00     0.121 C 
BRANCH  17  18
HETATM   18  C20 UNL     1      22.792  18.139  15.063  1.00  0.00     0.036 C 
BRANCH  18  19
HETATM   19  C21 UNL     1      22.883  18.220  13.559  1.00  0.00     0.030 C 
BRANCH  19  20
HETATM   20  C22 UNL     1      23.528  19.452  13.091  1.00  0.00    -0.025 C 
HETATM   21  C23 UNL     1      24.333  19.424  12.049  1.00  0.00    -0.091 C 
HETATM   22  C24 UNL     1      24.606  18.159  11.325  1.00  0.00     0.042 C 
HETATM   23  C25 UNL     1      24.981  20.670  11.583  1.00  0.00     0.042 C 
ENDBRANCH  19  20
ENDBRANCH  18  19
ENDBRANCH  17  18
BRANCH  17  24
HETATM   24  O5  UNL     1      21.408  18.733  16.857  1.00  0.00    -0.386 OA
BRANCH  24  25
HETATM   25  C26 UNL     1      20.452  19.682  17.092  1.00  0.00     0.163 C 
HETATM   26  C27 UNL     1      20.438  20.161  18.513  1.00  0.00     0.033 C 
ENDBRANCH  24  25
ENDBRANCH  17  24
ENDBRANCH  16  17
ENDBRANCH  15  16
ENDBRANCH  12  15
ENDBRANCH  10  12
BRANCH   1  27
HETATM   27  C7  UNL     1      13.215  15.910  12.455  1.00  0.00     0.063 C 
BRANCH  27  28
HETATM   28  C6  UNL     1      12.537  14.978  13.424  1.00  0.00    -0.028 C 
HETATM   29  C5  UNL     1      12.241  13.736  13.096  1.00  0.00    -0.030 C 
BRANCH  29  30
HETATM   30  C4  UNL     1      11.575  12.844  14.068  1.00  0.00     0.030 C 
BRANCH  30  31
HETATM   31  C3  UNL     1      10.067  12.919  13.931  1.00  0.00     0.030 C 
BRANCH  31  32
HETATM   32  C2  UNL     1       9.710  12.487  12.557  1.00  0.00    -0.037 C 
HETATM   33  C1  UNL     1       8.721  13.044  11.876  1.00  0.00     0.007 C 
ENDBRANCH  31  32
ENDBRANCH  30  31
ENDBRANCH  29  30
ENDBRANCH  27  28
ENDBRANCH   1  27
TORSDOF 15
ENDMDL
MODEL 3
REMARK VINA RESULT: -8.714163473      3.182      8.534
REMARK  15 active torsions:
REMARK  status: ('A' for Active; 'I' for Inactive)
REMARK    1  A    between atoms: C2_2  and  C3_3 
REMARK    2  A    between atoms: C3_3  and  C4_4 
REMARK    3  A    between atoms: C4_4  and  C5_5 
REMARK    4  A    between atoms: C6_6  and  C7_7 
REMARK    5  A    between atoms: C7_7  and  C8_8 
REMARK    6  A    between atoms: C14_17  and  C16_19 
REMARK    7  A    between atoms: C16_19  and  O4_20 
REMARK    8  A    between atoms: C16_19  and  C17_22 
REMARK    9  A    between atoms: C17_22  and  C18_23 
REMARK   10  A    between atoms: C18_23  and  C19_24 
REMARK   11  A    between atoms: C19_24  and  C20_25 
REMARK   12  A    between atoms: C19_24  and  O5_31 
REMARK   13  A    between atoms: C20_25  and  C21_26 
REMARK   14  A    between atoms: C21_26  and  C22_27 
REMARK   15  A    between atoms: O5_31  and  C26_32 
ROOT
HETATM    1  C8  UNL     1      18.487  17.053  15.614  1.00  0.00     0.157 C 
HETATM    2  O1  UNL     1      17.152  17.180  15.648  1.00  0.00    -0.340 OA
HETATM    3  C9  UNL     1      16.324  16.207  15.204  1.00  0.00     0.235 C 
HETATM    4  C10 UNL     1      16.868  14.823  15.103  1.00  0.00     0.079 C 
HETATM    5  C11 UNL     1      18.274  14.779  14.549  1.00  0.00     0.041 C 
HETATM    6  C12 UNL     1      18.917  16.099  14.572  1.00  0.00    -0.060 C 
HETATM    7  C13 UNL     1      19.841  16.385  13.674  1.00  0.00     0.017 C 
HETATM    8  O2  UNL     1      15.107  16.291  15.937  1.00  0.00    -0.196 OA
HETATM    9  O3  UNL     1      14.913  17.422  15.281  1.00  0.00    -0.218 OA
HETATM   10  C14 UNL     1      15.417  16.719  14.154  1.00  0.00     0.177 C 
HETATM   11  C15 UNL     1      16.121  17.615  13.170  1.00  0.00     0.058 C 
ENDROOT
BRANCH  10  12
HETATM   12  C16 UNL     1      14.320  15.877  13.603  1.00  0.00     0.161 C 
BRANCH  12  13
HETATM   13  O4  UNL     1      14.237  14.619  14.145  1.00  0.00    -0.392 OA
ATOM     14  H4  UNL     1      15.051  14.129  14.133  1.00  0.00     0.210 HD
ENDBRANCH  12  13
BRANCH  12  15
HETATM   15  C17 UNL     1      14.279  15.903  12.085  1.00  0.00     0.037 C 
BRANCH  15  16
HETATM   16  C18 UNL     1      12.868  16.069  11.579  1.00  0.00     0.034 C 
BRANCH  16  17
HETATM   17  C19 UNL     1      12.848  16.772  10.252  1.00  0.00     0.121 C 
BRANCH  17  18
HETATM   18  C20 UNL     1      14.140  17.447   9.949  1.00  0.00     0.036 C 
BRANCH  18  19
HETATM   19  C21 UNL     1      14.047  18.953   9.905  1.00  0.00     0.030 C 
BRANCH  19  20
HETATM   20  C22 UNL     1      15.355  19.610  10.003  1.00  0.00    -0.025 C 
HETATM   21  C23 UNL     1      15.555  20.777   9.426  1.00  0.00    -0.091 C 
HETATM   22  C24 UNL     1      14.475  21.453   8.668  1.00  0.00     0.042 C 
HETATM   23  C25 UNL     1      16.877  21.433   9.528  1.00  0.00     0.042 C 
ENDBRANCH  19  20
ENDBRANCH  18  19
ENDBRANCH  17  18
BRANCH  17  24
HETATM   24  O5  UNL     1      11.839  17.726  10.290  1.00  0.00    -0.386 OA
BRANCH  24  25
HETATM   25  C26 UNL     1      10.681  17.383   9.649  1.00  0.00     0.163 C 
HETATM   26  C27 UNL     1      10.917  16.657   8.359  1.00  0.00     0.033 C 
ENDBRANCH  24  25
ENDBRANCH  17  24
ENDBRANCH  16  17
ENDBRANCH  15  16
ENDBRANCH  12  15
ENDBRANCH  10  12
BRANCH   1  27
HETATM   27  C7  UNL     1      19.135  16.768  16.952  1.00  0.00     0.063 C 
BRANCH  27  28
HETATM   28  C6  UNL     1      20.064  17.916  17.249  1.00  0.00    -0.028 C 
HETATM   29  C5  UNL     1      19.607  19.122  17.525  1.00  0.00    -0.030 C 
BRANCH  29  30
HETATM   30  C4  UNL     1      20.544  20.229  17.812  1.00  0.00     0.030 C 
BRANCH  30  31
HETATM   31  C3  UNL     1      20.298  20.806  19.192  1.00  0.00     0.030 C 
BRANCH  31  32
HETATM   32  C2  UNL     1      21.010  19.956  20.178  1.00  0.00    -0.037 C 
HETATM   33  C1  UNL     1      20.395  19.409  21.214  1.00  0.00     0.007 C 
ENDBRANCH  31  32
ENDBRANCH  30  31
ENDBRANCH  29  30
ENDBRANCH  27  28
ENDBRANCH   1  27
TORSDOF 15
ENDMDL
MODEL 4
REMARK VINA RESULT: -8.456887694      0.965      3.682
REMARK  15 active torsions:
REMARK  status: ('A' for Active; 'I' for Inactive)
REMARK    1  A    between atoms: C2_2  and  C3_3 
REMARK    2  A    between atoms: C3_3  and  C4_4 
REMARK    3  A    between atoms: C4_4  and  C5_5 
REMARK    4  A    between atoms: C6_6  and  C7_7 
REMARK    5  A    between atoms: C7_7  and  C8_8 
REMARK    6  A    between atoms: C14_17  and  C16_19 
REMARK    7  A    between atoms: C16_19  and  O4_20 
REMARK    8  A    between atoms: C16_19  and  C17_22 
REMARK    9  A    between atoms: C17_22  and  C18_23 
REMARK   10  A    between atoms: C18_23  and  C19_24 
REMARK   11  A    between atoms: C19_24  and  C20_25 
REMARK   12  A    between atoms: C19_24  and  O5_31 
REMARK   13  A    between atoms: C20_25  and  C21_26 
REMARK   14  A    between atoms: C21_26  and  C22_27 
REMARK   15  A    between atoms: O5_31  and  C26_32 
ROOT
HETATM    1  C8  UNL     1      14.922  15.483  12.639  1.00  0.00     0.157 C 
HETATM    2  O1  UNL     1      15.361  15.272  13.889  1.00  0.00    -0.340 OA
HETATM    3  C9  UNL     1      16.064  16.203  14.572  1.00  0.00     0.235 C 
HETATM    4  C10 UNL     1      15.963  17.621  14.123  1.00  0.00     0.079 C 
HETATM    5  C11 UNL     1      15.986  17.767  12.618  1.00  0.00     0.041 C 
HETATM    6  C12 UNL     1      15.743  16.489  11.937  1.00  0.00    -0.060 C 
HETATM    7  C13 UNL     1      16.259  16.285  10.739  1.00  0.00     0.017 C 
HETATM    8  O2  UNL     1      15.808  16.024  15.961  1.00  0.00    -0.196 OA
HETATM    9  O3  UNL     1      16.493  14.901  15.836  1.00  0.00    -0.218 OA
HETATM   10  C14 UNL     1      17.368  15.664  15.017  1.00  0.00     0.177 C 
HETATM   11  C15 UNL     1      18.045  14.840  13.953  1.00  0.00     0.058 C 
ENDROOT
BRANCH  10  12
HETATM   12  C16 UNL     1      18.268  16.451  15.904  1.00  0.00     0.161 C 
BRANCH  12  13
HETATM   13  O4  UNL     1      17.970  17.789  15.979  1.00  0.00    -0.392 OA
ATOM     14  H4  UNL     1      18.438  18.333  15.356  1.00  0.00     0.210 HD
ENDBRANCH  12  13
BRANCH  12  15
HETATM   15  C17 UNL     1      19.735  16.154  15.649  1.00  0.00     0.037 C 
BRANCH  15  16
HETATM   16  C18 UNL     1      20.425  17.327  14.999  1.00  0.00     0.034 C 
BRANCH  16  17
HETATM   17  C19 UNL     1      21.330  18.028  15.970  1.00  0.00     0.121 C 
BRANCH  17  18
HETATM   18  C20 UNL     1      20.936  19.447  16.189  1.00  0.00     0.036 C 
BRANCH  18  19
HETATM   19  C21 UNL     1      20.826  19.833  17.644  1.00  0.00     0.030 C 
BRANCH  19  20
HETATM   20  C22 UNL     1      19.971  18.923  18.415  1.00  0.00    -0.025 C 
HETATM   21  C23 UNL     1      19.883  19.046  19.723  1.00  0.00    -0.091 C 
HETATM   22  C24 UNL     1      20.637  20.097  20.447  1.00  0.00     0.042 C 
HETATM   23  C25 UNL     1      19.020  18.124  20.493  1.00  0.00     0.042 C 
ENDBRANCH  19  20
ENDBRANCH  18  19
ENDBRANCH  17  18
BRANCH  17  24
HETATM   24  O5  UNL     1      22.619  17.995  15.452  1.00  0.00    -0.386 OA
BRANCH  24  25
HETATM   25  C26 UNL     1      22.705  17.875  14.093  1.00  0.00     0.163 C 
HETATM   26  C27 UNL     1      23.472  18.993  13.453  1.00  0.00     0.033 C 
ENDBRANCH  24  25
ENDBRANCH  17  24
ENDBRANCH  16  17
ENDBRANCH  15  16
ENDBRANCH  12  15
ENDBRANCH  10  12
BRANCH   1  27
HETATM   27  C7  UNL     1      13.440  15.771  12.523  1.00  0.00     0.063 C 
BRANCH  27  28
HETATM   28  C6  UNL     1      12.738  14.899  13.530  1.00  0.00    -0.028 C 
HETATM   29  C5  UNL     1      12.296  13.697  13.215  1.00  0.00    -0.030 C 
BRANCH  29  30
HETATM   30  C4  UNL     1      11.610  12.864  14.226  1.00  0.00     0.030 C 
BRANCH  30  31
HETATM   31  C3  UNL     1      11.793  13.436  15.618  1.00  0.00     0.030 C 
BRANCH  31  32
HETATM   32  C2  UNL     1      10.676  12.948  16.464  1.00  0.00    -0.037 C 
HETATM   33  C1  UNL     1       9.417  13.287  16.237  1.00  0.00     0.007 C 
ENDBRANCH  31  32
ENDBRANCH  30  31
ENDBRANCH  29  30
ENDBRANCH  27  28
ENDBRANCH   1  27
TORSDOF 15
ENDMDL
MODEL 5
REMARK VINA RESULT: -8.289948876      2.001     10.566
REMARK  15 active torsions:
REMARK  status: ('A' for Active; 'I' for Inactive)
REMARK    1  A    between atoms: C2_2  and  C3_3 
REMARK    2  A    between atoms: C3_3  and  C4_4 
REMARK    3  A    between atoms: C4_4  and  C5_5 
REMARK    4  A    between atoms: C6_6  and  C7_7 
REMARK    5  A    between atoms: C7_7  and  C8_8 
REMARK    6  A    between atoms: C14_17  and  C16_19 
REMARK    7  A    between atoms: C16_19  and  O4_20 
REMARK    8  A    between atoms: C16_19  and  C17_22 
REMARK    9  A    between atoms: C17_22  and  C18_23 
REMARK   10  A    between atoms: C18_23  and  C19_24 
REMARK   11  A    between atoms: C19_24  and  C20_25 
REMARK   12  A    between atoms: C19_24  and  O5_31 
REMARK   13  A    between atoms: C20_25  and  C21_26 
REMARK   14  A    between atoms: C21_26  and  C22_27 
REMARK   15  A    between atoms: O5_31  and  C26_32 
ROOT
HETATM    1  C8  UNL     1      18.889  16.349  14.861  1.00  0.00     0.157 C 
HETATM    2  O1  UNL     1      17.746  16.989  14.573  1.00  0.00    -0.340 OA
HETATM    3  C9  UNL     1      16.562  16.628  15.118  1.00  0.00     0.235 C 
HETATM    4  C10 UNL     1      16.588  15.825  16.374  1.00  0.00     0.079 C 
HETATM    5  C11 UNL     1      17.651  14.751  16.366  1.00  0.00     0.041 C 
HETATM    6  C12 UNL     1      18.640  14.961  15.301  1.00  0.00    -0.060 C 
HETATM    7  C13 UNL     1      19.262  13.921  14.780  1.00  0.00     0.017 C 
HETATM    8  O2  UNL     1      15.737  17.786  15.197  1.00  0.00    -0.196 OA
HETATM    9  O3  UNL     1      15.699  17.720  13.877  1.00  0.00    -0.218 OA
HETATM   10  C14 UNL     1      15.567  16.318  14.068  1.00  0.00     0.177 C 
HETATM   11  C15 UNL     1      16.152  15.514  12.938  1.00  0.00     0.058 C 
ENDROOT
BRANCH  10  12
HETATM   12  C16 UNL     1      14.147  16.028  14.410  1.00  0.00     0.161 C 
BRANCH  12  13
HETATM   13  O4  UNL     1      13.876  16.008  15.755  1.00  0.00    -0.392 OA
ATOM     14  H4  UNL     1      13.286  15.315  16.030  1.00  0.00     0.210 HD
ENDBRANCH  12  13
BRANCH  12  15
HETATM   15  C17 UNL     1      13.602  14.833  13.649  1.00  0.00     0.037 C 
BRANCH  15  16
HETATM   16  C18 UNL     1      13.426  13.641  14.556  1.00  0.00     0.034 C 
BRANCH  16  17
HETATM   17  C19 UNL     1      12.011  13.140  14.523  1.00  0.00     0.121 C 
BRANCH  17  18
HETATM   18  C20 UNL     1      11.321  13.476  13.247  1.00  0.00     0.036 C 
BRANCH  18  19
HETATM   19  C21 UNL     1      10.324  12.436  12.799  1.00  0.00     0.030 C 
BRANCH  19  20
HETATM   20  C22 UNL     1       8.968  12.691  13.298  1.00  0.00    -0.025 C 
HETATM   21  C23 UNL     1       8.096  13.334  12.548  1.00  0.00    -0.091 C 
HETATM   22  C24 UNL     1       8.456  13.813  11.192  1.00  0.00     0.042 C 
HETATM   23  C25 UNL     1       6.731  13.589  13.059  1.00  0.00     0.042 C 
ENDBRANCH  19  20
ENDBRANCH  18  19
ENDBRANCH  17  18
BRANCH  17  24
HETATM   24  O5  UNL     1      11.324  13.730  15.575  1.00  0.00    -0.386 OA
BRANCH  24  25
HETATM   25  C26 UNL     1      10.785  12.865  16.486  1.00  0.00     0.163 C 
HETATM   26  C27 UNL     1       9.385  13.228  16.882  1.00  0.00     0.033 C 
ENDBRANCH  24  25
ENDBRANCH  17  24
ENDBRANCH  16  17
ENDBRANCH  15  16
ENDBRANCH  12  15
ENDBRANCH  10  12
BRANCH   1  27
HETATM   27  C7  UNL     1      19.816  17.089  15.802  1.00  0.00     0.063 C 
BRANCH  27  28
HETATM   28  C6  UNL     1      21.168  17.143  15.141  1.00  0.00    -0.028 C 
HETATM   29  C5  UNL     1      21.849  18.269  15.050  1.00  0.00    -0.030 C 
BRANCH  29  30
HETATM   30  C4  UNL     1      23.174  18.291  14.396  1.00  0.00     0.030 C 
BRANCH  30  31
HETATM   31  C3  UNL     1      23.180  19.236  13.209  1.00  0.00     0.030 C 
BRANCH  31  32
HETATM   32  C2  UNL     1      24.593  19.515  12.853  1.00  0.00    -0.037 C 
HETATM   33  C1  UNL     1      24.924  20.311  11.848  1.00  0.00     0.007 C 
ENDBRANCH  31  32
ENDBRANCH  30  31
ENDBRANCH  29  30
ENDBRANCH  27  28
ENDBRANCH   1  27
TORSDOF 15
ENDMDL
