MODEL 1
REMARK VINA RESULT: -9.042866911      0.000      0.000
REMARK  13 active torsions:
REMARK  status: ('A' for Active; 'I' for Inactive)
REMARK    1  A    between atoms: C2_2  and  C4_4 
REMARK    2  A    between atoms: C5_5  and  C6_6 
REMARK    3  A    between atoms: C5_5  and  N2_17 
REMARK    4  A    between atoms: C6_6  and  C7_7 
REMARK    5  A    between atoms: C7_7  and  C8_8 
REMARK    6  A    between atoms: C8_8  and  O1_9 
REMARK    7  A    between atoms: O1_9  and  C9_10 
REMARK       I    between atoms: C9_10  and  N1_12 
REMARK    8  A    between atoms: N1_12  and  C10_14 
REMARK    9  A    between atoms: C15_20  and  C16_21 
REMARK   10  A    between atoms: N3_22  and  O3_24 
REMARK   11  A    between atoms: O3_24  and  C17_25 
REMARK   12  A    between atoms: C17_25  and  C18_26 
REMARK   13  A    between atoms: C18_26  and  C19_27 
ROOT
HETATM    1  N2  UNL     1      14.708  16.377  14.004  1.00  0.00    -0.287 NA
HETATM    2  C13 UNL     1      15.351  15.929  15.166  1.00  0.00     0.096 C 
HETATM    3  C14 UNL     1      16.635  15.235  15.126  1.00  0.00     0.024 C 
HETATM    4  C15 UNL     1      17.514  15.590  13.946  1.00  0.00     0.028 C 
HETATM    5  C25 UNL     1      17.037  16.720  13.156  1.00  0.00     0.024 C 
HETATM    6  C26 UNL     1      15.578  16.857  12.967  1.00  0.00     0.096 C 
ENDROOT
BRANCH   1   7
HETATM    7  C5  UNL     1      13.684  15.466  13.446  1.00  0.00    -0.016 C 
HETATM    8  C4  UNL     1      13.204  14.392  14.235  1.00  0.00    -0.004 C 
BRANCH   8   9
HETATM    9  C2  UNL     1      11.766  14.056  14.391  1.00  0.00     0.001 C 
HETATM   10  C1  UNL     1      11.445  12.921  13.358  1.00  0.00     0.013 C 
HETATM   11  C3  UNL     1      11.564  13.277  15.736  1.00  0.00     0.013 C 
ENDBRANCH   8   9
BRANCH   7  12
HETATM   12  C6  UNL     1      13.652  15.643  11.999  1.00  0.00     0.053 C 
BRANCH  12  13
HETATM   13  C7  UNL     1      12.414  16.165  11.358  1.00  0.00     0.032 C 
BRANCH  13  14
HETATM   14  C8  UNL     1      12.632  16.822  10.030  1.00  0.00     0.181 C 
BRANCH  14  15
HETATM   15  O1  UNL     1      13.377  17.973  10.238  1.00  0.00    -0.304 OA
BRANCH  15  16
HETATM   16  C9  UNL     1      13.005  19.236   9.897  1.00  0.00     0.360 C 
HETATM   17  O2  UNL     1      11.839  19.517   9.537  1.00  0.00    -0.239 OA
HETATM   18  N1  UNL     1      13.998  20.281   9.927  1.00  0.00    -0.333 N 
ATOM     19  H1  UNL     1      14.949  20.048  10.212  1.00  0.00     0.165 HD
BRANCH  18  20
HETATM   20  C10 UNL     1      13.694  21.639   9.568  1.00  0.00     0.078 C 
HETATM   21  C11 UNL     1      14.596  21.895   8.317  1.00  0.00     0.032 C 
HETATM   22  C12 UNL     1      14.043  22.642  10.621  1.00  0.00     0.032 C 
ENDBRANCH  18  20
ENDBRANCH  15  16
ENDBRANCH  14  15
ENDBRANCH  13  14
ENDBRANCH  12  13
ENDBRANCH   7  12
ENDBRANCH   1   7
BRANCH   4  23
HETATM   23  C16 UNL     1      18.915  15.707  14.399  1.00  0.00     0.091 C 
HETATM   24  N3  UNL     1      19.455  16.447  15.224  1.00  0.00    -0.281 N 
ATOM     25  H3  UNL     1      20.450  16.223  15.239  1.00  0.00     0.193 HD
BRANCH  24  26
HETATM   26  O3  UNL     1      19.245  17.417  16.098  1.00  0.00    -0.281 OA
BRANCH  26  27
HETATM   27  C17 UNL     1      20.319  17.917  16.946  1.00  0.00     0.201 C 
BRANCH  27  28
HETATM   28  C18 UNL     1      19.857  19.328  17.228  1.00  0.00     0.033 C 
BRANCH  28  29
HETATM   29  C19 UNL     1      19.440  19.644  18.599  1.00  0.00    -0.013 C 
HETATM   30  C20 UNL     1      19.125  18.502  19.465  1.00  0.00     0.005 C 
HETATM   31  C21 UNL     1      19.759  18.499  20.835  1.00  0.00     0.000 C 
HETATM   32  C22 UNL     1      20.286  19.808  21.316  1.00  0.00     0.000 C 
HETATM   33  C23 UNL     1      21.233  20.312  20.217  1.00  0.00     0.000 C 
HETATM   34  C24 UNL     1      20.337  20.712  19.102  1.00  0.00     0.005 C 
ENDBRANCH  28  29
ENDBRANCH  27  28
ENDBRANCH  26  27
ENDBRANCH  24  26
ENDBRANCH   4  23
TORSDOF 13
ENDMDL
MODEL 2
REMARK VINA RESULT: -9.042019031      2.971      5.277
REMARK  13 active torsions:
REMARK  status: ('A' for Active; 'I' for Inactive)
REMARK    1  A    between atoms: C2_2  and  C4_4 
REMARK    2  A    between atoms: C5_5  and  C6_6 
REMARK    3  A    between atoms: C5_5  and  N2_17 
REMARK    4  A    between atoms: C6_6  and  C7_7 
REMARK    5  A    between atoms: C7_7  and  C8_8 
REMARK    6  A    between atoms: C8_8  and  O1_9 
REMARK    7  A    between atoms: O1_9  and  C9_10 
REMARK       I    between atoms: C9_10  and  N1_12 
REMARK    8  A    between atoms: N1_12  and  C10_14 
REMARK    9  A    between atoms: C15_20  and  C16_21 
REMARK   10  A    between atoms: N3_22  and  O3_24 
REMARK   11  A    between atoms: O3_24  and  C17_25 
REMARK   12  A    between atoms: C17_25  and  C18_26 
REMARK   13  A    between atoms: C18_26  and  C19_27 
ROOT
HETATM    1  N2  UNL     1      15.508  15.807  14.536  1.00  0.00    -0.287 NA
HETATM    2  C13 UNL     1      16.333  14.683  14.682  1.00  0.00     0.096 C 
HETATM    3  C14 UNL     1      17.768  14.732  14.413  1.00  0.00     0.024 C 
HETATM    4  C15 UNL     1      18.409  16.088  14.618  1.00  0.00     0.028 C 
HETATM    5  C25 UNL     1      17.542  17.076  15.253  1.00  0.00     0.024 C 
HETATM    6  C26 UNL     1      16.110  17.061  14.895  1.00  0.00     0.096 C 
ENDROOT
BRANCH   1   7
HETATM    7  C5  UNL     1      14.802  15.919  13.240  1.00  0.00    -0.016 C 
HETATM    8  C4  UNL     1      15.385  16.673  12.192  1.00  0.00    -0.004 C 
BRANCH   8   9
HETATM    9  C2  UNL     1      15.489  16.200  10.789  1.00  0.00     0.001 C 
HETATM   10  C1  UNL     1      15.161  17.423   9.866  1.00  0.00     0.013 C 
HETATM   11  C3  UNL     1      16.999  15.977  10.434  1.00  0.00     0.013 C 
ENDBRANCH   8   9
BRANCH   7  12
HETATM   12  C6  UNL     1      13.412  15.526  13.439  1.00  0.00     0.053 C 
BRANCH  12  13
HETATM   13  C7  UNL     1      12.999  14.956  14.752  1.00  0.00     0.032 C 
BRANCH  13  14
HETATM   14  C8  UNL     1      12.600  13.515  14.706  1.00  0.00     0.181 C 
BRANCH  14  15
HETATM   15  O1  UNL     1      11.359  13.393  15.313  1.00  0.00    -0.304 OA
BRANCH  15  16
HETATM   16  C9  UNL     1      10.156  13.404  14.677  1.00  0.00     0.360 C 
HETATM   17  O2  UNL     1       9.155  13.992  15.146  1.00  0.00    -0.239 OA
HETATM   18  N1  UNL     1      10.026  12.688  13.432  1.00  0.00    -0.333 N 
ATOM     19  H1  UNL     1      10.841  12.202  13.057  1.00  0.00     0.165 HD
BRANCH  18  20
HETATM   20  C10 UNL     1       8.789  12.634  12.703  1.00  0.00     0.078 C 
HETATM   21  C11 UNL     1       8.783  11.191  12.102  1.00  0.00     0.032 C 
HETATM   22  C12 UNL     1       8.698  13.619  11.581  1.00  0.00     0.032 C 
ENDBRANCH  18  20
ENDBRANCH  15  16
ENDBRANCH  14  15
ENDBRANCH  13  14
ENDBRANCH  12  13
ENDBRANCH   7  12
ENDBRANCH   1   7
BRANCH   4  23
HETATM   23  C16 UNL     1      19.722  15.914  15.272  1.00  0.00     0.091 C 
HETATM   24  N3  UNL     1      20.585  16.723  15.613  1.00  0.00    -0.281 N 
ATOM     25  H3  UNL     1      21.358  16.199  16.024  1.00  0.00     0.193 HD
BRANCH  24  26
HETATM   26  O3  UNL     1      20.900  18.007  15.654  1.00  0.00    -0.281 OA
BRANCH  26  27
HETATM   27  C17 UNL     1      21.380  18.630  16.882  1.00  0.00     0.201 C 
BRANCH  27  28
HETATM   28  C18 UNL     1      20.350  19.715  17.098  1.00  0.00     0.033 C 
BRANCH  28  29
HETATM   29  C19 UNL     1      19.720  19.798  18.421  1.00  0.00    -0.013 C 
HETATM   30  C20 UNL     1      19.368  18.524  19.058  1.00  0.00     0.005 C 
HETATM   31  C21 UNL     1      19.798  18.345  20.493  1.00  0.00     0.000 C 
HETATM   32  C22 UNL     1      20.156  19.591  21.231  1.00  0.00     0.000 C 
HETATM   33  C23 UNL     1      21.212  20.303  20.370  1.00  0.00     0.000 C 
HETATM   34  C24 UNL     1      20.457  20.822  19.201  1.00  0.00     0.005 C 
ENDBRANCH  28  29
ENDBRANCH  27  28
ENDBRANCH  26  27
ENDBRANCH  24  26
ENDBRANCH   4  23
TORSDOF 13
ENDMDL
MODEL 3
REMARK VINA RESULT: -8.966033055      2.921      8.896
REMARK  13 active torsions:
REMARK  status: ('A' for Active; 'I' for Inactive)
REMARK    1  A    between atoms: C2_2  and  C4_4 
REMARK    2  A    between atoms: C5_5  and  C6_6 
REMARK    3  A    between atoms: C5_5  and  N2_17 
REMARK    4  A    between atoms: C6_6  and  C7_7 
REMARK    5  A    between atoms: C7_7  and  C8_8 
REMARK    6  A    between atoms: C8_8  and  O1_9 
REMARK    7  A    between atoms: O1_9  and  C9_10 
REMARK       I    between atoms: C9_10  and  N1_12 
REMARK    8  A    between atoms: N1_12  and  C10_14 
REMARK    9  A    between atoms: C15_20  and  C16_21 
REMARK   10  A    between atoms: N3_22  and  O3_24 
REMARK   11  A    between atoms: O3_24  and  C17_25 
REMARK   12  A    between atoms: C17_25  and  C18_26 
REMARK   13  A    between atoms: C18_26  and  C19_27 
ROOT
HETATM    1  N2  UNL     1      14.933  16.369  11.207  1.00  0.00    -0.287 NA
HETATM    2  C13 UNL     1      13.894  16.754  10.350  1.00  0.00     0.096 C 
HETATM    3  C14 UNL     1      13.511  18.153  10.172  1.00  0.00     0.024 C 
HETATM    4  C15 UNL     1      14.625  19.152  10.396  1.00  0.00     0.028 C 
HETATM    5  C25 UNL     1      15.950  18.557  10.543  1.00  0.00     0.024 C 
HETATM    6  C26 UNL     1      16.047  17.274  11.267  1.00  0.00     0.096 C 
ENDROOT
BRANCH   1   7
HETATM    7  C5  UNL     1      14.521  15.957  12.568  1.00  0.00    -0.016 C 
HETATM    8  C4  UNL     1      13.197  15.507  12.788  1.00  0.00    -0.004 C 
BRANCH   8   9
HETATM    9  C2  UNL     1      12.854  14.284  13.557  1.00  0.00     0.001 C 
HETATM   10  C1  UNL     1      12.370  14.752  14.972  1.00  0.00     0.013 C 
HETATM   11  C3  UNL     1      11.523  13.679  12.992  1.00  0.00     0.013 C 
ENDBRANCH   8   9
BRANCH   7  12
HETATM   12  C6  UNL     1      15.496  16.477  13.519  1.00  0.00     0.053 C 
BRANCH  12  13
HETATM   13  C7  UNL     1      16.077  15.561  14.539  1.00  0.00     0.032 C 
BRANCH  13  14
HETATM   14  C8  UNL     1      17.541  15.754  14.785  1.00  0.00     0.181 C 
BRANCH  14  15
HETATM   15  O1  UNL     1      17.701  16.908  15.537  1.00  0.00    -0.304 OA
BRANCH  15  16
HETATM   16  C9  UNL     1      18.848  17.306  16.152  1.00  0.00     0.360 C 
HETATM   17  O2  UNL     1      19.926  16.680  16.030  1.00  0.00    -0.239 OA
HETATM   18  N1  UNL     1      18.810  18.474  16.996  1.00  0.00    -0.333 N 
ATOM     19  H1  UNL     1      17.929  18.977  17.101  1.00  0.00     0.165 HD
BRANCH  18  20
HETATM   20  C10 UNL     1      19.970  18.954  17.695  1.00  0.00     0.078 C 
HETATM   21  C11 UNL     1      19.384  19.517  19.030  1.00  0.00     0.032 C 
HETATM   22  C12 UNL     1      20.695  20.057  16.990  1.00  0.00     0.032 C 
ENDBRANCH  18  20
ENDBRANCH  15  16
ENDBRANCH  14  15
ENDBRANCH  13  14
ENDBRANCH  12  13
ENDBRANCH   7  12
ENDBRANCH   1   7
BRANCH   4  23
HETATM   23  C16 UNL     1      14.541  20.215   9.373  1.00  0.00     0.091 C 
HETATM   24  N3  UNL     1      15.349  21.068   9.004  1.00  0.00    -0.281 N 
ATOM     25  H3  UNL     1      14.902  21.627   8.278  1.00  0.00     0.193 HD
BRANCH  24  26
HETATM   26  O3  UNL     1      16.571  21.540   9.183  1.00  0.00    -0.281 OA
BRANCH  26  27
HETATM   27  C17 UNL     1      17.600  21.386   8.162  1.00  0.00     0.201 C 
BRANCH  27  28
HETATM   28  C18 UNL     1      18.514  22.550   8.469  1.00  0.00     0.033 C 
BRANCH  28  29
HETATM   29  C19 UNL     1      18.162  23.857   7.900  1.00  0.00    -0.013 C 
HETATM   30  C20 UNL     1      19.117  24.948   8.132  1.00  0.00     0.005 C 
HETATM   31  C21 UNL     1      19.513  25.764   6.926  1.00  0.00     0.000 C 
HETATM   32  C22 UNL     1      18.615  25.661   5.740  1.00  0.00     0.000 C 
HETATM   33  C23 UNL     1      18.490  24.160   5.435  1.00  0.00     0.000 C 
HETATM   34  C24 UNL     1      17.644  23.622   6.531  1.00  0.00     0.005 C 
ENDBRANCH  28  29
ENDBRANCH  27  28
ENDBRANCH  26  27
ENDBRANCH  24  26
ENDBRANCH   4  23
TORSDOF 13
ENDMDL
MODEL 4
REMARK VINA RESULT: -8.950435220      2.978      5.257
REMARK  13 active torsions:
REMARK  status: ('A' for Active; 'I' for Inactive)
REMARK    1  A    between atoms: C2_2  and  C4_4 
REMARK    2  A    between atoms: C5_5  and  C6_6 
REMARK    3  A    between atoms: C5_5  and  N2_17 
REMARK    4  A    between atoms: C6_6  and  C7_7 
REMARK    5  A    between atoms: C7_7  and  C8_8 
REMARK    6  A    between atoms: C8_8  and  O1_9 
REMARK    7  A    between atoms: O1_9  and  C9_10 
REMARK       I    between atoms: C9_10  and  N1_12 
REMARK    8  A    between atoms: N1_12  and  C10_14 
REMARK    9  A    between atoms: C15_20  and  C16_21 
REMARK   10  A    between atoms: N3_22  and  O3_24 
REMARK   11  A    between atoms: O3_24  and  C17_25 
REMARK   12  A    between atoms: C17_25  and  C18_26 
REMARK   13  A    between atoms: C18_26  and  C19_27 
ROOT
HETATM    1  N2  UNL     1      15.748  16.625  14.319  1.00  0.00    -0.287 NA
HETATM    2  C13 UNL     1      15.922  15.722  15.377  1.00  0.00     0.096 C 
HETATM    3  C14 UNL     1      16.952  14.686  15.354  1.00  0.00     0.024 C 
HETATM    4  C15 UNL     1      18.175  15.022  14.527  1.00  0.00     0.028 C 
HETATM    5  C25 UNL     1      18.227  16.404  14.061  1.00  0.00     0.024 C 
HETATM    6  C26 UNL     1      16.956  17.042  13.664  1.00  0.00     0.096 C 
ENDROOT
BRANCH   1   7
HETATM    7  C5  UNL     1      14.714  16.257  13.326  1.00  0.00    -0.016 C 
HETATM    8  C4  UNL     1      14.776  16.805  12.022  1.00  0.00    -0.004 C 
BRANCH   8   9
HETATM    9  C2  UNL     1      14.618  16.008  10.779  1.00  0.00     0.001 C 
HETATM   10  C1  UNL     1      13.557  16.745   9.892  1.00  0.00     0.013 C 
HETATM   11  C3  UNL     1      15.897  16.183   9.891  1.00  0.00     0.013 C 
ENDBRANCH   8   9
BRANCH   7  12
HETATM   12  C6  UNL     1      13.582  15.674  14.037  1.00  0.00     0.053 C 
BRANCH  12  13
HETATM   13  C7  UNL     1      12.825  14.558  13.406  1.00  0.00     0.032 C 
BRANCH  13  14
HETATM   14  C8  UNL     1      12.730  13.320  14.243  1.00  0.00     0.181 C 
BRANCH  14  15
HETATM   15  O1  UNL     1      11.549  13.381  14.968  1.00  0.00    -0.304 OA
BRANCH  15  16
HETATM   16  C9  UNL     1      10.293  13.369  14.447  1.00  0.00     0.360 C 
HETATM   17  O2  UNL     1       9.340  13.984  14.979  1.00  0.00    -0.239 OA
HETATM   18  N1  UNL     1      10.046  12.595  13.256  1.00  0.00    -0.333 N 
ATOM     19  H1  UNL     1      10.821  12.088  12.829  1.00  0.00     0.165 HD
BRANCH  18  20
HETATM   20  C10 UNL     1       8.746  12.513  12.649  1.00  0.00     0.078 C 
HETATM   21  C11 UNL     1       8.728  11.083  12.018  1.00  0.00     0.032 C 
HETATM   22  C12 UNL     1       8.514  13.517  11.563  1.00  0.00     0.032 C 
ENDBRANCH  18  20
ENDBRANCH  15  16
ENDBRANCH  14  15
ENDBRANCH  13  14
ENDBRANCH  12  13
ENDBRANCH   7  12
ENDBRANCH   1   7
BRANCH   4  23
HETATM   23  C16 UNL     1      19.386  14.570  15.241  1.00  0.00     0.091 C 
HETATM   24  N3  UNL     1      19.789  14.771  16.388  1.00  0.00    -0.281 N 
ATOM     25  H3  UNL     1      20.683  14.291  16.492  1.00  0.00     0.193 HD
BRANCH  24  26
HETATM   26  O3  UNL     1      19.513  15.366  17.536  1.00  0.00    -0.281 OA
BRANCH  26  27
HETATM   27  C17 UNL     1      19.235  16.796  17.600  1.00  0.00     0.201 C 
BRANCH  27  28
HETATM   28  C18 UNL     1      19.202  17.036  19.091  1.00  0.00     0.033 C 
BRANCH  28  29
HETATM   29  C19 UNL     1      19.125  18.427  19.553  1.00  0.00    -0.013 C 
HETATM   30  C20 UNL     1      19.846  18.745  20.791  1.00  0.00     0.005 C 
HETATM   31  C21 UNL     1      20.735  19.965  20.759  1.00  0.00     0.000 C 
HETATM   32  C22 UNL     1      20.483  20.932  19.652  1.00  0.00     0.000 C 
HETATM   33  C23 UNL     1      20.539  20.112  18.354  1.00  0.00     0.000 C 
HETATM   34  C24 UNL     1      19.296  19.300  18.366  1.00  0.00     0.005 C 
ENDBRANCH  28  29
ENDBRANCH  27  28
ENDBRANCH  26  27
ENDBRANCH  24  26
ENDBRANCH   4  23
TORSDOF 13
ENDMDL
MODEL 5
REMARK VINA RESULT: -8.874297651      2.653      3.659
REMARK  13 active torsions:
REMARK  status: ('A' for Active; 'I' for Inactive)
REMARK    1  A    between atoms: C2_2  and  C4_4 
REMARK    2  A    between atoms: C5_5  and  C6_6 
REMARK    3  A    between atoms: C5_5  and  N2_17 
REMARK    4  A    between atoms: C6_6  and  C7_7 
REMARK    5  A    between atoms: C7_7  and  C8_8 
REMARK    6  A    between atoms: C8_8  and  O1_9 
REMARK    7  A    between atoms: O1_9  and  C9_10 
REMARK       I    between atoms: C9_10  and  N1_12 
REMARK    8  A    between atoms: N1_12  and  C10_14 
REMARK    9  A    between atoms: C15_20  and  C16_21 
REMARK   10  A    between atoms: N3_22  and  O3_24 
REMARK   11  A    between atoms: O3_24  and  C17_25 
REMARK   12  A    between atoms: C17_25  and  C18_26 
REMARK   13  A    between atoms: C18_26  and  C19_27 
ROOT
HETATM    1  N2  UNL     1      16.329  17.551  11.830  1.00  0.00    -0.287 NA
HETATM    2  C13 UNL     1      15.995  17.918  13.141  1.00  0.00     0.096 C 
HETATM    3  C14 UNL     1      15.854  16.934  14.211  1.00  0.00     0.024 C 
HETATM    4  C15 UNL     1      16.682  15.679  14.037  1.00  0.00     0.028 C 
HETATM    5  C25 UNL     1      17.649  15.740  12.944  1.00  0.00     0.024 C 
HETATM    6  C26 UNL     1      17.247  16.453  11.715  1.00  0.00     0.096 C 
ENDROOT
BRANCH   1   7
HETATM    7  C5  UNL     1      15.188  17.378  10.903  1.00  0.00    -0.016 C 
HETATM    8  C4  UNL     1      14.687  16.078  10.652  1.00  0.00    -0.004 C 
BRANCH   8   9
HETATM    9  C2  UNL     1      13.244  15.728  10.668  1.00  0.00     0.001 C 
HETATM   10  C1  UNL     1      12.796  15.695  12.170  1.00  0.00     0.013 C 
HETATM   11  C3  UNL     1      12.414  16.954  10.154  1.00  0.00     0.013 C 
ENDBRANCH   8   9
BRANCH   7  12
HETATM   12  C6  UNL     1      15.050  18.596  10.113  1.00  0.00     0.053 C 
BRANCH  12  13
HETATM   13  C7  UNL     1      16.234  19.479   9.926  1.00  0.00     0.032 C 
BRANCH  13  14
HETATM   14  C8  UNL     1      16.007  20.910  10.300  1.00  0.00     0.181 C 
BRANCH  14  15
HETATM   15  O1  UNL     1      17.079  21.653   9.828  1.00  0.00    -0.304 OA
BRANCH  15  16
HETATM   16  C9  UNL     1      16.996  22.808   9.114  1.00  0.00     0.360 C 
HETATM   17  O2  UNL     1      15.962  23.515   9.100  1.00  0.00    -0.239 OA
HETATM   18  N1  UNL     1      18.131  23.214   8.323  1.00  0.00    -0.333 N 
ATOM     19  H1  UNL     1      18.968  22.632   8.328  1.00  0.00     0.165 HD
BRANCH  18  20
HETATM   20  C10 UNL     1      18.123  24.410   7.526  1.00  0.00     0.078 C 
HETATM   21  C11 UNL     1      18.118  23.871   6.059  1.00  0.00     0.032 C 
HETATM   22  C12 UNL     1      19.329  25.276   7.712  1.00  0.00     0.032 C 
ENDBRANCH  18  20
ENDBRANCH  15  16
ENDBRANCH  14  15
ENDBRANCH  13  14
ENDBRANCH  12  13
ENDBRANCH   7  12
ENDBRANCH   1   7
BRANCH   4  23
HETATM   23  C16 UNL     1      17.256  15.287  15.340  1.00  0.00     0.091 C 
HETATM   24  N3  UNL     1      17.853  15.932  16.204  1.00  0.00    -0.281 N 
ATOM     25  H3  UNL     1      18.100  15.290  16.957  1.00  0.00     0.193 HD
BRANCH  24  26
HETATM   26  O3  UNL     1      18.297  17.133  16.535  1.00  0.00    -0.281 OA
BRANCH  26  27
HETATM   27  C17 UNL     1      19.619  17.316  17.123  1.00  0.00     0.201 C 
BRANCH  27  28
HETATM   28  C18 UNL     1      19.678  18.817  17.283  1.00  0.00     0.033 C 
BRANCH  28  29
HETATM   29  C19 UNL     1      19.369  19.371  18.606  1.00  0.00    -0.013 C 
HETATM   30  C20 UNL     1      19.084  18.400  19.670  1.00  0.00     0.005 C 
HETATM   31  C21 UNL     1      19.813  18.597  20.976  1.00  0.00     0.000 C 
HETATM   32  C22 UNL     1      20.411  19.945  21.197  1.00  0.00     0.000 C 
HETATM   33  C23 UNL     1      21.292  20.223  19.969  1.00  0.00     0.000 C 
HETATM   34  C24 UNL     1      20.330  20.470  18.864  1.00  0.00     0.005 C 
ENDBRANCH  28  29
ENDBRANCH  27  28
ENDBRANCH  26  27
ENDBRANCH  24  26
ENDBRANCH   4  23
TORSDOF 13
ENDMDL
