MODEL 1
REMARK VINA RESULT: -8.913885289      0.000      0.000
REMARK  15 active torsions:
REMARK  status: ('A' for Active; 'I' for Inactive)
REMARK    1  A    between atoms: C2_2  and  O2_4 
REMARK    2  A    between atoms: O2_4  and  C3_5 
REMARK    3  A    between atoms: C3_5  and  C4_6 
REMARK    4  A    between atoms: C4_6  and  C5_7 
REMARK    5  A    between atoms: C7_12  and  C8_13 
REMARK    6  A    between atoms: C8_13  and  C9_14 
REMARK    7  A    between atoms: C9_14  and  C10_15 
REMARK    8  A    between atoms: C12_17  and  C13_18 
REMARK    9  A    between atoms: C13_18  and  C14_19 
REMARK   10  A    between atoms: C14_19  and  C15_20 
REMARK   11  A    between atoms: C17_22  and  C18_23 
REMARK   12  A    between atoms: C18_23  and  C19_24 
REMARK   13  A    between atoms: C19_24  and  C20_25 
REMARK   14  A    between atoms: C20_25  and  C21_26 
REMARK   15  A    between atoms: C21_26  and  C22_27 
ROOT
HETATM    1  C9  UNL     1      16.490  16.103  12.017  1.00  0.00     0.038 C 
ENDROOT
BRANCH   1   2
HETATM    2  C8  UNL     1      16.044  16.714  13.283  1.00  0.00     0.068 C 
BRANCH   2   3
HETATM    3  C7  UNL     1      17.224  16.920  14.243  1.00  0.00     0.296 C 
HETATM    4  O5  UNL     1      18.345  16.246  13.821  1.00  0.00    -0.355 OA
HETATM    5  C6  UNL     1      19.405  16.562  14.620  1.00  0.00     0.226 C 
HETATM    6  C4  UNL     1      19.062  16.775  16.070  1.00  0.00     0.226 C 
HETATM    7  O7  UNL     1      17.762  16.940  16.347  1.00  0.00    -0.211 OA
HETATM    8  O6  UNL     1      16.906  16.434  15.511  1.00  0.00    -0.207 OA
BRANCH   6   9
HETATM    9  C3  UNL     1      19.909  17.887  16.619  1.00  0.00     0.234 C 
BRANCH   9  10
HETATM   10  O2  UNL     1      19.273  18.830  17.389  1.00  0.00    -0.318 OA
BRANCH  10  11
HETATM   11  C2  UNL     1      19.382  19.098  18.719  1.00  0.00     0.254 C 
HETATM   12  C1  UNL     1      20.195  20.299  19.132  1.00  0.00     0.126 C 
HETATM   13  O1  UNL     1      18.834  18.383  19.586  1.00  0.00    -0.266 OA
ENDBRANCH  10  11
ENDBRANCH   9  10
ENDBRANCH   6   9
BRANCH   6  14
HETATM   14  C5  UNL     1      19.539  15.528  16.781  1.00  0.00     0.217 C 
HETATM   15  O3  UNL     1      19.301  15.378  17.991  1.00  0.00    -0.645 OA
HETATM   16  O4  UNL     1      20.240  14.572  16.058  1.00  0.00    -0.645 OA
ENDBRANCH   6  14
ENDBRANCH   2   3
ENDBRANCH   1   2
BRANCH   1  17
HETATM   17  C10 UNL     1      16.230  17.042  10.841  1.00  0.00    -0.087 C 
HETATM   18  C11 UNL     1      16.321  16.359   9.523  1.00  0.00     0.043 C 
HETATM   19  C12 UNL     1      15.954  18.274  11.107  1.00  0.00    -0.024 C 
BRANCH  19  20
HETATM   20  C13 UNL     1      15.663  19.398  10.234  1.00  0.00     0.031 C 
BRANCH  20  21
HETATM   21  C14 UNL     1      14.238  19.652   9.926  1.00  0.00     0.037 C 
BRANCH  21  22
HETATM   22  C15 UNL     1      14.127  21.171   9.776  1.00  0.00    -0.087 C 
HETATM   23  C16 UNL     1      12.809  21.782   9.975  1.00  0.00     0.043 C 
HETATM   24  C17 UNL     1      15.205  21.859   9.480  1.00  0.00    -0.024 C 
BRANCH  24  25
HETATM   25  C18 UNL     1      15.157  23.337   9.323  1.00  0.00     0.027 C 
BRANCH  25  26
HETATM   26  C19 UNL     1      16.454  23.884   8.760  1.00  0.00     0.004 C 
BRANCH  26  27
HETATM   27  C20 UNL     1      17.610  22.958   9.001  1.00  0.00     0.004 C 
BRANCH  27  28
HETATM   28  C21 UNL     1      18.505  23.009   7.781  1.00  0.00     0.027 C 
BRANCH  28  29
HETATM   29  C22 UNL     1      18.939  24.407   7.540  1.00  0.00    -0.025 C 
HETATM   30  C23 UNL     1      18.859  25.008   6.374  1.00  0.00    -0.091 C 
HETATM   31  C24 UNL     1      18.300  24.275   5.183  1.00  0.00     0.042 C 
HETATM   32  C25 UNL     1      19.309  26.414   6.188  1.00  0.00     0.042 C 
ENDBRANCH  28  29
ENDBRANCH  27  28
ENDBRANCH  26  27
ENDBRANCH  25  26
ENDBRANCH  24  25
ENDBRANCH  21  22
ENDBRANCH  20  21
ENDBRANCH  19  20
ENDBRANCH   1  17
TORSDOF 15
ENDMDL
MODEL 2
REMARK VINA RESULT: -8.661188753      1.604      2.324
REMARK  15 active torsions:
REMARK  status: ('A' for Active; 'I' for Inactive)
REMARK    1  A    between atoms: C2_2  and  O2_4 
REMARK    2  A    between atoms: O2_4  and  C3_5 
REMARK    3  A    between atoms: C3_5  and  C4_6 
REMARK    4  A    between atoms: C4_6  and  C5_7 
REMARK    5  A    between atoms: C7_12  and  C8_13 
REMARK    6  A    between atoms: C8_13  and  C9_14 
REMARK    7  A    between atoms: C9_14  and  C10_15 
REMARK    8  A    between atoms: C12_17  and  C13_18 
REMARK    9  A    between atoms: C13_18  and  C14_19 
REMARK   10  A    between atoms: C14_19  and  C15_20 
REMARK   11  A    between atoms: C17_22  and  C18_23 
REMARK   12  A    between atoms: C18_23  and  C19_24 
REMARK   13  A    between atoms: C19_24  and  C20_25 
REMARK   14  A    between atoms: C20_25  and  C21_26 
REMARK   15  A    between atoms: C21_26  and  C22_27 
ROOT
HETATM    1  C9  UNL     1      14.403  15.646  14.384  1.00  0.00     0.038 C 
ENDROOT
BRANCH   1   2
HETATM    2  C8  UNL     1      15.574  14.756  14.486  1.00  0.00     0.068 C 
BRANCH   2   3
HETATM    3  C7  UNL     1      16.730  15.447  15.224  1.00  0.00     0.296 C 
HETATM    4  O5  UNL     1      17.262  16.474  14.482  1.00  0.00    -0.355 OA
HETATM    5  C6  UNL     1      18.189  17.149  15.222  1.00  0.00     0.226 C 
HETATM    6  C4  UNL     1      19.003  16.289  16.152  1.00  0.00     0.226 C 
HETATM    7  O7  UNL     1      18.529  15.057  16.377  1.00  0.00    -0.211 OA
HETATM    8  O6  UNL     1      17.760  14.539  15.465  1.00  0.00    -0.207 OA
BRANCH   6   9
HETATM    9  C3  UNL     1      19.259  17.044  17.425  1.00  0.00     0.234 C 
BRANCH   9  10
HETATM   10  O2  UNL     1      19.017  18.396  17.403  1.00  0.00    -0.318 OA
BRANCH  10  11
HETATM   11  C2  UNL     1      19.851  19.443  17.651  1.00  0.00     0.254 C 
HETATM   12  C1  UNL     1      20.092  19.828  19.088  1.00  0.00     0.126 C 
HETATM   13  O1  UNL     1      20.407  20.078  16.729  1.00  0.00    -0.266 OA
ENDBRANCH  10  11
ENDBRANCH   9  10
ENDBRANCH   6   9
BRANCH   6  14
HETATM   14  C5  UNL     1      20.358  16.158  15.492  1.00  0.00     0.217 C 
HETATM   15  O3  UNL     1      21.038  15.135  15.676  1.00  0.00    -0.645 OA
HETATM   16  O4  UNL     1      20.814  17.194  14.689  1.00  0.00    -0.645 OA
ENDBRANCH   6  14
ENDBRANCH   2   3
ENDBRANCH   1   2
BRANCH   1  17
HETATM   17  C10 UNL     1      13.863  15.669  12.955  1.00  0.00    -0.087 C 
HETATM   18  C11 UNL     1      12.515  15.053  12.835  1.00  0.00     0.043 C 
HETATM   19  C12 UNL     1      14.598  16.214  12.046  1.00  0.00    -0.024 C 
BRANCH  19  20
HETATM   20  C13 UNL     1      14.379  16.393  10.621  1.00  0.00     0.031 C 
BRANCH  20  21
HETATM   21  C14 UNL     1      15.385  17.195   9.887  1.00  0.00     0.037 C 
BRANCH  21  22
HETATM   22  C15 UNL     1      14.911  18.644  10.017  1.00  0.00    -0.087 C 
HETATM   23  C16 UNL     1      13.478  18.911   9.857  1.00  0.00     0.043 C 
HETATM   24  C17 UNL     1      15.797  19.581  10.266  1.00  0.00    -0.024 C 
BRANCH  24  25
HETATM   25  C18 UNL     1      15.394  21.006  10.404  1.00  0.00     0.027 C 
BRANCH  25  26
HETATM   26  C19 UNL     1      15.921  21.850   9.261  1.00  0.00     0.004 C 
BRANCH  26  27
HETATM   27  C20 UNL     1      17.413  21.762   9.134  1.00  0.00     0.004 C 
BRANCH  27  28
HETATM   28  C21 UNL     1      17.795  22.317   7.778  1.00  0.00     0.027 C 
BRANCH  28  29
HETATM   29  C22 UNL     1      18.589  23.558   7.953  1.00  0.00    -0.025 C 
HETATM   30  C23 UNL     1      18.822  24.420   6.989  1.00  0.00    -0.091 C 
HETATM   31  C24 UNL     1      18.271  24.177   5.609  1.00  0.00     0.042 C 
HETATM   32  C25 UNL     1      19.626  25.650   7.221  1.00  0.00     0.042 C 
ENDBRANCH  28  29
ENDBRANCH  27  28
ENDBRANCH  26  27
ENDBRANCH  25  26
ENDBRANCH  24  25
ENDBRANCH  21  22
ENDBRANCH  20  21
ENDBRANCH  19  20
ENDBRANCH   1  17
TORSDOF 15
ENDMDL
MODEL 3
REMARK VINA RESULT: -8.651810454      2.344      3.944
REMARK  15 active torsions:
REMARK  status: ('A' for Active; 'I' for Inactive)
REMARK    1  A    between atoms: C2_2  and  O2_4 
REMARK    2  A    between atoms: O2_4  and  C3_5 
REMARK    3  A    between atoms: C3_5  and  C4_6 
REMARK    4  A    between atoms: C4_6  and  C5_7 
REMARK    5  A    between atoms: C7_12  and  C8_13 
REMARK    6  A    between atoms: C8_13  and  C9_14 
REMARK    7  A    between atoms: C9_14  and  C10_15 
REMARK    8  A    between atoms: C12_17  and  C13_18 
REMARK    9  A    between atoms: C13_18  and  C14_19 
REMARK   10  A    between atoms: C14_19  and  C15_20 
REMARK   11  A    between atoms: C17_22  and  C18_23 
REMARK   12  A    between atoms: C18_23  and  C19_24 
REMARK   13  A    between atoms: C19_24  and  C20_25 
REMARK   14  A    between atoms: C20_25  and  C21_26 
REMARK   15  A    between atoms: C21_26  and  C22_27 
ROOT
HETATM    1  C9  UNL     1      15.302  15.473  14.728  1.00  0.00     0.038 C 
ENDROOT
BRANCH   1   2
HETATM    2  C8  UNL     1      16.622  15.154  14.155  1.00  0.00     0.068 C 
BRANCH   2   3
HETATM    3  C7  UNL     1      17.749  15.807  14.967  1.00  0.00     0.296 C 
HETATM    4  O5  UNL     1      18.449  14.879  15.701  1.00  0.00    -0.355 OA
HETATM    5  C6  UNL     1      19.523  15.473  16.299  1.00  0.00     0.226 C 
HETATM    6  C4  UNL     1      19.289  16.888  16.757  1.00  0.00     0.226 C 
HETATM    7  O7  UNL     1      18.201  17.492  16.261  1.00  0.00    -0.211 OA
HETATM    8  O6  UNL     1      17.223  16.731  15.869  1.00  0.00    -0.207 OA
BRANCH   6   9
HETATM    9  C3  UNL     1      20.539  17.690  16.538  1.00  0.00     0.234 C 
BRANCH   9  10
HETATM   10  O2  UNL     1      21.010  17.765  15.250  1.00  0.00    -0.318 OA
BRANCH  10  11
HETATM   11  C2  UNL     1      22.212  17.395  14.731  1.00  0.00     0.254 C 
HETATM   12  C1  UNL     1      22.995  18.427  13.960  1.00  0.00     0.126 C 
HETATM   13  O1  UNL     1      22.669  16.241  14.876  1.00  0.00    -0.266 OA
ENDBRANCH  10  11
ENDBRANCH   9  10
ENDBRANCH   6   9
BRANCH   6  14
HETATM   14  C5  UNL     1      19.134  16.800  18.259  1.00  0.00     0.217 C 
HETATM   15  O3  UNL     1      18.972  17.837  18.925  1.00  0.00    -0.645 OA
HETATM   16  O4  UNL     1      19.178  15.552  18.865  1.00  0.00    -0.645 OA
ENDBRANCH   6  14
ENDBRANCH   2   3
ENDBRANCH   1   2
BRANCH   1  17
HETATM   17  C10 UNL     1      14.271  15.693  13.623  1.00  0.00    -0.087 C 
HETATM   18  C11 UNL     1      12.880  15.404  14.063  1.00  0.00     0.043 C 
HETATM   19  C12 UNL     1      14.698  16.107  12.478  1.00  0.00    -0.024 C 
BRANCH  19  20
HETATM   20  C13 UNL     1      13.990  16.407  11.246  1.00  0.00     0.031 C 
BRANCH  20  21
HETATM   21  C14 UNL     1      14.804  16.903  10.113  1.00  0.00     0.037 C 
BRANCH  21  22
HETATM   22  C15 UNL     1      14.659  18.425  10.155  1.00  0.00    -0.087 C 
HETATM   23  C16 UNL     1      13.356  18.997   9.801  1.00  0.00     0.043 C 
HETATM   24  C17 UNL     1      15.696  19.152  10.504  1.00  0.00    -0.024 C 
BRANCH  24  25
HETATM   25  C18 UNL     1      15.613  20.636  10.563  1.00  0.00     0.027 C 
BRANCH  25  26
HETATM   26  C19 UNL     1      16.545  21.290   9.563  1.00  0.00     0.004 C 
BRANCH  26  27
HETATM   27  C20 UNL     1      15.808  22.161   8.589  1.00  0.00     0.004 C 
BRANCH  27  28
HETATM   28  C21 UNL     1      14.474  22.520   9.208  1.00  0.00     0.027 C 
BRANCH  28  29
HETATM   29  C22 UNL     1      14.549  23.879   9.799  1.00  0.00    -0.025 C 
HETATM   30  C23 UNL     1      13.912  24.239  10.890  1.00  0.00    -0.091 C 
HETATM   31  C24 UNL     1      13.041  23.249  11.618  1.00  0.00     0.042 C 
HETATM   32  C25 UNL     1      14.023  25.616  11.441  1.00  0.00     0.042 C 
ENDBRANCH  28  29
ENDBRANCH  27  28
ENDBRANCH  26  27
ENDBRANCH  25  26
ENDBRANCH  24  25
ENDBRANCH  21  22
ENDBRANCH  20  21
ENDBRANCH  19  20
ENDBRANCH   1  17
TORSDOF 15
ENDMDL
MODEL 4
REMARK VINA RESULT: -8.633164895      4.366      8.503
REMARK  15 active torsions:
REMARK  status: ('A' for Active; 'I' for Inactive)
REMARK    1  A    between atoms: C2_2  and  O2_4 
REMARK    2  A    between atoms: O2_4  and  C3_5 
REMARK    3  A    between atoms: C3_5  and  C4_6 
REMARK    4  A    between atoms: C4_6  and  C5_7 
REMARK    5  A    between atoms: C7_12  and  C8_13 
REMARK    6  A    between atoms: C8_13  and  C9_14 
REMARK    7  A    between atoms: C9_14  and  C10_15 
REMARK    8  A    between atoms: C12_17  and  C13_18 
REMARK    9  A    between atoms: C13_18  and  C14_19 
REMARK   10  A    between atoms: C14_19  and  C15_20 
REMARK   11  A    between atoms: C17_22  and  C18_23 
REMARK   12  A    between atoms: C18_23  and  C19_24 
REMARK   13  A    between atoms: C19_24  and  C20_25 
REMARK   14  A    between atoms: C20_25  and  C21_26 
REMARK   15  A    between atoms: C21_26  and  C22_27 
ROOT
HETATM    1  C9  UNL     1      16.485  17.461  12.000  1.00  0.00     0.038 C 
ENDROOT
BRANCH   1   2
HETATM    2  C8  UNL     1      17.094  16.264  12.608  1.00  0.00     0.068 C 
BRANCH   2   3
HETATM    3  C7  UNL     1      17.909  16.632  13.856  1.00  0.00     0.296 C 
HETATM    4  O5  UNL     1      18.950  15.758  14.057  1.00  0.00    -0.355 OA
HETATM    5  C6  UNL     1      19.731  16.194  15.088  1.00  0.00     0.226 C 
HETATM    6  C4  UNL     1      18.980  16.863  16.209  1.00  0.00     0.226 C 
HETATM    7  O7  UNL     1      17.721  17.228  15.936  1.00  0.00    -0.211 OA
HETATM    8  O6  UNL     1      17.104  16.580  14.993  1.00  0.00    -0.207 OA
BRANCH   6   9
HETATM    9  C3  UNL     1      19.802  18.000  16.743  1.00  0.00     0.234 C 
BRANCH   9  10
HETATM   10  O2  UNL     1      19.159  18.901  17.557  1.00  0.00    -0.318 OA
BRANCH  10  11
HETATM   11  C2  UNL     1      19.370  19.210  18.866  1.00  0.00     0.254 C 
HETATM   12  C1  UNL     1      20.336  20.323  19.181  1.00  0.00     0.126 C 
HETATM   13  O1  UNL     1      18.791  18.600  19.791  1.00  0.00    -0.266 OA
ENDBRANCH  10  11
ENDBRANCH   9  10
ENDBRANCH   6   9
BRANCH   6  14
HETATM   14  C5  UNL     1      18.942  15.844  17.327  1.00  0.00     0.217 C 
HETATM   15  O3  UNL     1      19.966  15.202  17.612  1.00  0.00    -0.645 OA
HETATM   16  O4  UNL     1      17.752  15.649  18.014  1.00  0.00    -0.645 OA
ENDBRANCH   6  14
ENDBRANCH   2   3
ENDBRANCH   1   2
BRANCH   1  17
HETATM   17  C10 UNL     1      15.137  17.121  11.366  1.00  0.00    -0.087 C 
HETATM   18  C11 UNL     1      14.730  18.090  10.315  1.00  0.00     0.043 C 
HETATM   19  C12 UNL     1      14.529  16.061  11.783  1.00  0.00    -0.024 C 
BRANCH  19  20
HETATM   20  C13 UNL     1      13.259  15.474  11.394  1.00  0.00     0.031 C 
BRANCH  20  21
HETATM   21  C14 UNL     1      12.121  15.674  12.320  1.00  0.00     0.037 C 
BRANCH  21  22
HETATM   22  C15 UNL     1      12.242  14.548  13.349  1.00  0.00    -0.087 C 
HETATM   23  C16 UNL     1      12.381  13.177  12.848  1.00  0.00     0.043 C 
HETATM   24  C17 UNL     1      12.219  14.851  14.627  1.00  0.00    -0.024 C 
BRANCH  24  25
HETATM   25  C18 UNL     1      12.334  13.799  15.671  1.00  0.00     0.027 C 
BRANCH  25  26
HETATM   26  C19 UNL     1      11.128  12.882  15.678  1.00  0.00     0.004 C 
BRANCH  26  27
HETATM   27  C20 UNL     1       9.993  13.447  16.480  1.00  0.00     0.004 C 
BRANCH  27  28
HETATM   28  C21 UNL     1       8.759  13.443  15.602  1.00  0.00     0.027 C 
BRANCH  28  29
HETATM   29  C22 UNL     1       9.124  13.004  14.233  1.00  0.00    -0.025 C 
HETATM   30  C23 UNL     1       8.313  13.073  13.201  1.00  0.00    -0.091 C 
HETATM   31  C24 UNL     1       6.921  13.622  13.370  1.00  0.00     0.042 C 
HETATM   32  C25 UNL     1       8.731  12.618  11.848  1.00  0.00     0.042 C 
ENDBRANCH  28  29
ENDBRANCH  27  28
ENDBRANCH  26  27
ENDBRANCH  25  26
ENDBRANCH  24  25
ENDBRANCH  21  22
ENDBRANCH  20  21
ENDBRANCH  19  20
ENDBRANCH   1  17
TORSDOF 15
ENDMDL
MODEL 5
REMARK VINA RESULT: -8.632777591      1.528      2.416
REMARK  15 active torsions:
REMARK  status: ('A' for Active; 'I' for Inactive)
REMARK    1  A    between atoms: C2_2  and  O2_4 
REMARK    2  A    between atoms: O2_4  and  C3_5 
REMARK    3  A    between atoms: C3_5  and  C4_6 
REMARK    4  A    between atoms: C4_6  and  C5_7 
REMARK    5  A    between atoms: C7_12  and  C8_13 
REMARK    6  A    between atoms: C8_13  and  C9_14 
REMARK    7  A    between atoms: C9_14  and  C10_15 
REMARK    8  A    between atoms: C12_17  and  C13_18 
REMARK    9  A    between atoms: C13_18  and  C14_19 
REMARK   10  A    between atoms: C14_19  and  C15_20 
REMARK   11  A    between atoms: C17_22  and  C18_23 
REMARK   12  A    between atoms: C18_23  and  C19_24 
REMARK   13  A    between atoms: C19_24  and  C20_25 
REMARK   14  A    between atoms: C20_25  and  C21_26 
REMARK   15  A    between atoms: C21_26  and  C22_27 
ROOT
HETATM    1  C9  UNL     1      15.113  15.586  14.010  1.00  0.00     0.038 C 
ENDROOT
BRANCH   1   2
HETATM    2  C8  UNL     1      16.276  16.096  13.261  1.00  0.00     0.068 C 
BRANCH   2   3
HETATM    3  C7  UNL     1      17.447  16.408  14.204  1.00  0.00     0.296 C 
HETATM    4  O5  UNL     1      18.339  15.365  14.267  1.00  0.00    -0.355 OA
HETATM    5  C6  UNL     1      19.430  15.730  15.002  1.00  0.00     0.226 C 
HETATM    6  C4  UNL     1      19.133  16.640  16.164  1.00  0.00     0.226 C 
HETATM    7  O7  UNL     1      17.928  17.224  16.158  1.00  0.00    -0.211 OA
HETATM    8  O6  UNL     1      16.980  16.627  15.499  1.00  0.00    -0.207 OA
BRANCH   6   9
HETATM    9  C3  UNL     1      20.249  17.633  16.311  1.00  0.00     0.234 C 
BRANCH   9  10
HETATM   10  O2  UNL     1      20.339  18.292  17.512  1.00  0.00    -0.318 OA
BRANCH  10  11
HETATM   11  C2  UNL     1      20.553  19.610  17.778  1.00  0.00     0.254 C 
HETATM   12  C1  UNL     1      20.817  20.007  19.208  1.00  0.00     0.126 C 
HETATM   13  O1  UNL     1      20.533  20.478  16.879  1.00  0.00    -0.266 OA
ENDBRANCH  10  11
ENDBRANCH   9  10
ENDBRANCH   6   9
BRANCH   6  14
HETATM   14  C5  UNL     1      19.223  15.761  17.392  1.00  0.00     0.217 C 
HETATM   15  O3  UNL     1      18.351  15.839  18.273  1.00  0.00    -0.645 OA
HETATM   16  O4  UNL     1      20.289  14.879  17.507  1.00  0.00    -0.645 OA
ENDBRANCH   6  14
ENDBRANCH   2   3
ENDBRANCH   1   2
BRANCH   1  17
HETATM   17  C10 UNL     1      13.839  15.698  13.175  1.00  0.00    -0.087 C 
HETATM   18  C11 UNL     1      12.637  15.178  13.879  1.00  0.00     0.043 C 
HETATM   19  C12 UNL     1      13.936  16.225  12.001  1.00  0.00    -0.024 C 
BRANCH  19  20
HETATM   20  C13 UNL     1      12.934  16.470  10.978  1.00  0.00     0.031 C 
BRANCH  20  21
HETATM   21  C14 UNL     1      13.420  16.988   9.679  1.00  0.00     0.037 C 
BRANCH  21  22
HETATM   22  C15 UNL     1      13.917  18.405   9.977  1.00  0.00    -0.087 C 
HETATM   23  C16 UNL     1      12.940  19.498   9.914  1.00  0.00     0.043 C 
HETATM   24  C17 UNL     1      15.183  18.584  10.276  1.00  0.00    -0.024 C 
BRANCH  24  25
HETATM   25  C18 UNL     1      15.720  19.938  10.575  1.00  0.00     0.027 C 
BRANCH  25  26
HETATM   26  C19 UNL     1      16.592  20.457   9.448  1.00  0.00     0.004 C 
BRANCH  26  27
HETATM   27  C20 UNL     1      16.409  21.928   9.223  1.00  0.00     0.004 C 
BRANCH  27  28
HETATM   28  C21 UNL     1      17.751  22.505   8.825  1.00  0.00     0.027 C 
BRANCH  28  29
HETATM   29  C22 UNL     1      17.736  22.851   7.382  1.00  0.00    -0.025 C 
HETATM   30  C23 UNL     1      18.296  23.929   6.882  1.00  0.00    -0.091 C 
HETATM   31  C24 UNL     1      19.006  24.902   7.787  1.00  0.00     0.042 C 
HETATM   32  C25 UNL     1      18.252  24.227   5.425  1.00  0.00     0.042 C 
ENDBRANCH  28  29
ENDBRANCH  27  28
ENDBRANCH  26  27
ENDBRANCH  25  26
ENDBRANCH  24  25
ENDBRANCH  21  22
ENDBRANCH  20  21
ENDBRANCH  19  20
ENDBRANCH   1  17
TORSDOF 15
ENDMDL
