MODEL 1
REMARK VINA RESULT: 9.889281511      0.000      0.000
REMARK  1 active torsions:
REMARK  status: ('A' for Active; 'I' for Inactive)
REMARK    1  A    between atoms: C1_2  and  C2_3 
REMARK       I    between atoms: C1_2  and  N1_10 
ROOT
HETATM    1  O1  UNL     1       9.781 -17.449  20.699  1.00  0.00    -0.267 OA
HETATM    2  C1  UNL     1       8.955 -17.679  21.614  1.00  0.00     0.258 C 
HETATM    3  N1  UNL     1       8.329 -18.921  21.772  1.00  0.00    -0.325 N 
HETATM    4  C8  UNL     1       8.551 -20.068  20.914  1.00  0.00     0.147 C 
HETATM    5  C9  UNL     1       9.022 -19.741  19.541  1.00  0.00     0.133 C 
HETATM    6  N2  UNL     1       8.746 -20.835  18.642  1.00  0.00    -0.418 N 
ATOM      7  H2  UNL     1       8.902 -20.771  17.637  1.00  0.00     0.153 HD
HETATM    8  C10 UNL     1       8.236 -22.015  19.267  1.00  0.00     0.141 C 
HETATM    9  C11 UNL     1       8.532 -23.200  18.351  1.00  0.00     0.251 C 
HETATM   10  N3  UNL     1       9.350 -24.197  19.013  1.00  0.00    -0.074 N 
ATOM     11  H31 UNL     1       9.701 -23.857  19.907  1.00  0.00     0.277 HD
ATOM     12  H32 UNL     1      10.239 -24.329  18.532  1.00  0.00     0.277 HD
HETATM   13  C12 UNL     1       8.633 -25.465  19.167  1.00  0.00     0.234 C 
HETATM   14  C13 UNL     1       9.408 -26.314  20.120  1.00  0.00     0.055 C 
HETATM   15  C14 UNL     1       8.814 -26.380  21.501  1.00  0.00     0.234 C 
HETATM   16  N4  UNL     1       8.376 -25.112  22.003  1.00  0.00    -0.073 N 
ATOM     17  H41 UNL     1       7.857 -24.570  21.312  1.00  0.00     0.277 HD
ATOM     18  H42 UNL     1       9.143 -24.454  22.142  1.00  0.00     0.277 HD
HETATM   19  C15 UNL     1       7.614 -25.357  23.218  1.00  0.00     0.258 C 
HETATM   20  C16 UNL     1       7.765 -24.214  24.172  1.00  0.00     0.195 C 
HETATM   21  O2  UNL     1       7.929 -23.000  23.524  1.00  0.00    -0.387 OA
HETATM   22  C17 UNL     1       8.302 -22.055  24.477  1.00  0.00     0.193 C 
HETATM   23  C18 UNL     1       7.426 -20.830  24.440  1.00  0.00     0.196 C 
HETATM   24  O3  UNL     1       8.083 -19.730  23.904  1.00  0.00    -0.370 OA
HETATM   25  C19 UNL     1       7.371 -19.128  22.870  1.00  0.00     0.296 C 
ENDROOT
BRANCH   2  26
HETATM   26  C2  UNL     1       8.649 -16.602  22.541  1.00  0.00     0.070 A 
HETATM   27  C3  UNL     1       7.455 -15.914  22.522  1.00  0.00     0.020 A 
HETATM   28  C4  UNL     1       7.210 -14.899  23.421  1.00  0.00     0.001 A 
HETATM   29  C5  UNL     1       8.150 -14.537  24.370  1.00  0.00     0.003 A 
HETATM   30  C6  UNL     1       9.342 -15.218  24.394  1.00  0.00     0.043 A 
HETATM   31  C7  UNL     1       9.591 -16.247  23.483  1.00  0.00     0.132 A 
HETATM   32  F1  UNL     1      10.778 -16.897  23.535  1.00  0.00    -0.205 F 
ENDBRANCH   2  26
TORSDOF 1
ENDMDL
MODEL 2
REMARK VINA RESULT: 9.909270296      4.135      9.922
REMARK  1 active torsions:
REMARK  status: ('A' for Active; 'I' for Inactive)
REMARK    1  A    between atoms: C1_2  and  C2_3 
REMARK       I    between atoms: C1_2  and  N1_10 
ROOT
HETATM    1  O1  UNL     1       6.259 -18.296  23.547  1.00  0.00    -0.267 OA
HETATM    2  C1  UNL     1       6.998 -17.834  22.646  1.00  0.00     0.258 C 
HETATM    3  N1  UNL     1       7.119 -16.462  22.397  1.00  0.00    -0.325 N 
HETATM    4  C8  UNL     1       6.418 -15.429  23.133  1.00  0.00     0.147 C 
HETATM    5  C9  UNL     1       5.152 -15.870  23.778  1.00  0.00     0.133 C 
HETATM    6  N2  UNL     1       4.303 -14.734  24.045  1.00  0.00    -0.418 N 
ATOM      7  H2  UNL     1       3.350 -14.832  24.394  1.00  0.00     0.153 HD
HETATM    8  C10 UNL     1       4.898 -13.461  23.782  1.00  0.00     0.141 C 
HETATM    9  C11 UNL     1       4.158 -12.414  24.612  1.00  0.00     0.251 C 
HETATM   10  N3  UNL     1       5.052 -11.722  25.520  1.00  0.00    -0.074 N 
ATOM     11  H31 UNL     1       5.970 -12.163  25.548  1.00  0.00     0.277 HD
ATOM     12  H32 UNL     1       4.778 -11.864  26.492  1.00  0.00     0.277 HD
HETATM   13  C12 UNL     1       5.152 -10.298  25.195  1.00  0.00     0.234 C 
HETATM   14  C13 UNL     1       6.308  -9.737  25.956  1.00  0.00     0.055 C 
HETATM   15  C14 UNL     1       7.536  -9.507  25.118  1.00  0.00     0.234 C 
HETATM   16  N4  UNL     1       7.836 -10.585  24.223  1.00  0.00    -0.073 N 
ATOM     17  H41 UNL     1       7.013 -10.935  23.734  1.00  0.00     0.277 HD
ATOM     18  H42 UNL     1       8.079 -11.448  24.710  1.00  0.00     0.277 HD
HETATM   19  C15 UNL     1       8.881 -10.132  23.319  1.00  0.00     0.258 C 
HETATM   20  C16 UNL     1       9.754 -11.277  22.909  1.00  0.00     0.195 C 
HETATM   21  O2  UNL     1       9.062 -12.476  22.845  1.00  0.00    -0.387 OA
HETATM   22  C17 UNL     1       9.995 -13.500  22.701  1.00  0.00     0.193 C 
HETATM   23  C18 UNL     1       9.682 -14.397  21.532  1.00  0.00     0.196 C 
HETATM   24  O3  UNL     1       9.210 -15.639  21.935  1.00  0.00    -0.370 OA
HETATM   25  C19 UNL     1       8.006 -15.983  21.325  1.00  0.00     0.296 C 
ENDROOT
BRANCH   2  26
HETATM   26  C2  UNL     1       7.754 -18.776  21.837  1.00  0.00     0.070 A 
HETATM   27  C3  UNL     1       7.277 -19.301  20.656  1.00  0.00     0.020 A 
HETATM   28  C4  UNL     1       8.030 -20.193  19.922  1.00  0.00     0.001 A 
HETATM   29  C5  UNL     1       9.287 -20.588  20.344  1.00  0.00     0.003 A 
HETATM   30  C6  UNL     1       9.769 -20.068  21.521  1.00  0.00     0.043 A 
HETATM   31  C7  UNL     1       9.005 -19.166  22.264  1.00  0.00     0.132 A 
HETATM   32  F1  UNL     1       9.512 -18.673  23.419  1.00  0.00    -0.205 F 
ENDBRANCH   2  26
TORSDOF 1
ENDMDL
MODEL 3
REMARK VINA RESULT: 9.945799939      4.220      9.992
REMARK  1 active torsions:
REMARK  status: ('A' for Active; 'I' for Inactive)
REMARK    1  A    between atoms: C1_2  and  C2_3 
REMARK       I    between atoms: C1_2  and  N1_10 
ROOT
HETATM    1  O1  UNL     1       6.139 -18.375  23.550  1.00  0.00    -0.267 OA
HETATM    2  C1  UNL     1       6.917 -17.902  22.687  1.00  0.00     0.258 C 
HETATM    3  N1  UNL     1       7.029 -16.529  22.443  1.00  0.00    -0.325 N 
HETATM    4  C8  UNL     1       6.275 -15.506  23.141  1.00  0.00     0.147 C 
HETATM    5  C9  UNL     1       4.984 -15.966  23.720  1.00  0.00     0.133 C 
HETATM    6  N2  UNL     1       4.105 -14.843  23.941  1.00  0.00    -0.418 N 
ATOM      7  H2  UNL     1       3.137 -14.956  24.241  1.00  0.00     0.153 HD
HETATM    8  C10 UNL     1       4.694 -13.562  23.708  1.00  0.00     0.141 C 
HETATM    9  C11 UNL     1       3.896 -12.525  24.497  1.00  0.00     0.251 C 
HETATM   10  N3  UNL     1       4.730 -11.820  25.450  1.00  0.00    -0.074 N 
ATOM     11  H31 UNL     1       5.653 -12.247  25.526  1.00  0.00     0.277 HD
ATOM     12  H32 UNL     1       4.409 -11.966  26.407  1.00  0.00     0.277 HD
HETATM   13  C12 UNL     1       4.825 -10.394  25.129  1.00  0.00     0.234 C 
HETATM   14  C13 UNL     1       5.932  -9.815  25.949  1.00  0.00     0.055 C 
HETATM   15  C14 UNL     1       7.198  -9.567  25.174  1.00  0.00     0.234 C 
HETATM   16  N4  UNL     1       7.560 -10.641  24.298  1.00  0.00    -0.073 N 
ATOM     17  H41 UNL     1       6.769 -11.003  23.767  1.00  0.00     0.277 HD
ATOM     18  H42 UNL     1       7.791 -11.499  24.798  1.00  0.00     0.277 HD
HETATM   19  C15 UNL     1       8.644 -10.172  23.449  1.00  0.00     0.258 C 
HETATM   20  C16 UNL     1       9.554 -11.303  23.085  1.00  0.00     0.195 C 
HETATM   21  O2  UNL     1       8.885 -12.512  22.987  1.00  0.00    -0.387 OA
HETATM   22  C17 UNL     1       9.840 -13.522  22.892  1.00  0.00     0.193 C 
HETATM   23  C18 UNL     1       9.601 -14.424  21.710  1.00  0.00     0.196 C 
HETATM   24  O3  UNL     1       9.128 -15.674  22.090  1.00  0.00    -0.370 OA
HETATM   25  C19 UNL     1       7.964 -16.036  21.418  1.00  0.00     0.296 C 
ENDROOT
BRANCH   2  26
HETATM   26  C2  UNL     1       7.728 -18.832  21.920  1.00  0.00     0.070 A 
HETATM   27  C3  UNL     1       8.881 -19.404  22.413  1.00  0.00     0.020 A 
HETATM   28  C4  UNL     1       9.619 -20.281  21.648  1.00  0.00     0.001 A 
HETATM   29  C5  UNL     1       9.229 -20.618  20.364  1.00  0.00     0.003 A 
HETATM   30  C6  UNL     1       8.081 -20.052  19.866  1.00  0.00     0.043 A 
HETATM   31  C7  UNL     1       7.333 -19.162  20.641  1.00  0.00     0.132 A 
HETATM   32  F1  UNL     1       6.207 -18.623  20.118  1.00  0.00    -0.205 F 
ENDBRANCH   2  26
TORSDOF 1
ENDMDL
MODEL 4
REMARK VINA RESULT: 10.541252292      4.275      9.629
REMARK  1 active torsions:
REMARK  status: ('A' for Active; 'I' for Inactive)
REMARK    1  A    between atoms: C1_2  and  C2_3 
REMARK       I    between atoms: C1_2  and  N1_10 
ROOT
HETATM    1  O1  UNL     1       9.125 -16.019  20.762  1.00  0.00    -0.267 OA
HETATM    2  C1  UNL     1       8.373 -16.692  21.507  1.00  0.00     0.258 C 
HETATM    3  N1  UNL     1       7.629 -16.121  22.545  1.00  0.00    -0.325 N 
HETATM    4  C8  UNL     1       7.638 -14.711  22.883  1.00  0.00     0.147 C 
HETATM    5  C9  UNL     1       8.867 -13.978  22.476  1.00  0.00     0.133 C 
HETATM    6  N2  UNL     1       9.012 -12.771  23.252  1.00  0.00    -0.418 N 
ATOM      7  H2  UNL     1       9.840 -12.178  23.195  1.00  0.00     0.153 HD
HETATM    8  C10 UNL     1       7.909 -12.470  24.110  1.00  0.00     0.141 C 
HETATM    9  C11 UNL     1       7.933 -10.970  24.401  1.00  0.00     0.251 C 
HETATM   10  N3  UNL     1       6.710 -10.322  23.968  1.00  0.00    -0.074 N 
ATOM     11  H31 UNL     1       6.129 -10.952  23.416  1.00  0.00     0.277 HD
ATOM     12  H32 UNL     1       6.896  -9.613  23.258  1.00  0.00     0.277 HD
HETATM   13  C12 UNL     1       5.968  -9.764  25.100  1.00  0.00     0.234 C 
HETATM   14  C13 UNL     1       4.601  -9.405  24.617  1.00  0.00     0.055 C 
HETATM   15  C14 UNL     1       3.532 -10.379  25.034  1.00  0.00     0.234 C 
HETATM   16  N4  UNL     1       3.911 -11.752  24.887  1.00  0.00    -0.073 N 
ATOM     17  H41 UNL     1       4.854 -11.942  25.226  1.00  0.00     0.277 HD
ATOM     18  H42 UNL     1       4.062 -12.019  23.914  1.00  0.00     0.277 HD
HETATM   19  C15 UNL     1       2.899 -12.563  25.545  1.00  0.00     0.258 C 
HETATM   20  C16 UNL     1       2.756 -13.885  24.858  1.00  0.00     0.195 C 
HETATM   21  O2  UNL     1       3.947 -14.329  24.306  1.00  0.00    -0.387 OA
HETATM   22  C17 UNL     1       3.660 -15.422  23.493  1.00  0.00     0.193 C 
HETATM   23  C18 UNL     1       4.514 -16.619  23.821  1.00  0.00     0.196 C 
HETATM   24  O3  UNL     1       5.479 -16.858  22.851  1.00  0.00    -0.370 OA
HETATM   25  C19 UNL     1       6.762 -16.966  23.382  1.00  0.00     0.296 C 
ENDROOT
BRANCH   2  26
HETATM   26  C2  UNL     1       8.280 -18.123  21.265  1.00  0.00     0.070 A 
HETATM   27  C3  UNL     1       7.365 -18.679  20.397  1.00  0.00     0.020 A 
HETATM   28  C4  UNL     1       7.315 -20.042  20.201  1.00  0.00     0.001 A 
HETATM   29  C5  UNL     1       8.178 -20.896  20.864  1.00  0.00     0.003 A 
HETATM   30  C6  UNL     1       9.092 -20.349  21.731  1.00  0.00     0.043 A 
HETATM   31  C7  UNL     1       9.143 -18.967  21.931  1.00  0.00     0.132 A 
HETATM   32  F1  UNL     1      10.057 -18.462  22.793  1.00  0.00    -0.205 F 
ENDBRANCH   2  26
TORSDOF 1
ENDMDL
MODEL 5
REMARK VINA RESULT: 10.671477526      2.867      8.226
REMARK  1 active torsions:
REMARK  status: ('A' for Active; 'I' for Inactive)
REMARK    1  A    between atoms: C1_2  and  C2_3 
REMARK       I    between atoms: C1_2  and  N1_10 
ROOT
HETATM    1  O1  UNL     1      10.188 -20.419  20.244  1.00  0.00    -0.267 OA
HETATM    2  C1  UNL     1       9.288 -20.669  21.080  1.00  0.00     0.258 C 
HETATM    3  N1  UNL     1       8.841 -19.728  22.014  1.00  0.00    -0.325 N 
HETATM    4  C8  UNL     1       9.354 -18.377  22.129  1.00  0.00     0.147 C 
HETATM    5  C9  UNL     1      10.739 -18.189  21.619  1.00  0.00     0.133 C 
HETATM    6  N2  UNL     1      11.332 -17.009  22.201  1.00  0.00    -0.418 N 
ATOM      7  H2  UNL     1      12.309 -16.758  22.056  1.00  0.00     0.153 HD
HETATM    8  C10 UNL     1      10.445 -16.218  22.996  1.00  0.00     0.141 C 
HETATM    9  C11 UNL     1      11.001 -14.797  23.051  1.00  0.00     0.251 C 
HETATM   10  N3  UNL     1      10.059 -13.832  22.518  1.00  0.00    -0.074 N 
ATOM     11  H31 UNL     1       9.269 -14.293  22.067  1.00  0.00     0.277 HD
ATOM     12  H32 UNL     1      10.443 -13.346  21.707  1.00  0.00     0.277 HD
HETATM   13  C12 UNL     1       9.614 -12.890  23.546  1.00  0.00     0.234 C 
HETATM   14  C13 UNL     1       8.433 -12.151  23.007  1.00  0.00     0.055 C 
HETATM   15  C14 UNL     1       7.116 -12.617  23.565  1.00  0.00     0.234 C 
HETATM   16  N4  UNL     1       6.987 -14.042  23.634  1.00  0.00    -0.073 N 
ATOM     17  H41 UNL     1       7.822 -14.498  24.003  1.00  0.00     0.277 HD
ATOM     18  H42 UNL     1       6.988 -14.485  22.715  1.00  0.00     0.277 HD
HETATM   19  C15 UNL     1       5.792 -14.342  24.405  1.00  0.00     0.258 C 
HETATM   20  C16 UNL     1       5.165 -15.615  23.930  1.00  0.00     0.195 C 
HETATM   21  O2  UNL     1       6.100 -16.523  23.459  1.00  0.00    -0.387 OA
HETATM   22  C17 UNL     1       5.411 -17.554  22.824  1.00  0.00     0.193 C 
HETATM   23  C18 UNL     1       5.814 -18.912  23.338  1.00  0.00     0.196 C 
HETATM   24  O3  UNL     1       6.586 -19.613  22.421  1.00  0.00    -0.370 OA
HETATM   25  C19 UNL     1       7.777 -20.084  22.967  1.00  0.00     0.296 C 
ENDROOT
BRANCH   2  26
HETATM   26  C2  UNL     1       8.694 -21.996  21.063  1.00  0.00     0.070 A 
HETATM   27  C3  UNL     1       8.208 -22.614  22.195  1.00  0.00     0.020 A 
HETATM   28  C4  UNL     1       7.653 -23.874  22.130  1.00  0.00     0.001 A 
HETATM   29  C5  UNL     1       7.564 -24.559  20.931  1.00  0.00     0.003 A 
HETATM   30  C6  UNL     1       8.047 -23.949  19.799  1.00  0.00     0.043 A 
HETATM   31  C7  UNL     1       8.609 -22.672  19.865  1.00  0.00     0.132 A 
HETATM   32  F1  UNL     1       9.075 -22.101  18.729  1.00  0.00    -0.205 F 
ENDBRANCH   2  26
TORSDOF 1
ENDMDL
