MODEL 1
REMARK VINA RESULT: -3.180309249      0.000      0.000
REMARK  4 active torsions:
REMARK  status: ('A' for Active; 'I' for Inactive)
REMARK    1  A    between atoms: C2_2  and  O1_3 
REMARK    2  A    between atoms: C2_2  and  N1_5 
REMARK    3  A    between atoms: N2_13  and  C6_14 
REMARK    4  A    between atoms: C7_18  and  C8_19 
REMARK       I    between atoms: C8_19  and  N4_21 
ROOT
HETATM    1  N1  UNL     1       7.411 -16.435  22.416  1.00  0.00    -0.313 N 
HETATM    2  C3  UNL     1       6.885 -17.015  21.158  1.00  0.00     0.137 C 
HETATM    3  C4  UNL     1       7.812 -18.154  20.760  1.00  0.00     0.077 C 
HETATM    4  C5  UNL     1       8.687 -18.657  21.869  1.00  0.00     0.160 C 
HETATM    5  S1  UNL     1       7.670 -19.637  23.008  1.00  0.00    -0.041 SA
HETATM    6  S2  UNL     1       7.216 -21.416  21.894  1.00  0.00    -0.010 SA
HETATM    7  S3  UNL     1       9.022 -21.574  20.735  1.00  0.00    -0.010 SA
HETATM    8  S4  UNL     1       9.993 -19.736  21.279  1.00  0.00    -0.041 SA
HETATM    9  N2  UNL     1       9.329 -17.601  22.658  1.00  0.00    -0.295 N 
HETATM   10  C7  UNL     1       8.806 -16.266  22.380  1.00  0.00     0.184 C 
ENDROOT
BRANCH  10  11
HETATM   11  C8  UNL     1       9.460 -15.147  22.982  1.00  0.00     0.292 C 
HETATM   12  O2  UNL     1      10.666 -15.155  23.418  1.00  0.00    -0.264 OA
HETATM   13  N4  UNL     1       8.808 -13.898  23.143  1.00  0.00    -0.297 N 
HETATM   14  C9  UNL     1       9.236 -12.825  22.526  1.00  0.00     0.203 C 
ATOM     15  H4  UNL     1       7.991 -13.833  23.750  1.00  0.00     0.171 HD
HETATM   16  N5  UNL     1       8.550 -11.611  22.722  1.00  0.00    -0.066 NA
HETATM   17  N6  UNL     1      10.377 -12.949  21.688  1.00  0.00    -0.066 NA
ENDBRANCH  10  11
BRANCH   1  18
HETATM   18  C2  UNL     1       6.531 -16.184  23.438  1.00  0.00     0.115 C 
HETATM   19  C1  UNL     1       5.098 -16.577  23.547  1.00  0.00     0.097 C 
BRANCH  18  20
HETATM   20  O1  UNL     1       6.912 -15.508  24.495  1.00  0.00    -0.349 OA
ATOM     21  H1  UNL     1       7.855 -15.551  24.602  1.00  0.00     0.219 HD
ENDBRANCH  18  20
ENDBRANCH   1  18
BRANCH   9  22
HETATM   22  C6  UNL     1      10.347 -17.855  23.590  1.00  0.00     0.180 C 
HETATM   23  N3  UNL     1      11.582 -17.794  23.197  1.00  0.00    -0.395 N 
ATOM     24  H32 UNL     1      11.791 -17.565  22.225  1.00  0.00     0.156 HD
ATOM     25  H31 UNL     1      12.321 -17.979  23.874  1.00  0.00     0.156 HD
ENDBRANCH   9  22
TORSDOF 4
ENDMDL
MODEL 2
REMARK VINA RESULT: -3.007639894      4.307      6.347
REMARK  4 active torsions:
REMARK  status: ('A' for Active; 'I' for Inactive)
REMARK    1  A    between atoms: C2_2  and  O1_3 
REMARK    2  A    between atoms: C2_2  and  N1_5 
REMARK    3  A    between atoms: N2_13  and  C6_14 
REMARK    4  A    between atoms: C7_18  and  C8_19 
REMARK       I    between atoms: C8_19  and  N4_21 
ROOT
HETATM    1  N1  UNL     1       8.860 -20.460  22.552  1.00  0.00    -0.313 N 
HETATM    2  C3  UNL     1       9.691 -19.580  23.406  1.00  0.00     0.137 C 
HETATM    3  C4  UNL     1       9.649 -18.186  22.798  1.00  0.00     0.077 C 
HETATM    4  C5  UNL     1       8.521 -17.963  21.835  1.00  0.00     0.160 C 
HETATM    5  S1  UNL     1       6.980 -17.799  22.779  1.00  0.00    -0.041 SA
HETATM    6  S2  UNL     1       7.175 -15.896  23.757  1.00  0.00    -0.010 SA
HETATM    7  S3  UNL     1       8.321 -14.852  22.266  1.00  0.00    -0.010 SA
HETATM    8  S4  UNL     1       8.714 -16.453  20.887  1.00  0.00    -0.041 SA
HETATM    9  N2  UNL     1       8.326 -19.050  20.872  1.00  0.00    -0.295 N 
HETATM   10  C7  UNL     1       9.099 -20.251  21.183  1.00  0.00     0.184 C 
ENDROOT
BRANCH  10  11
HETATM   11  C8  UNL     1       9.101 -21.317  20.231  1.00  0.00     0.292 C 
HETATM   12  O2  UNL     1       8.139 -22.149  20.068  1.00  0.00    -0.264 OA
HETATM   13  N4  UNL     1      10.198 -21.540  19.361  1.00  0.00    -0.297 N 
HETATM   14  C9  UNL     1      10.068 -21.421  18.063  1.00  0.00     0.203 C 
ATOM     15  H4  UNL     1      11.104 -21.797  19.752  1.00  0.00     0.171 HD
HETATM   16  N5  UNL     1      11.191 -21.654  17.245  1.00  0.00    -0.066 NA
HETATM   17  N6  UNL     1       8.792 -21.062  17.551  1.00  0.00    -0.066 NA
ENDBRANCH  10  11
BRANCH   1  18
HETATM   18  C2  UNL     1       7.966 -21.305  23.160  1.00  0.00     0.115 C 
HETATM   19  C1  UNL     1       8.068 -21.962  24.494  1.00  0.00     0.097 C 
BRANCH  18  20
HETATM   20  O1  UNL     1       6.849 -21.638  22.559  1.00  0.00    -0.349 OA
ATOM     21  H1  UNL     1       6.661 -22.561  22.683  1.00  0.00     0.219 HD
ENDBRANCH  18  20
ENDBRANCH   1  18
BRANCH   9  22
HETATM   22  C6  UNL     1       7.478 -18.944  19.759  1.00  0.00     0.180 C 
HETATM   23  N3  UNL     1       6.198 -18.871  19.955  1.00  0.00    -0.395 N 
ATOM     24  H32 UNL     1       5.830 -18.892  20.907  1.00  0.00     0.156 HD
ATOM     25  H31 UNL     1       5.582 -18.794  19.147  1.00  0.00     0.156 HD
ENDBRANCH   9  22
TORSDOF 4
ENDMDL
MODEL 3
REMARK VINA RESULT: -2.742597685      1.281      1.403
REMARK  4 active torsions:
REMARK  status: ('A' for Active; 'I' for Inactive)
REMARK    1  A    between atoms: C2_2  and  O1_3 
REMARK    2  A    between atoms: C2_2  and  N1_5 
REMARK    3  A    between atoms: N2_13  and  C6_14 
REMARK    4  A    between atoms: C7_18  and  C8_19 
REMARK       I    between atoms: C8_19  and  N4_21 
ROOT
HETATM    1  N1  UNL     1       7.725 -15.801  23.423  1.00  0.00    -0.313 N 
HETATM    2  C3  UNL     1       6.588 -16.504  22.785  1.00  0.00     0.137 C 
HETATM    3  C4  UNL     1       7.166 -17.639  21.952  1.00  0.00     0.077 C 
HETATM    4  C5  UNL     1       8.574 -18.013  22.305  1.00  0.00     0.160 C 
HETATM    5  S1  UNL     1       8.552 -18.928  23.872  1.00  0.00    -0.041 SA
HETATM    6  S2  UNL     1       7.658 -20.812  23.356  1.00  0.00    -0.010 SA
HETATM    7  S3  UNL     1       8.381 -21.002  21.339  1.00  0.00    -0.010 SA
HETATM    8  S4  UNL     1       9.327 -19.090  21.085  1.00  0.00    -0.041 SA
HETATM    9  N2  UNL     1       9.476 -16.871  22.483  1.00  0.00    -0.295 N 
HETATM   10  C7  UNL     1       8.786 -15.584  22.526  1.00  0.00     0.184 C 
ENDROOT
BRANCH  10  11
HETATM   11  C8  UNL     1       9.578 -14.394  22.546  1.00  0.00     0.292 C 
HETATM   12  O2  UNL     1      10.751 -14.292  22.040  1.00  0.00    -0.264 OA
HETATM   13  N4  UNL     1       9.109 -13.194  23.139  1.00  0.00    -0.297 N 
HETATM   14  C9  UNL     1       8.909 -12.117  22.422  1.00  0.00     0.203 C 
ATOM     15  H4  UNL     1       8.925 -13.170  24.142  1.00  0.00     0.171 HD
HETATM   16  N5  UNL     1       8.443 -10.953  23.063  1.00  0.00    -0.066 NA
HETATM   17  N6  UNL     1       9.176 -12.185  21.028  1.00  0.00    -0.066 NA
ENDBRANCH  10  11
BRANCH   1  18
HETATM   18  C2  UNL     1       7.638 -15.495  24.758  1.00  0.00     0.115 C 
HETATM   19  C1  UNL     1       6.420 -15.215  25.569  1.00  0.00     0.097 C 
BRANCH  18  20
HETATM   20  O1  UNL     1       8.720 -15.409  25.494  1.00  0.00    -0.349 OA
ATOM     21  H1  UNL     1       9.025 -14.511  25.544  1.00  0.00     0.219 HD
ENDBRANCH  18  20
ENDBRANCH   1  18
BRANCH   9  22
HETATM   22  C6  UNL     1      10.868 -17.006  22.598  1.00  0.00     0.180 C 
HETATM   23  N3  UNL     1      11.417 -16.836  23.761  1.00  0.00    -0.395 N 
ATOM     24  H32 UNL     1      10.834 -16.608  24.566  1.00  0.00     0.156 HD
ATOM     25  H31 UNL     1      12.429 -16.934  23.844  1.00  0.00     0.156 HD
ENDBRANCH   9  22
TORSDOF 4
ENDMDL
MODEL 4
REMARK VINA RESULT: -2.293221566      4.265      6.606
REMARK  4 active torsions:
REMARK  status: ('A' for Active; 'I' for Inactive)
REMARK    1  A    between atoms: C2_2  and  O1_3 
REMARK    2  A    between atoms: C2_2  and  N1_5 
REMARK    3  A    between atoms: N2_13  and  C6_14 
REMARK    4  A    between atoms: C7_18  and  C8_19 
REMARK       I    between atoms: C8_19  and  N4_21 
ROOT
HETATM    1  N1  UNL     1       8.890 -20.270  22.046  1.00  0.00    -0.313 N 
HETATM    2  C3  UNL     1      10.018 -19.643  22.774  1.00  0.00     0.137 C 
HETATM    3  C4  UNL     1      10.030 -18.166  22.408  1.00  0.00     0.077 C 
HETATM    4  C5  UNL     1       8.747 -17.664  21.813  1.00  0.00     0.160 C 
HETATM    5  S1  UNL     1       7.517 -17.515  23.138  1.00  0.00    -0.041 SA
HETATM    6  S2  UNL     1       8.208 -15.845  24.298  1.00  0.00    -0.010 SA
HETATM    7  S3  UNL     1       9.100 -14.674  22.729  1.00  0.00    -0.010 SA
HETATM    8  S4  UNL     1       8.920 -16.038  21.078  1.00  0.00    -0.041 SA
HETATM    9  N2  UNL     1       8.175 -18.539  20.786  1.00  0.00    -0.295 N 
HETATM   10  C7  UNL     1       8.822 -19.847  20.708  1.00  0.00     0.184 C 
ENDROOT
BRANCH  10  11
HETATM   11  C8  UNL     1       8.443 -20.723  19.643  1.00  0.00     0.292 C 
HETATM   12  O2  UNL     1       8.296 -20.365  18.421  1.00  0.00    -0.264 OA
HETATM   13  N4  UNL     1       8.201 -22.104  19.862  1.00  0.00    -0.297 N 
HETATM   14  C9  UNL     1       8.955 -23.020  19.307  1.00  0.00     0.203 C 
ATOM     15  H4  UNL     1       7.428 -22.388  20.463  1.00  0.00     0.171 HD
HETATM   16  N5  UNL     1       8.669 -24.376  19.559  1.00  0.00    -0.066 NA
HETATM   17  N6  UNL     1      10.024 -22.590  18.476  1.00  0.00    -0.066 NA
ENDBRANCH  10  11
BRANCH   1  18
HETATM   18  C2  UNL     1       8.057 -21.114  22.736  1.00  0.00     0.115 C 
HETATM   19  C1  UNL     1       8.289 -21.782  24.048  1.00  0.00     0.097 C 
BRANCH  18  20
HETATM   20  O1  UNL     1       6.883 -21.438  22.248  1.00  0.00    -0.349 OA
ATOM     21  H1  UNL     1       6.907 -21.467  21.299  1.00  0.00     0.219 HD
ENDBRANCH  18  20
ENDBRANCH   1  18
BRANCH   9  22
HETATM   22  C6  UNL     1       7.109 -18.152  19.959  1.00  0.00     0.180 C 
HETATM   23  N3  UNL     1       6.043 -18.892  19.929  1.00  0.00    -0.395 N 
ATOM     24  H32 UNL     1       5.997 -19.734  20.501  1.00  0.00     0.156 HD
ATOM     25  H31 UNL     1       5.269 -18.610  19.327  1.00  0.00     0.156 HD
ENDBRANCH   9  22
TORSDOF 4
ENDMDL
MODEL 5
REMARK VINA RESULT: -2.020310850      3.790      6.012
REMARK  4 active torsions:
REMARK  status: ('A' for Active; 'I' for Inactive)
REMARK    1  A    between atoms: C2_2  and  O1_3 
REMARK    2  A    between atoms: C2_2  and  N1_5 
REMARK    3  A    between atoms: N2_13  and  C6_14 
REMARK    4  A    between atoms: C7_18  and  C8_19 
REMARK       I    between atoms: C8_19  and  N4_21 
ROOT
HETATM    1  N1  UNL     1       7.369 -18.766  21.707  1.00  0.00    -0.313 N 
HETATM    2  C3  UNL     1       6.383 -17.748  22.138  1.00  0.00     0.137 C 
HETATM    3  C4  UNL     1       7.141 -16.687  22.924  1.00  0.00     0.077 C 
HETATM    4  C5  UNL     1       8.625 -16.695  22.705  1.00  0.00     0.160 C 
HETATM    5  S1  UNL     1       8.970 -15.992  21.068  1.00  0.00    -0.041 SA
HETATM    6  S2  UNL     1       8.518 -13.905  21.297  1.00  0.00    -0.010 SA
HETATM    7  S3  UNL     1       9.077 -13.650  23.359  1.00  0.00    -0.010 SA
HETATM    8  S4  UNL     1       9.502 -15.686  23.900  1.00  0.00    -0.041 SA
HETATM    9  N2  UNL     1       9.233 -18.028  22.742  1.00  0.00    -0.295 N 
HETATM   10  C7  UNL     1       8.257 -19.115  22.738  1.00  0.00     0.184 C 
ENDROOT
BRANCH  10  11
HETATM   11  C8  UNL     1       8.735 -20.450  22.923  1.00  0.00     0.292 C 
HETATM   12  O2  UNL     1       9.208 -20.909  24.022  1.00  0.00    -0.264 OA
HETATM   13  N4  UNL     1       8.714 -21.403  21.872  1.00  0.00    -0.297 N 
HETATM   14  C9  UNL     1       7.980 -22.485  21.953  1.00  0.00     0.203 C 
ATOM     15  H4  UNL     1       9.280 -21.243  21.039  1.00  0.00     0.171 HD
HETATM   16  N5  UNL     1       7.998 -23.397  20.881  1.00  0.00    -0.066 NA
HETATM   17  N6  UNL     1       7.203 -22.677  23.127  1.00  0.00    -0.066 NA
ENDBRANCH  10  11
BRANCH   1  18
HETATM   18  C2  UNL     1       7.333 -19.200  20.406  1.00  0.00     0.115 C 
HETATM   19  C1  UNL     1       8.298 -20.085  19.694  1.00  0.00     0.097 C 
BRANCH  18  20
HETATM   20  O1  UNL     1       6.360 -18.832  19.607  1.00  0.00    -0.349 OA
ATOM     21  H1  UNL     1       5.624 -18.495  20.104  1.00  0.00     0.219 HD
ENDBRANCH  18  20
ENDBRANCH   1  18
BRANCH   9  22
HETATM   22  C6  UNL     1      10.621 -18.234  22.779  1.00  0.00     0.180 C 
HETATM   23  N3  UNL     1      11.186 -18.473  23.922  1.00  0.00    -0.395 N 
ATOM     24  H32 UNL     1      10.618 -18.507  24.769  1.00  0.00     0.156 HD
ATOM     25  H31 UNL     1      12.194 -18.622  23.949  1.00  0.00     0.156 HD
ENDBRANCH   9  22
TORSDOF 4
ENDMDL
