MODEL 1
REMARK VINA RESULT: -7.149877794      0.000      0.000
REMARK  6 active torsions:
REMARK  status: ('A' for Active; 'I' for Inactive)
REMARK    1  A    between atoms: N1_2  and  C2_3 
REMARK    2  A    between atoms: N1_2  and  C13_29 
REMARK    3  A    between atoms: C2_3  and  O1_4 
REMARK    4  A    between atoms: C2_3  and  N2_6 
REMARK    5  A    between atoms: N3_9  and  C5_10 
REMARK    6  A    between atoms: C8_18  and  N6_19 
ROOT
HETATM    1  C5  UNL     1       8.735 -18.631  21.958  1.00  0.00     0.682 A 
HETATM    2  N4  UNL     1       8.358 -19.564  22.860  1.00  0.00    -0.185 N 
ATOM      3  H4  UNL     1       8.121 -19.363  23.831  1.00  0.00     0.184 HD
HETATM    4  C6  UNL     1       8.336 -20.788  22.311  1.00  0.00     0.133 A 
HETATM    5  C7  UNL     1       8.042 -22.067  22.735  1.00  0.00     0.147 A 
HETATM    6  S1  UNL     1       7.587 -22.291  24.293  1.00  0.00    -0.057 SA
HETATM    7  N5  UNL     1       8.115 -23.135  21.917  1.00  0.00    -0.179 N 
ATOM      8  H5  UNL     1       7.890 -24.069  22.262  1.00  0.00     0.185 HD
HETATM    9  C8  UNL     1       8.494 -22.946  20.626  1.00  0.00     0.680 A 
HETATM   10  N7  UNL     1       8.785 -21.703  20.193  1.00  0.00    -0.170 N 
HETATM   11  C9  UNL     1       9.191 -21.465  18.825  1.00  0.00     0.177 C 
HETATM   12  C10 UNL     1       8.717 -20.611  21.005  1.00  0.00     0.169 A 
HETATM   13  N8  UNL     1       8.952 -19.301  20.814  1.00  0.00    -0.173 N 
ATOM     14  H8  UNL     1       9.249 -18.881  19.934  1.00  0.00     0.186 HD
ENDROOT
BRANCH   1  15
HETATM   15  N3  UNL     1       8.881 -17.238  22.131  1.00  0.00    -0.214 N 
HETATM   16  C4  UNL     1       8.984 -16.390  20.966  1.00  0.00     0.161 C 
HETATM   17  C3  UNL     1       8.120 -15.140  21.240  1.00  0.00     0.147 C 
HETATM   18  N2  UNL     1       8.605 -14.483  22.422  1.00  0.00    -0.344 N 
HETATM   19  C12 UNL     1       9.514 -15.279  23.294  1.00  0.00     0.147 C 
HETATM   20  C11 UNL     1       8.926 -16.679  23.446  1.00  0.00     0.161 C 
BRANCH  18  21
HETATM   21  C2  UNL     1       8.340 -13.190  22.874  1.00  0.00     0.221 C 
BRANCH  21  22
HETATM   22  N1  UNL     1       9.110 -12.043  22.631  1.00  0.00    -0.289 N 
HETATM   23  C1  UNL     1       9.155 -10.902  23.474  1.00  0.00     0.159 C 
BRANCH  22  24
HETATM   24  C13 UNL     1       9.951 -11.984  21.411  1.00  0.00     0.322 C 
HETATM   25  C14 UNL     1      10.582 -10.596  21.426  1.00  0.00     0.117 C 
HETATM   26  F1  UNL     1       9.196 -12.160  20.283  1.00  0.00    -0.183 F 
HETATM   27  F2  UNL     1      10.918 -12.952  21.483  1.00  0.00    -0.183 F 
ENDBRANCH  22  24
ENDBRANCH  21  22
BRANCH  21  28
HETATM   28  O1  UNL     1       7.258 -13.034  23.602  1.00  0.00    -0.332 OA
ATOM     29  H1  UNL     1       7.286 -13.372  24.490  1.00  0.00     0.220 HD
ENDBRANCH  21  28
ENDBRANCH  18  21
ENDBRANCH   1  15
BRANCH   9  30
HETATM   30  N6  UNL     1       8.569 -23.959  19.830  1.00  0.00    -0.234 N 
ATOM     31  H62 UNL     1       9.237 -24.710  20.000  1.00  0.00     0.174 HD
ATOM     32  H61 UNL     1       7.952 -24.009  19.019  1.00  0.00     0.174 HD
ENDBRANCH   9  30
TORSDOF 6
ENDMDL
MODEL 2
REMARK VINA RESULT: -6.935636853      1.315      2.024
REMARK  6 active torsions:
REMARK  status: ('A' for Active; 'I' for Inactive)
REMARK    1  A    between atoms: N1_2  and  C2_3 
REMARK    2  A    between atoms: N1_2  and  C13_29 
REMARK    3  A    between atoms: C2_3  and  O1_4 
REMARK    4  A    between atoms: C2_3  and  N2_6 
REMARK    5  A    between atoms: N3_9  and  C5_10 
REMARK    6  A    between atoms: C8_18  and  N6_19 
ROOT
HETATM    1  C5  UNL     1       8.793 -18.528  21.939  1.00  0.00     0.682 A 
HETATM    2  N4  UNL     1       8.994 -19.272  20.830  1.00  0.00    -0.185 N 
ATOM      3  H4  UNL     1       9.287 -18.896  19.929  1.00  0.00     0.184 HD
HETATM    4  C6  UNL     1       8.756 -20.571  21.068  1.00  0.00     0.133 A 
HETATM    5  C7  UNL     1       8.795 -21.743  20.342  1.00  0.00     0.147 A 
HETATM    6  S1  UNL     1       9.230 -21.672  18.763  1.00  0.00    -0.057 SA
HETATM    7  N5  UNL     1       8.490 -22.939  20.881  1.00  0.00    -0.179 N 
ATOM      8  H5  UNL     1       8.528 -23.788  20.317  1.00  0.00     0.185 HD
HETATM    9  C8  UNL     1       8.129 -22.994  22.190  1.00  0.00     0.680 A 
HETATM   10  N7  UNL     1       8.085 -21.859  22.916  1.00  0.00    -0.170 N 
HETATM   11  C9  UNL     1       7.705 -21.879  24.312  1.00  0.00     0.177 C 
HETATM   12  C10 UNL     1       8.390 -20.640  22.389  1.00  0.00     0.169 A 
HETATM   13  N8  UNL     1       8.420 -19.395  22.895  1.00  0.00    -0.173 N 
ATOM     14  H8  UNL     1       8.195 -19.148  23.857  1.00  0.00     0.186 HD
ENDROOT
BRANCH   1  15
HETATM   15  N3  UNL     1       8.935 -17.134  22.109  1.00  0.00    -0.214 N 
HETATM   16  C4  UNL     1       9.036 -16.288  20.942  1.00  0.00     0.161 C 
HETATM   17  C3  UNL     1       8.167 -15.040  21.213  1.00  0.00     0.147 C 
HETATM   18  N2  UNL     1       8.649 -14.379  22.393  1.00  0.00    -0.344 N 
HETATM   19  C12 UNL     1       9.560 -15.169  23.268  1.00  0.00     0.147 C 
HETATM   20  C11 UNL     1       8.977 -16.571  23.423  1.00  0.00     0.161 C 
BRANCH  18  21
HETATM   21  C2  UNL     1       8.380 -13.086  22.842  1.00  0.00     0.221 C 
BRANCH  21  22
HETATM   22  N1  UNL     1       9.152 -11.940  22.609  1.00  0.00    -0.289 N 
HETATM   23  C1  UNL     1       9.194 -10.801  23.455  1.00  0.00     0.159 C 
BRANCH  22  24
HETATM   24  C13 UNL     1      10.002 -11.877  21.394  1.00  0.00     0.322 C 
HETATM   25  C14 UNL     1      10.658 -10.501  21.434  1.00  0.00     0.117 C 
HETATM   26  F1  UNL     1       9.249 -12.021  20.260  1.00  0.00    -0.183 F 
HETATM   27  F2  UNL     1      10.950 -12.865  21.456  1.00  0.00    -0.183 F 
ENDBRANCH  22  24
ENDBRANCH  21  22
BRANCH  21  28
HETATM   28  O1  UNL     1       7.289 -12.929  23.558  1.00  0.00    -0.332 OA
ATOM     29  H1  UNL     1       6.466 -13.148  23.137  1.00  0.00     0.220 HD
ENDBRANCH  21  28
ENDBRANCH  18  21
ENDBRANCH   1  15
BRANCH   9  30
HETATM   30  N6  UNL     1       7.833 -24.132  22.722  1.00  0.00    -0.234 N 
ATOM     31  H62 UNL     1       8.093 -25.006  22.265  1.00  0.00     0.174 HD
ATOM     32  H61 UNL     1       7.333 -24.157  23.611  1.00  0.00     0.174 HD
ENDBRANCH   9  30
TORSDOF 6
ENDMDL
MODEL 3
REMARK VINA RESULT: -6.768834151      1.042      1.446
REMARK  6 active torsions:
REMARK  status: ('A' for Active; 'I' for Inactive)
REMARK    1  A    between atoms: N1_2  and  C2_3 
REMARK    2  A    between atoms: N1_2  and  C13_29 
REMARK    3  A    between atoms: C2_3  and  O1_4 
REMARK    4  A    between atoms: C2_3  and  N2_6 
REMARK    5  A    between atoms: N3_9  and  C5_10 
REMARK    6  A    between atoms: C8_18  and  N6_19 
ROOT
HETATM    1  C5  UNL     1       8.454 -18.903  22.307  1.00  0.00     0.682 A 
HETATM    2  N4  UNL     1       8.086 -19.946  23.083  1.00  0.00    -0.185 N 
ATOM      3  H4  UNL     1       7.798 -19.865  24.058  1.00  0.00     0.184 HD
HETATM    4  C6  UNL     1       8.150 -21.101  22.404  1.00  0.00     0.133 A 
HETATM    5  C7  UNL     1       7.902 -22.432  22.672  1.00  0.00     0.147 A 
HETATM    6  S1  UNL     1       7.393 -22.847  24.173  1.00  0.00    -0.057 SA
HETATM    7  N5  UNL     1       8.065 -23.398  21.748  1.00  0.00    -0.179 N 
ATOM      8  H5  UNL     1       7.873 -24.373  21.977  1.00  0.00     0.185 HD
HETATM    9  C8  UNL     1       8.488 -23.050  20.504  1.00  0.00     0.680 A 
HETATM   10  N7  UNL     1       8.735 -21.754  20.223  1.00  0.00    -0.170 N 
HETATM   11  C9  UNL     1       9.187 -21.348  18.911  1.00  0.00     0.177 C 
HETATM   12  C10 UNL     1       8.577 -20.763  21.145  1.00  0.00     0.169 A 
HETATM   13  N8  UNL     1       8.754 -19.431  21.109  1.00  0.00    -0.173 N 
ATOM     14  H8  UNL     1       9.067 -18.903  20.295  1.00  0.00     0.186 HD
ENDROOT
BRANCH   1  15
HETATM   15  N3  UNL     1       8.522 -17.532  22.637  1.00  0.00    -0.214 N 
HETATM   16  C4  UNL     1       9.684 -17.033  23.336  1.00  0.00     0.161 C 
HETATM   17  C3  UNL     1      10.056 -15.682  22.686  1.00  0.00     0.147 C 
HETATM   18  N2  UNL     1       8.940 -14.784  22.798  1.00  0.00    -0.344 N 
HETATM   19  C12 UNL     1       7.627 -15.401  23.137  1.00  0.00     0.147 C 
HETATM   20  C11 UNL     1       7.453 -16.653  22.281  1.00  0.00     0.161 C 
BRANCH  18  21
HETATM   21  C2  UNL     1       8.912 -13.400  22.631  1.00  0.00     0.221 C 
BRANCH  21  22
HETATM   22  N1  UNL     1       9.909 -12.606  22.047  1.00  0.00    -0.289 N 
HETATM   23  C1  UNL     1      11.223 -13.047  21.740  1.00  0.00     0.159 C 
BRANCH  22  24
HETATM   24  C13 UNL     1       9.603 -11.194  21.711  1.00  0.00     0.322 C 
HETATM   25  C14 UNL     1      10.959 -10.529  21.498  1.00  0.00     0.117 C 
HETATM   26  F1  UNL     1       8.919 -10.584  22.728  1.00  0.00    -0.183 F 
HETATM   27  F2  UNL     1       8.862 -11.154  20.560  1.00  0.00    -0.183 F 
ENDBRANCH  22  24
ENDBRANCH  21  22
BRANCH  21  28
HETATM   28  O1  UNL     1       7.840 -12.778  23.068  1.00  0.00    -0.332 OA
ATOM     29  H1  UNL     1       7.011 -13.025  22.673  1.00  0.00     0.220 HD
ENDBRANCH  21  28
ENDBRANCH  18  21
ENDBRANCH   1  15
BRANCH   9  30
HETATM   30  N6  UNL     1       8.649 -23.964  19.607  1.00  0.00    -0.234 N 
ATOM     31  H62 UNL     1       8.283 -24.905  19.748  1.00  0.00     0.174 HD
ATOM     32  H61 UNL     1       9.148 -23.742  18.746  1.00  0.00     0.174 HD
ENDBRANCH   9  30
TORSDOF 6
ENDMDL
MODEL 4
REMARK VINA RESULT: -6.619666463      1.703      2.539
REMARK  6 active torsions:
REMARK  status: ('A' for Active; 'I' for Inactive)
REMARK    1  A    between atoms: N1_2  and  C2_3 
REMARK    2  A    between atoms: N1_2  and  C13_29 
REMARK    3  A    between atoms: C2_3  and  O1_4 
REMARK    4  A    between atoms: C2_3  and  N2_6 
REMARK    5  A    between atoms: N3_9  and  C5_10 
REMARK    6  A    between atoms: C8_18  and  N6_19 
ROOT
HETATM    1  C5  UNL     1       8.608 -18.290  22.159  1.00  0.00     0.682 A 
HETATM    2  N4  UNL     1       8.861 -18.933  20.998  1.00  0.00    -0.185 N 
ATOM      3  H4  UNL     1       9.137 -18.471  20.132  1.00  0.00     0.184 HD
HETATM    4  C6  UNL     1       8.703 -20.258  21.134  1.00  0.00     0.133 A 
HETATM    5  C7  UNL     1       8.819 -21.366  20.320  1.00  0.00     0.147 A 
HETATM    6  S1  UNL     1       9.260 -21.148  18.757  1.00  0.00    -0.057 SA
HETATM    7  N5  UNL     1       8.585 -22.616  20.763  1.00  0.00    -0.179 N 
ATOM      8  H5  UNL     1       8.680 -23.416  20.136  1.00  0.00     0.185 HD
HETATM    9  C8  UNL     1       8.219 -22.794  22.059  1.00  0.00     0.680 A 
HETATM   10  N7  UNL     1       8.100 -21.723  22.870  1.00  0.00    -0.170 N 
HETATM   11  C9  UNL     1       7.713 -21.874  24.256  1.00  0.00     0.177 C 
HETATM   12  C10 UNL     1       8.333 -20.451  22.441  1.00  0.00     0.169 A 
HETATM   13  N8  UNL     1       8.283 -19.249  23.041  1.00  0.00    -0.173 N 
ATOM     14  H8  UNL     1       8.036 -19.091  24.017  1.00  0.00     0.186 HD
ENDROOT
BRANCH   1  15
HETATM   15  N3  UNL     1       8.662 -16.907  22.436  1.00  0.00    -0.214 N 
HETATM   16  C4  UNL     1       9.587 -16.424  23.435  1.00  0.00     0.161 C 
HETATM   17  C3  UNL     1      10.225 -15.134  22.874  1.00  0.00     0.147 C 
HETATM   18  N2  UNL     1       9.189 -14.177  22.602  1.00  0.00    -0.344 N 
HETATM   19  C12 UNL     1       7.797 -14.708  22.548  1.00  0.00     0.147 C 
HETATM   20  C11 UNL     1       7.810 -15.999  21.734  1.00  0.00     0.161 C 
BRANCH  18  21
HETATM   21  C2  UNL     1       9.303 -12.806  22.376  1.00  0.00     0.221 C 
BRANCH  21  22
HETATM   22  N1  UNL     1      10.240 -12.167  21.551  1.00  0.00    -0.289 N 
HETATM   23  C1  UNL     1      11.612 -12.519  21.456  1.00  0.00     0.159 C 
BRANCH  22  24
HETATM   24  C13 UNL     1       9.798 -11.035  20.700  1.00  0.00     0.322 C 
HETATM   25  C14 UNL     1      11.043 -10.603  19.932  1.00  0.00     0.117 C 
HETATM   26  F1  UNL     1       9.318 -10.005  21.462  1.00  0.00    -0.183 F 
HETATM   27  F2  UNL     1       8.828 -11.472  19.837  1.00  0.00    -0.183 F 
ENDBRANCH  22  24
ENDBRANCH  21  22
BRANCH  21  28
HETATM   28  O1  UNL     1       8.443 -12.035  23.002  1.00  0.00    -0.332 OA
ATOM     29  H1  UNL     1       7.643 -12.446  23.310  1.00  0.00     0.220 HD
ENDBRANCH  21  28
ENDBRANCH  18  21
ENDBRANCH   1  15
BRANCH   9  30
HETATM   30  N6  UNL     1       7.991 -23.985  22.500  1.00  0.00    -0.234 N 
ATOM     31  H62 UNL     1       8.594 -24.406  23.206  1.00  0.00     0.174 HD
ATOM     32  H61 UNL     1       7.196 -24.513  22.137  1.00  0.00     0.174 HD
ENDBRANCH   9  30
TORSDOF 6
ENDMDL
MODEL 5
REMARK VINA RESULT: -6.378350982      1.312      1.733
REMARK  6 active torsions:
REMARK  status: ('A' for Active; 'I' for Inactive)
REMARK    1  A    between atoms: N1_2  and  C2_3 
REMARK    2  A    between atoms: N1_2  and  C13_29 
REMARK    3  A    between atoms: C2_3  and  O1_4 
REMARK    4  A    between atoms: C2_3  and  N2_6 
REMARK    5  A    between atoms: N3_9  and  C5_10 
REMARK    6  A    between atoms: C8_18  and  N6_19 
ROOT
HETATM    1  C5  UNL     1       8.638 -18.702  21.989  1.00  0.00     0.682 A 
HETATM    2  N4  UNL     1       8.255 -19.634  22.889  1.00  0.00    -0.185 N 
ATOM      3  H4  UNL     1       8.005 -19.432  23.857  1.00  0.00     0.184 HD
HETATM    4  C6  UNL     1       8.248 -20.860  22.344  1.00  0.00     0.133 A 
HETATM    5  C7  UNL     1       7.956 -22.140  22.768  1.00  0.00     0.147 A 
HETATM    6  S1  UNL     1       7.482 -22.361  24.322  1.00  0.00    -0.057 SA
HETATM    7  N5  UNL     1       8.046 -23.210  21.955  1.00  0.00    -0.179 N 
ATOM      8  H5  UNL     1       7.823 -24.144  22.300  1.00  0.00     0.185 HD
HETATM    9  C8  UNL     1       8.440 -23.023  20.669  1.00  0.00     0.680 A 
HETATM   10  N7  UNL     1       8.730 -21.779  20.235  1.00  0.00    -0.170 N 
HETATM   11  C9  UNL     1       9.152 -21.543  18.872  1.00  0.00     0.177 C 
HETATM   12  C10 UNL     1       8.645 -20.685  21.043  1.00  0.00     0.169 A 
HETATM   13  N8  UNL     1       8.873 -19.375  20.850  1.00  0.00    -0.173 N 
ATOM     14  H8  UNL     1       9.180 -18.955  19.973  1.00  0.00     0.186 HD
ENDROOT
BRANCH   1  15
HETATM   15  N3  UNL     1       8.773 -17.308  22.160  1.00  0.00    -0.214 N 
HETATM   16  C4  UNL     1       9.134 -16.789  23.459  1.00  0.00     0.161 C 
HETATM   17  C3  UNL     1      10.172 -15.669  23.225  1.00  0.00     0.147 C 
HETATM   18  N2  UNL     1       9.590 -14.656  22.389  1.00  0.00    -0.344 N 
HETATM   19  C12 UNL     1       8.350 -15.036  21.656  1.00  0.00     0.147 C 
HETATM   20  C11 UNL     1       8.557 -16.425  21.056  1.00  0.00     0.161 C 
BRANCH  18  21
HETATM   21  C2  UNL     1      10.029 -13.351  22.163  1.00  0.00     0.221 C 
BRANCH  21  22
HETATM   22  N1  UNL     1       9.346 -12.170  22.487  1.00  0.00    -0.289 N 
HETATM   23  C1  UNL     1       8.218 -12.092  23.345  1.00  0.00     0.159 C 
BRANCH  22  24
HETATM   24  C13 UNL     1       9.811 -10.886  21.906  1.00  0.00     0.322 C 
HETATM   25  C14 UNL     1       9.415 -10.946  20.434  1.00  0.00     0.117 C 
HETATM   26  F1  UNL     1      11.166 -10.749  22.037  1.00  0.00    -0.183 F 
HETATM   27  F2  UNL     1       9.172  -9.850  22.533  1.00  0.00    -0.183 F 
ENDBRANCH  22  24
ENDBRANCH  21  22
BRANCH  21  28
HETATM   28  O1  UNL     1      11.203 -13.218  21.588  1.00  0.00    -0.332 OA
ATOM     29  H1  UNL     1      11.792 -13.962  21.641  1.00  0.00     0.220 HD
ENDBRANCH  21  28
ENDBRANCH  18  21
ENDBRANCH   1  15
BRANCH   9  30
HETATM   30  N6  UNL     1       8.532 -24.038  19.876  1.00  0.00    -0.234 N 
ATOM     31  H62 UNL     1       9.332 -24.669  19.926  1.00  0.00     0.174 HD
ATOM     32  H61 UNL     1       7.796 -24.210  19.192  1.00  0.00     0.174 HD
ENDBRANCH   9  30
TORSDOF 6
ENDMDL
