MODEL 1
REMARK VINA RESULT: -7.363844552      0.000      0.000
REMARK  6 active torsions:
REMARK  status: ('A' for Active; 'I' for Inactive)
REMARK    1  A    between atoms: C13_13  and  C14_14 
REMARK    2  A    between atoms: C14_14  and  C15_15 
REMARK    3  A    between atoms: C15_15  and  O2_17 
REMARK    4  A    between atoms: C17_19  and  C19_21 
REMARK    5  A    between atoms: C19_21  and  O4_23 
REMARK    6  A    between atoms: C22_27  and  O6_28 
ROOT
HETATM    1  C1  UNL     1       2.799  -3.131  27.036  1.00  0.00     0.046 C 
HETATM    2  C2  UNL     1       4.013  -3.051  26.491  1.00  0.00     0.038 C 
HETATM    3  C3  UNL     1       5.297  -2.952  27.291  1.00  0.00     0.074 C 
HETATM    4  C4  UNL     1       6.206  -2.537  26.184  1.00  0.00     0.064 C 
HETATM    5  C5  UNL     1       5.694  -3.494  25.118  1.00  0.00     0.136 C 
HETATM    6  C6  UNL     1       6.417  -3.328  23.853  1.00  0.00     0.034 C 
HETATM    7  C7  UNL     1       7.827  -2.737  24.049  1.00  0.00     0.016 C 
HETATM    8  C8  UNL     1       8.417  -3.313  25.348  1.00  0.00     0.006 C 
HETATM    9  C9  UNL     1       8.211  -4.784  25.388  1.00  0.00     0.020 C 
HETATM   10  C10 UNL     1       9.925  -2.993  25.441  1.00  0.00    -0.012 C 
HETATM   11  C11 UNL     1      10.259  -1.654  24.931  1.00  0.00     0.021 C 
HETATM   12  C12 UNL     1      10.551  -3.979  24.438  1.00  0.00     0.021 C 
HETATM   13  C13 UNL     1      10.366  -3.387  26.802  1.00  0.00    -0.040 C 
HETATM   14  C17 UNL     1       9.618  -2.826  27.981  1.00  0.00     0.132 C 
HETATM   15  C18 UNL     1       9.837  -3.888  29.121  1.00  0.00     0.039 C 
HETATM   16  C21 UNL     1       8.155  -2.803  27.722  1.00  0.00     0.184 C 
HETATM   17  O5  UNL     1       7.449  -3.034  28.706  1.00  0.00    -0.293 OA
HETATM   18  C22 UNL     1       7.659  -2.527  26.401  1.00  0.00     0.134 C 
HETATM   19  O7  UNL     1       4.321  -3.044  25.120  1.00  0.00    -0.350 OA
ENDROOT
BRANCH  13  20
HETATM   20  C14 UNL     1      11.751  -3.798  27.053  1.00  0.00     0.087 C 
BRANCH  20  21
HETATM   21  C15 UNL     1      12.870  -2.912  27.132  1.00  0.00     0.282 C 
HETATM   22  O1  UNL     1      13.427  -2.338  26.199  1.00  0.00    -0.260 OA
BRANCH  21  23
HETATM   23  O2  UNL     1      13.473  -2.604  28.379  1.00  0.00    -0.323 OA
HETATM   24  C16 UNL     1      13.566  -3.529  29.412  1.00  0.00     0.213 C 
ENDBRANCH  21  23
ENDBRANCH  20  21
ENDBRANCH  13  20
BRANCH  14  25
HETATM   25  C19 UNL     1      10.054  -1.600  28.592  1.00  0.00     0.278 C 
HETATM   26  O3  UNL     1      10.564  -1.630  29.731  1.00  0.00    -0.264 OA
BRANCH  25  27
HETATM   27  O4  UNL     1       9.979  -0.330  28.054  1.00  0.00    -0.325 OA
HETATM   28  C20 UNL     1      11.099   0.465  27.736  1.00  0.00     0.213 C 
ENDBRANCH  25  27
ENDBRANCH  14  25
BRANCH  18  29
HETATM   29  O6  UNL     1       8.048  -1.180  26.112  1.00  0.00    -0.381 OA
ATOM     30  H6  UNL     1       8.194  -1.175  25.173  1.00  0.00     0.211 HD
ENDBRANCH  18  29
TORSDOF 6
ENDMDL
MODEL 2
REMARK VINA RESULT: -7.284368031      0.478      1.012
REMARK  6 active torsions:
REMARK  status: ('A' for Active; 'I' for Inactive)
REMARK    1  A    between atoms: C13_13  and  C14_14 
REMARK    2  A    between atoms: C14_14  and  C15_15 
REMARK    3  A    between atoms: C15_15  and  O2_17 
REMARK    4  A    between atoms: C17_19  and  C19_21 
REMARK    5  A    between atoms: C19_21  and  O4_23 
REMARK    6  A    between atoms: C22_27  and  O6_28 
ROOT
HETATM    1  C1  UNL     1       2.781  -3.143  26.931  1.00  0.00     0.046 C 
HETATM    2  C2  UNL     1       4.006  -3.068  26.410  1.00  0.00     0.038 C 
HETATM    3  C3  UNL     1       5.273  -2.949  27.235  1.00  0.00     0.074 C 
HETATM    4  C4  UNL     1       6.203  -2.550  26.141  1.00  0.00     0.064 C 
HETATM    5  C5  UNL     1       5.718  -3.528  25.081  1.00  0.00     0.136 C 
HETATM    6  C6  UNL     1       6.466  -3.382  23.830  1.00  0.00     0.034 C 
HETATM    7  C7  UNL     1       7.869  -2.781  24.044  1.00  0.00     0.016 C 
HETATM    8  C8  UNL     1       8.434  -3.331  25.366  1.00  0.00     0.006 C 
HETATM    9  C9  UNL     1       8.233  -4.803  25.428  1.00  0.00     0.020 C 
HETATM   10  C10 UNL     1       9.939  -3.004  25.485  1.00  0.00    -0.012 C 
HETATM   11  C11 UNL     1      10.278  -1.673  24.958  1.00  0.00     0.021 C 
HETATM   12  C12 UNL     1      10.590  -4.004  24.513  1.00  0.00     0.021 C 
HETATM   13  C13 UNL     1      10.352  -3.372  26.862  1.00  0.00    -0.040 C 
HETATM   14  C17 UNL     1       9.577  -2.793  28.015  1.00  0.00     0.132 C 
HETATM   15  C18 UNL     1       9.776  -3.833  29.178  1.00  0.00     0.039 C 
HETATM   16  C21 UNL     1       8.120  -2.781  27.724  1.00  0.00     0.184 C 
HETATM   17  O5  UNL     1       7.394  -2.997  28.697  1.00  0.00    -0.293 OA
HETATM   18  C22 UNL     1       7.651  -2.530  26.388  1.00  0.00     0.134 C 
HETATM   19  O7  UNL     1       4.343  -3.083  25.046  1.00  0.00    -0.350 OA
ENDROOT
BRANCH  13  20
HETATM   20  C14 UNL     1      11.733  -3.772  27.149  1.00  0.00     0.087 C 
BRANCH  20  21
HETATM   21  C15 UNL     1      12.861  -2.894  27.147  1.00  0.00     0.282 C 
HETATM   22  O1  UNL     1      13.301  -2.253  28.097  1.00  0.00    -0.260 OA
BRANCH  21  23
HETATM   23  O2  UNL     1      13.616  -2.676  25.965  1.00  0.00    -0.323 OA
HETATM   24  C16 UNL     1      13.890  -1.403  25.480  1.00  0.00     0.213 C 
ENDBRANCH  21  23
ENDBRANCH  20  21
ENDBRANCH  13  20
BRANCH  14  25
HETATM   25  C19 UNL     1       9.995  -1.554  28.613  1.00  0.00     0.278 C 
HETATM   26  O3  UNL     1      10.533  -1.568  29.739  1.00  0.00    -0.264 OA
BRANCH  25  27
HETATM   27  O4  UNL     1       9.874  -0.288  28.074  1.00  0.00    -0.325 OA
HETATM   28  C20 UNL     1      10.964   0.544  27.748  1.00  0.00     0.213 C 
ENDBRANCH  25  27
ENDBRANCH  14  25
BRANCH  18  29
HETATM   29  O6  UNL     1       8.041  -1.186  26.084  1.00  0.00    -0.381 OA
ATOM     30  H6  UNL     1       8.625  -1.276  25.339  1.00  0.00     0.211 HD
ENDBRANCH  18  29
TORSDOF 6
ENDMDL
MODEL 3
REMARK VINA RESULT: -7.177667315      1.126      1.270
REMARK  6 active torsions:
REMARK  status: ('A' for Active; 'I' for Inactive)
REMARK    1  A    between atoms: C13_13  and  C14_14 
REMARK    2  A    between atoms: C14_14  and  C15_15 
REMARK    3  A    between atoms: C15_15  and  O2_17 
REMARK    4  A    between atoms: C17_19  and  C19_21 
REMARK    5  A    between atoms: C19_21  and  O4_23 
REMARK    6  A    between atoms: C22_27  and  O6_28 
ROOT
HETATM    1  C1  UNL     1       2.872  -3.042  26.681  1.00  0.00     0.046 C 
HETATM    2  C2  UNL     1       4.061  -3.089  26.079  1.00  0.00     0.038 C 
HETATM    3  C3  UNL     1       5.349  -2.590  26.705  1.00  0.00     0.074 C 
HETATM    4  C4  UNL     1       6.189  -2.569  25.473  1.00  0.00     0.064 C 
HETATM    5  C5  UNL     1       5.743  -3.900  24.888  1.00  0.00     0.136 C 
HETATM    6  C6  UNL     1       6.417  -4.184  23.618  1.00  0.00     0.034 C 
HETATM    7  C7  UNL     1       7.771  -3.459  23.490  1.00  0.00     0.016 C 
HETATM    8  C8  UNL     1       8.442  -3.439  24.874  1.00  0.00     0.006 C 
HETATM    9  C9  UNL     1       8.373  -4.791  25.489  1.00  0.00     0.020 C 
HETATM   10  C10 UNL     1       9.916  -2.996  24.751  1.00  0.00    -0.012 C 
HETATM   11  C11 UNL     1      10.114  -1.938  23.747  1.00  0.00     0.021 C 
HETATM   12  C12 UNL     1      10.606  -4.242  24.170  1.00  0.00     0.021 C 
HETATM   13  C13 UNL     1      10.424  -2.796  26.131  1.00  0.00    -0.040 C 
HETATM   14  C17 UNL     1       9.654  -1.880  27.045  1.00  0.00     0.132 C 
HETATM   15  C18 UNL     1       9.997  -2.396  28.491  1.00  0.00     0.039 C 
HETATM   16  C21 UNL     1       8.190  -2.070  26.881  1.00  0.00     0.184 C 
HETATM   17  O5  UNL     1       7.532  -1.954  27.917  1.00  0.00    -0.293 OA
HETATM   18  C22 UNL     1       7.640  -2.366  25.585  1.00  0.00     0.134 C 
HETATM   19  O7  UNL     1       4.335  -3.590  24.795  1.00  0.00    -0.350 OA
ENDROOT
BRANCH  13  20
HETATM   20  C14 UNL     1      11.846  -2.971  26.441  1.00  0.00     0.087 C 
BRANCH  20  21
HETATM   21  C15 UNL     1      12.877  -2.030  26.132  1.00  0.00     0.282 C 
HETATM   22  O1  UNL     1      13.340  -1.779  25.023  1.00  0.00    -0.260 OA
BRANCH  21  23
HETATM   23  O2  UNL     1      13.493  -1.259  27.152  1.00  0.00    -0.323 OA
HETATM   24  C16 UNL     1      13.634  -1.722  28.455  1.00  0.00     0.213 C 
ENDBRANCH  21  23
ENDBRANCH  20  21
ENDBRANCH  13  20
BRANCH  14  25
HETATM   25  C19 UNL     1       9.990  -0.483  27.112  1.00  0.00     0.278 C 
HETATM   26  O3  UNL     1      10.397  -0.002  28.189  1.00  0.00    -0.264 OA
BRANCH  25  27
HETATM   27  O4  UNL     1       9.919   0.439  26.086  1.00  0.00    -0.325 OA
HETATM   28  C20 UNL     1      11.014   1.192  25.617  1.00  0.00     0.213 C 
ENDBRANCH  25  27
ENDBRANCH  14  25
BRANCH  18  29
HETATM   29  O6  UNL     1       7.896  -1.211  24.780  1.00  0.00    -0.381 OA
ATOM     30  H6  UNL     1       8.838  -1.222  24.650  1.00  0.00     0.211 HD
ENDBRANCH  18  29
TORSDOF 6
ENDMDL
MODEL 4
REMARK VINA RESULT: -6.930984371      1.274      1.721
REMARK  6 active torsions:
REMARK  status: ('A' for Active; 'I' for Inactive)
REMARK    1  A    between atoms: C13_13  and  C14_14 
REMARK    2  A    between atoms: C14_14  and  C15_15 
REMARK    3  A    between atoms: C15_15  and  O2_17 
REMARK    4  A    between atoms: C17_19  and  C19_21 
REMARK    5  A    between atoms: C19_21  and  O4_23 
REMARK    6  A    between atoms: C22_27  and  O6_28 
ROOT
HETATM    1  C1  UNL     1       2.884  -3.057  26.740  1.00  0.00     0.046 C 
HETATM    2  C2  UNL     1       4.077  -3.099  26.144  1.00  0.00     0.038 C 
HETATM    3  C3  UNL     1       5.353  -2.564  26.763  1.00  0.00     0.074 C 
HETATM    4  C4  UNL     1       6.199  -2.560  25.535  1.00  0.00     0.064 C 
HETATM    5  C5  UNL     1       5.778  -3.913  24.982  1.00  0.00     0.136 C 
HETATM    6  C6  UNL     1       6.463  -4.218  23.723  1.00  0.00     0.034 C 
HETATM    7  C7  UNL     1       7.805  -3.473  23.582  1.00  0.00     0.016 C 
HETATM    8  C8  UNL     1       8.469  -3.406  24.969  1.00  0.00     0.006 C 
HETATM    9  C9  UNL     1       8.420  -4.743  25.617  1.00  0.00     0.020 C 
HETATM   10  C10 UNL     1       9.936  -2.941  24.840  1.00  0.00    -0.012 C 
HETATM   11  C11 UNL     1      10.121  -1.906  23.811  1.00  0.00     0.021 C 
HETATM   12  C12 UNL     1      10.650  -4.190  24.295  1.00  0.00     0.021 C 
HETATM   13  C13 UNL     1      10.433  -2.698  26.217  1.00  0.00    -0.040 C 
HETATM   14  C17 UNL     1       9.644  -1.771  27.104  1.00  0.00     0.132 C 
HETATM   15  C18 UNL     1       9.989  -2.245  28.564  1.00  0.00     0.039 C 
HETATM   16  C21 UNL     1       8.185  -1.991  26.938  1.00  0.00     0.184 C 
HETATM   17  O5  UNL     1       7.519  -1.859  27.968  1.00  0.00    -0.293 OA
HETATM   18  C22 UNL     1       7.646  -2.329  25.649  1.00  0.00     0.134 C 
HETATM   19  O7  UNL     1       4.365  -3.629  24.875  1.00  0.00    -0.350 OA
ENDROOT
BRANCH  13  20
HETATM   20  C14 UNL     1      11.857  -2.841  26.538  1.00  0.00     0.087 C 
BRANCH  20  21
HETATM   21  C15 UNL     1      12.820  -1.785  26.493  1.00  0.00     0.282 C 
HETATM   22  O1  UNL     1      13.583  -1.441  27.391  1.00  0.00    -0.260 OA
BRANCH  21  23
HETATM   23  O2  UNL     1      12.983  -0.994  25.327  1.00  0.00    -0.323 OA
HETATM   24  C16 UNL     1      13.691  -1.439  24.216  1.00  0.00     0.213 C 
ENDBRANCH  21  23
ENDBRANCH  20  21
ENDBRANCH  13  20
BRANCH  14  25
HETATM   25  C19 UNL     1       9.957  -0.368  27.136  1.00  0.00     0.278 C 
HETATM   26  O3  UNL     1      10.391   0.138  28.191  1.00  0.00    -0.264 OA
BRANCH  25  27
HETATM   27  O4  UNL     1       9.833   0.535  26.099  1.00  0.00    -0.325 OA
HETATM   28  C20 UNL     1       9.426   1.875  26.257  1.00  0.00     0.213 C 
ENDBRANCH  25  27
ENDBRANCH  14  25
BRANCH  18  29
HETATM   29  O6  UNL     1       7.886  -1.191  24.815  1.00  0.00    -0.381 OA
ATOM     30  H6  UNL     1       7.746  -0.447  25.390  1.00  0.00     0.211 HD
ENDBRANCH  18  29
TORSDOF 6
ENDMDL
MODEL 5
REMARK VINA RESULT: -6.724937837      2.622      5.660
REMARK  6 active torsions:
REMARK  status: ('A' for Active; 'I' for Inactive)
REMARK    1  A    between atoms: C13_13  and  C14_14 
REMARK    2  A    between atoms: C14_14  and  C15_15 
REMARK    3  A    between atoms: C15_15  and  O2_17 
REMARK    4  A    between atoms: C17_19  and  C19_21 
REMARK    5  A    between atoms: C19_21  and  O4_23 
REMARK    6  A    between atoms: C22_27  and  O6_28 
ROOT
HETATM    1  C1  UNL     1       4.939  -2.926  29.824  1.00  0.00     0.046 C 
HETATM    2  C2  UNL     1       5.930  -2.949  28.933  1.00  0.00     0.038 C 
HETATM    3  C3  UNL     1       5.731  -2.783  27.438  1.00  0.00     0.074 C 
HETATM    4  C4  UNL     1       7.073  -3.253  26.991  1.00  0.00     0.064 C 
HETATM    5  C5  UNL     1       7.911  -2.529  28.034  1.00  0.00     0.136 C 
HETATM    6  C6  UNL     1       9.341  -2.798  27.858  1.00  0.00     0.034 C 
HETATM    7  C7  UNL     1       9.697  -3.192  26.411  1.00  0.00     0.016 C 
HETATM    8  C8  UNL     1       8.818  -2.367  25.455  1.00  0.00     0.006 C 
HETATM    9  C9  UNL     1       8.828  -0.939  25.865  1.00  0.00     0.020 C 
HETATM   10  C10 UNL     1       9.332  -2.498  24.005  1.00  0.00    -0.012 C 
HETATM   11  C11 UNL     1       9.813  -3.852  23.687  1.00  0.00     0.021 C 
HETATM   12  C12 UNL     1      10.588  -1.609  24.000  1.00  0.00     0.021 C 
HETATM   13  C13 UNL     1       8.319  -1.859  23.129  1.00  0.00    -0.040 C 
HETATM   14  C17 UNL     1       6.890  -2.320  23.243  1.00  0.00     0.132 C 
HETATM   15  C18 UNL     1       6.044  -1.082  22.765  1.00  0.00     0.039 C 
HETATM   16  C21 UNL     1       6.515  -2.545  24.663  1.00  0.00     0.184 C 
HETATM   17  O5  UNL     1       5.351  -2.251  24.946  1.00  0.00    -0.293 OA
HETATM   18  C22 UNL     1       7.480  -3.068  25.591  1.00  0.00     0.134 C 
HETATM   19  O7  UNL     1       7.298  -3.125  29.199  1.00  0.00    -0.350 OA
ENDROOT
BRANCH  13  20
HETATM   20  C14 UNL     1       8.703  -1.263  21.846  1.00  0.00     0.087 C 
BRANCH  20  21
HETATM   21  C15 UNL     1       8.967   0.125  21.630  1.00  0.00     0.282 C 
HETATM   22  O1  UNL     1       9.370   0.649  20.595  1.00  0.00    -0.260 OA
BRANCH  21  23
HETATM   23  O2  UNL     1       8.772   1.076  22.665  1.00  0.00    -0.323 OA
HETATM   24  C16 UNL     1       7.984   2.209  22.499  1.00  0.00     0.213 C 
ENDBRANCH  21  23
ENDBRANCH  20  21
ENDBRANCH  13  20
BRANCH  14  25
HETATM   25  C19 UNL     1       6.408  -3.384  22.406  1.00  0.00     0.278 C 
HETATM   26  O3  UNL     1       6.772  -4.556  22.634  1.00  0.00    -0.264 OA
BRANCH  25  27
HETATM   27  O4  UNL     1       5.552  -3.272  21.328  1.00  0.00    -0.325 OA
HETATM   28  C20 UNL     1       5.700  -3.980  20.118  1.00  0.00     0.213 C 
ENDBRANCH  25  27
ENDBRANCH  14  25
BRANCH  18  29
HETATM   29  O6  UNL     1       7.782  -4.391  25.136  1.00  0.00    -0.381 OA
ATOM     30  H6  UNL     1       8.408  -4.258  24.433  1.00  0.00     0.211 HD
ENDBRANCH  18  29
TORSDOF 6
ENDMDL
