MODEL 1
REMARK VINA RESULT: -8.994727847      0.000      0.000
REMARK  5 active torsions:
REMARK  status: ('A' for Active; 'I' for Inactive)
REMARK    1  A    between atoms: C4_4  and  C5_5 
REMARK    2  A    between atoms: C5_5  and  C6_6 
REMARK    3  A    between atoms: C6_6  and  C7_7 
REMARK    4  A    between atoms: C9_10  and  C10_11 
REMARK    5  A    between atoms: C13_14  and  O1_15 
ROOT
HETATM    1  C7  UNL     1       5.537  -3.004  27.675  1.00  0.00     0.019 C 
HETATM    2  C8  UNL     1       5.631  -3.054  29.105  1.00  0.00     0.095 C 
HETATM    3  N1  UNL     1       5.711  -3.101  30.266  1.00  0.00    -0.192 NA
HETATM    4  C9  UNL     1       6.620  -2.918  26.928  1.00  0.00    -0.001 C 
ENDROOT
BRANCH   1   5
HETATM    5  C6  UNL     1       4.144  -3.054  27.098  1.00  0.00     0.053 C 
BRANCH   5   6
HETATM    6  C5  UNL     1       4.112  -2.592  25.701  1.00  0.00     0.032 C 
BRANCH   6   7
HETATM    7  C4  UNL     1       2.929  -3.009  24.945  1.00  0.00    -0.024 C 
HETATM    8  C2  UNL     1       2.633  -3.095  23.696  1.00  0.00    -0.091 C 
HETATM    9  C1  UNL     1       1.228  -3.597  23.341  1.00  0.00     0.042 C 
HETATM   10  C3  UNL     1       3.474  -2.794  22.536  1.00  0.00     0.042 C 
ENDBRANCH   6   7
ENDBRANCH   5   6
ENDBRANCH   1   5
BRANCH   4  11
HETATM   11  C10 UNL     1       7.971  -2.871  27.556  1.00  0.00     0.046 C 
HETATM   12  C11 UNL     1       8.953  -3.784  26.844  1.00  0.00     0.009 C 
HETATM   13  C12 UNL     1      10.045  -4.250  27.742  1.00  0.00     0.054 C 
HETATM   14  C22 UNL     1       9.394  -3.270  25.518  1.00  0.00     0.060 C 
HETATM   15  C13 UNL     1      10.855  -3.234  28.422  1.00  0.00     0.148 C 
HETATM   16  C14 UNL     1      10.100  -2.208  29.210  1.00  0.00     0.083 C 
HETATM   17  C16 UNL     1      11.657  -2.375  27.534  1.00  0.00     0.294 C 
HETATM   18  C15 UNL     1       9.757  -1.202  28.159  1.00  0.00     0.165 C 
HETATM   19  O2  UNL     1      10.907  -1.224  27.335  1.00  0.00    -0.311 OA
HETATM   20  C17 UNL     1       8.482  -1.459  27.427  1.00  0.00     0.162 C 
HETATM   21  O4  UNL     1       8.472  -1.105  26.114  1.00  0.00    -0.352 OA
HETATM   22  C18 UNL     1       9.159  -1.852  25.231  1.00  0.00     0.275 C 
HETATM   23  O5  UNL     1       8.455  -1.762  23.977  1.00  0.00    -0.289 OA
HETATM   24  C19 UNL     1       8.538  -2.975  23.322  1.00  0.00     0.265 C 
HETATM   25  O6  UNL     1       8.459  -3.165  22.101  1.00  0.00    -0.265 OA
HETATM   26  C20 UNL     1       8.740  -4.020  24.347  1.00  0.00     0.090 C 
HETATM   27  C21 UNL     1       9.644  -5.073  23.779  1.00  0.00     0.021 C 
HETATM   28  O3  UNL     1      12.787  -2.561  27.017  1.00  0.00    -0.262 OA
BRANCH  15  29
HETATM   29  O1  UNL     1      11.731  -3.875  29.300  1.00  0.00    -0.379 OA
ATOM     30  H1  UNL     1      12.213  -3.215  29.785  1.00  0.00     0.211 HD
ENDBRANCH  15  29
ENDBRANCH   4  11
TORSDOF 5
ENDMDL
MODEL 2
REMARK VINA RESULT: -8.978853489      2.638      3.769
REMARK  5 active torsions:
REMARK  status: ('A' for Active; 'I' for Inactive)
REMARK    1  A    between atoms: C4_4  and  C5_5 
REMARK    2  A    between atoms: C5_5  and  C6_6 
REMARK    3  A    between atoms: C6_6  and  C7_7 
REMARK    4  A    between atoms: C9_10  and  C10_11 
REMARK    5  A    between atoms: C13_14  and  O1_15 
ROOT
HETATM    1  C7  UNL     1       7.444  -2.728  25.417  1.00  0.00     0.019 C 
HETATM    2  C8  UNL     1       8.116  -3.712  24.620  1.00  0.00     0.095 C 
HETATM    3  N1  UNL     1       8.669  -4.507  23.973  1.00  0.00    -0.192 NA
HETATM    4  C9  UNL     1       7.933  -2.349  26.581  1.00  0.00    -0.001 C 
ENDROOT
BRANCH   1   5
HETATM    5  C6  UNL     1       6.164  -2.170  24.844  1.00  0.00     0.053 C 
BRANCH   5   6
HETATM    6  C5  UNL     1       5.168  -3.225  24.597  1.00  0.00     0.032 C 
BRANCH   6   7
HETATM    7  C4  UNL     1       3.830  -2.938  25.119  1.00  0.00    -0.024 C 
HETATM    8  C2  UNL     1       3.293  -2.930  26.287  1.00  0.00    -0.091 C 
HETATM    9  C1  UNL     1       1.808  -2.558  26.375  1.00  0.00     0.042 C 
HETATM   10  C3  UNL     1       3.919  -3.214  27.581  1.00  0.00     0.042 C 
ENDBRANCH   6   7
ENDBRANCH   5   6
ENDBRANCH   1   5
BRANCH   4  11
HETATM   11  C10 UNL     1       9.202  -2.937  27.096  1.00  0.00     0.046 C 
HETATM   12  C11 UNL     1      10.418  -2.190  26.578  1.00  0.00     0.009 C 
HETATM   13  C12 UNL     1      11.630  -3.052  26.523  1.00  0.00     0.054 C 
HETATM   14  C22 UNL     1      10.613  -0.855  27.207  1.00  0.00     0.060 C 
HETATM   15  C13 UNL     1      12.058  -3.714  27.760  1.00  0.00     0.148 C 
HETATM   16  C14 UNL     1      11.017  -4.531  28.464  1.00  0.00     0.083 C 
HETATM   17  C16 UNL     1      12.485  -2.809  28.840  1.00  0.00     0.294 C 
HETATM   18  C15 UNL     1      10.316  -3.497  29.284  1.00  0.00     0.165 C 
HETATM   19  O2  UNL     1      11.377  -2.639  29.658  1.00  0.00    -0.311 OA
HETATM   20  C17 UNL     1       9.188  -2.802  28.597  1.00  0.00     0.162 C 
HETATM   21  O4  UNL     1       9.016  -1.492  28.921  1.00  0.00    -0.352 OA
HETATM   22  C18 UNL     1       9.893  -0.585  28.454  1.00  0.00     0.275 C 
HETATM   23  O5  UNL     1       9.164   0.648  28.289  1.00  0.00    -0.289 OA
HETATM   24  C19 UNL     1       9.643   1.313  27.177  1.00  0.00     0.265 C 
HETATM   25  O6  UNL     1       9.598   2.531  26.966  1.00  0.00    -0.265 OA
HETATM   26  C20 UNL     1      10.226   0.300  26.271  1.00  0.00     0.090 C 
HETATM   27  C21 UNL     1      11.421   0.902  25.595  1.00  0.00     0.021 C 
HETATM   28  O3  UNL     1      13.593  -2.257  29.055  1.00  0.00    -0.262 OA
BRANCH  15  29
HETATM   29  O1  UNL     1      13.128  -4.563  27.467  1.00  0.00    -0.379 OA
ATOM     30  H1  UNL     1      12.856  -5.460  27.620  1.00  0.00     0.211 HD
ENDBRANCH  15  29
ENDBRANCH   4  11
TORSDOF 5
ENDMDL
MODEL 3
REMARK VINA RESULT: -8.973876904      1.910      2.688
REMARK  5 active torsions:
REMARK  status: ('A' for Active; 'I' for Inactive)
REMARK    1  A    between atoms: C4_4  and  C5_5 
REMARK    2  A    between atoms: C5_5  and  C6_6 
REMARK    3  A    between atoms: C6_6  and  C7_7 
REMARK    4  A    between atoms: C9_10  and  C10_11 
REMARK    5  A    between atoms: C13_14  and  O1_15 
ROOT
HETATM    1  C7  UNL     1       7.483  -2.365  27.190  1.00  0.00     0.019 C 
HETATM    2  C8  UNL     1       8.328  -2.507  28.339  1.00  0.00     0.095 C 
HETATM    3  N1  UNL     1       9.020  -2.628  29.269  1.00  0.00    -0.192 NA
HETATM    4  C9  UNL     1       7.958  -1.894  26.053  1.00  0.00    -0.001 C 
ENDROOT
BRANCH   1   5
HETATM    5  C6  UNL     1       6.043  -2.780  27.368  1.00  0.00     0.053 C 
BRANCH   5   6
HETATM    6  C5  UNL     1       5.349  -2.917  26.078  1.00  0.00     0.032 C 
BRANCH   6   7
HETATM    7  C4  UNL     1       3.904  -2.679  26.133  1.00  0.00    -0.024 C 
HETATM    8  C2  UNL     1       2.956  -2.644  25.264  1.00  0.00    -0.091 C 
HETATM    9  C1  UNL     1       1.543  -2.347  25.780  1.00  0.00     0.042 C 
HETATM   10  C3  UNL     1       3.033  -2.874  23.820  1.00  0.00     0.042 C 
ENDBRANCH   6   7
ENDBRANCH   5   6
ENDBRANCH   1   5
BRANCH   4  11
HETATM   11  C10 UNL     1       9.390  -1.499  25.937  1.00  0.00     0.046 C 
HETATM   12  C11 UNL     1      10.245  -2.636  25.408  1.00  0.00     0.009 C 
HETATM   13  C12 UNL     1      11.662  -2.535  25.855  1.00  0.00     0.054 C 
HETATM   14  C22 UNL     1      10.053  -2.904  23.956  1.00  0.00     0.060 C 
HETATM   15  C13 UNL     1      12.391  -1.300  25.546  1.00  0.00     0.148 C 
HETATM   16  C14 UNL     1      11.741  -0.023  25.983  1.00  0.00     0.083 C 
HETATM   17  C16 UNL     1      12.598  -1.037  24.112  1.00  0.00     0.294 C 
HETATM   18  C15 UNL     1      10.819   0.260  24.841  1.00  0.00     0.165 C 
HETATM   19  O2  UNL     1      11.574  -0.182  23.729  1.00  0.00    -0.311 OA
HETATM   20  C17 UNL     1       9.469  -0.367  24.945  1.00  0.00     0.162 C 
HETATM   21  O4  UNL     1       8.912  -0.769  23.772  1.00  0.00    -0.352 OA
HETATM   22  C18 UNL     1       9.401  -1.863  23.159  1.00  0.00     0.275 C 
HETATM   23  O5  UNL     1       8.299  -2.468  22.452  1.00  0.00    -0.289 OA
HETATM   24  C19 UNL     1       8.433  -3.841  22.494  1.00  0.00     0.265 C 
HETATM   25  O6  UNL     1       7.976  -4.655  21.681  1.00  0.00    -0.265 OA
HETATM   26  C20 UNL     1       9.228  -4.174  23.695  1.00  0.00     0.090 C 
HETATM   27  C21 UNL     1      10.097  -5.354  23.377  1.00  0.00     0.021 C 
HETATM   28  O3  UNL     1      13.482  -1.453  23.322  1.00  0.00    -0.262 OA
BRANCH  15  29
HETATM   29  O1  UNL     1      13.648  -1.359  26.154  1.00  0.00    -0.379 OA
ATOM     30  H1  UNL     1      13.873  -0.492  26.471  1.00  0.00     0.211 HD
ENDBRANCH  15  29
ENDBRANCH   4  11
TORSDOF 5
ENDMDL
MODEL 4
REMARK VINA RESULT: -8.942931094      2.175      5.368
REMARK  5 active torsions:
REMARK  status: ('A' for Active; 'I' for Inactive)
REMARK    1  A    between atoms: C4_4  and  C5_5 
REMARK    2  A    between atoms: C5_5  and  C6_6 
REMARK    3  A    between atoms: C6_6  and  C7_7 
REMARK    4  A    between atoms: C9_10  and  C10_11 
REMARK    5  A    between atoms: C13_14  and  O1_15 
ROOT
HETATM    1  C7  UNL     1       5.187  -3.353  27.358  1.00  0.00     0.019 C 
HETATM    2  C8  UNL     1       4.318  -2.864  26.328  1.00  0.00     0.095 C 
HETATM    3  N1  UNL     1       3.615  -2.461  25.491  1.00  0.00    -0.192 NA
HETATM    4  C9  UNL     1       6.480  -3.496  27.142  1.00  0.00    -0.001 C 
ENDROOT
BRANCH   1   5
HETATM    5  C6  UNL     1       4.534  -3.686  28.677  1.00  0.00     0.053 C 
BRANCH   5   6
HETATM    6  C5  UNL     1       5.160  -2.965  29.796  1.00  0.00     0.032 C 
BRANCH   6   7
HETATM    7  C4  UNL     1       4.277  -2.020  30.486  1.00  0.00    -0.024 C 
HETATM    8  C2  UNL     1       4.172  -1.592  31.694  1.00  0.00    -0.091 C 
HETATM    9  C1  UNL     1       3.064  -0.571  31.982  1.00  0.00     0.042 C 
HETATM   10  C3  UNL     1       4.993  -1.933  32.858  1.00  0.00     0.042 C 
ENDBRANCH   6   7
ENDBRANCH   5   6
ENDBRANCH   1   5
BRANCH   4  11
HETATM   11  C10 UNL     1       7.068  -3.150  25.818  1.00  0.00     0.046 C 
HETATM   12  C11 UNL     1       7.849  -1.850  25.872  1.00  0.00     0.009 C 
HETATM   13  C12 UNL     1       7.900  -1.165  24.550  1.00  0.00     0.054 C 
HETATM   14  C22 UNL     1       9.152  -1.963  26.582  1.00  0.00     0.060 C 
HETATM   15  C13 UNL     1       8.439  -1.915  23.410  1.00  0.00     0.148 C 
HETATM   16  C14 UNL     1       7.815  -3.251  23.145  1.00  0.00     0.083 C 
HETATM   17  C16 UNL     1       9.861  -2.283  23.519  1.00  0.00     0.294 C 
HETATM   18  C15 UNL     1       8.585  -4.140  24.067  1.00  0.00     0.165 C 
HETATM   19  O2  UNL     1       9.884  -3.581  24.009  1.00  0.00    -0.311 OA
HETATM   20  C17 UNL     1       8.034  -4.248  25.450  1.00  0.00     0.162 C 
HETATM   21  O4  UNL     1       8.952  -4.378  26.444  1.00  0.00    -0.352 OA
HETATM   22  C18 UNL     1       9.690  -3.309  26.795  1.00  0.00     0.275 C 
HETATM   23  O5  UNL     1       9.986  -3.453  28.198  1.00  0.00    -0.289 OA
HETATM   24  C19 UNL     1       9.987  -2.206  28.792  1.00  0.00     0.265 C 
HETATM   25  O6  UNL     1      10.598  -1.874  29.816  1.00  0.00    -0.265 OA
HETATM   26  C20 UNL     1       9.119  -1.327  27.980  1.00  0.00     0.090 C 
HETATM   27  C21 UNL     1       9.705   0.053  27.985  1.00  0.00     0.021 C 
HETATM   28  O3  UNL     1      10.899  -1.628  23.250  1.00  0.00    -0.262 OA
BRANCH  15  29
HETATM   29  O1  UNL     1       8.286  -1.144  22.256  1.00  0.00    -0.379 OA
ATOM     30  H1  UNL     1       7.375  -0.881  22.185  1.00  0.00     0.211 HD
ENDBRANCH  15  29
ENDBRANCH   4  11
TORSDOF 5
ENDMDL
MODEL 5
REMARK VINA RESULT: -8.741482671      2.477      3.295
REMARK  5 active torsions:
REMARK  status: ('A' for Active; 'I' for Inactive)
REMARK    1  A    between atoms: C4_4  and  C5_5 
REMARK    2  A    between atoms: C5_5  and  C6_6 
REMARK    3  A    between atoms: C6_6  and  C7_7 
REMARK    4  A    between atoms: C9_10  and  C10_11 
REMARK    5  A    between atoms: C13_14  and  O1_15 
ROOT
HETATM    1  C7  UNL     1       6.812  -2.637  25.356  1.00  0.00     0.019 C 
HETATM    2  C8  UNL     1       6.527  -3.992  25.725  1.00  0.00     0.095 C 
HETATM    3  N1  UNL     1       6.301  -5.096  26.022  1.00  0.00    -0.192 NA
HETATM    4  C9  UNL     1       7.893  -2.027  25.800  1.00  0.00    -0.001 C 
ENDROOT
BRANCH   1   5
HETATM    5  C6  UNL     1       5.810  -1.971  24.445  1.00  0.00     0.053 C 
BRANCH   5   6
HETATM    6  C5  UNL     1       4.722  -2.886  24.065  1.00  0.00     0.032 C 
BRANCH   6   7
HETATM    7  C4  UNL     1       3.399  -2.506  24.568  1.00  0.00    -0.024 C 
HETATM    8  C2  UNL     1       2.794  -2.606  25.699  1.00  0.00    -0.091 C 
HETATM    9  C1  UNL     1       1.364  -2.057  25.780  1.00  0.00     0.042 C 
HETATM   10  C3  UNL     1       3.295  -3.166  26.956  1.00  0.00     0.042 C 
ENDBRANCH   6   7
ENDBRANCH   5   6
ENDBRANCH   1   5
BRANCH   4  11
HETATM   11  C10 UNL     1       8.847  -2.736  26.698  1.00  0.00     0.046 C 
HETATM   12  C11 UNL     1      10.285  -2.341  26.416  1.00  0.00     0.009 C 
HETATM   13  C12 UNL     1      11.251  -3.411  26.791  1.00  0.00     0.054 C 
HETATM   14  C22 UNL     1      10.634  -0.973  26.889  1.00  0.00     0.060 C 
HETATM   15  C13 UNL     1      11.229  -3.900  28.174  1.00  0.00     0.148 C 
HETATM   16  C14 UNL     1       9.899  -4.362  28.689  1.00  0.00     0.083 C 
HETATM   17  C16 UNL     1      11.598  -2.906  29.195  1.00  0.00     0.294 C 
HETATM   18  C15 UNL     1       9.287  -3.080  29.154  1.00  0.00     0.165 C 
HETATM   19  O2  UNL     1      10.404  -2.383  29.671  1.00  0.00    -0.311 OA
HETATM   20  C17 UNL     1       8.529  -2.325  28.113  1.00  0.00     0.162 C 
HETATM   21  O4  UNL     1       8.592  -0.969  28.203  1.00  0.00    -0.352 OA
HETATM   22  C18 UNL     1       9.734  -0.345  27.861  1.00  0.00     0.275 C 
HETATM   23  O5  UNL     1       9.361   0.950  27.349  1.00  0.00    -0.289 OA
HETATM   24  C19 UNL     1      10.214   1.294  26.320  1.00  0.00     0.265 C 
HETATM   25  O6  UNL     1      10.496   2.439  25.943  1.00  0.00    -0.265 OA
HETATM   26  C20 UNL     1      10.738   0.040  25.739  1.00  0.00     0.090 C 
HETATM   27  C21 UNL     1      12.159   0.270  25.319  1.00  0.00     0.021 C 
HETATM   28  O3  UNL     1      12.726  -2.542  29.614  1.00  0.00    -0.262 OA
BRANCH  15  29
HETATM   29  O1  UNL     1      12.115  -4.973  28.282  1.00  0.00    -0.379 OA
ATOM     30  H1  UNL     1      12.998  -4.631  28.369  1.00  0.00     0.211 HD
ENDBRANCH  15  29
ENDBRANCH   4  11
TORSDOF 5
ENDMDL
