MODEL 1
REMARK VINA RESULT: -5.704151461      0.000      0.000
REMARK  3 active torsions:
REMARK  status: ('A' for Active; 'I' for Inactive)
REMARK    1  A    between atoms: C2_2  and  C3_3 
REMARK    2  A    between atoms: C3_3  and  C4_4 
REMARK    3  A    between atoms: C4_4  and  C5_5 
ROOT
HETATM    1  C5  UNL     1      35.754   6.153  25.390  1.00  0.00     0.129 C 
HETATM    2  N1  UNL     1      36.548   7.043  26.270  1.00  0.00    -0.348 N 
ATOM      3  H1  UNL     1      37.566   7.094  26.235  1.00  0.00     0.163 HD
HETATM    4  C6  UNL     1      35.766   7.819  27.167  1.00  0.00     0.265 C 
HETATM    5  O1  UNL     1      36.252   8.167  28.278  1.00  0.00    -0.267 OA
HETATM    6  C7  UNL     1      34.394   8.208  26.777  1.00  0.00     0.122 C 
HETATM    7 CL1  UNL     1      33.406   9.160  27.858  1.00  0.00    -0.077 Cl
HETATM    8  C8  UNL     1      33.938   7.828  25.615  1.00  0.00     0.079 C 
HETATM    9 CL2  UNL     1      32.338   8.263  25.132  1.00  0.00    -0.084 Cl
HETATM   10  C9  UNL     1      34.792   7.054  24.699  1.00  0.00     0.172 C 
HETATM   11 CL3  UNL     1      33.813   6.307  23.453  1.00  0.00    -0.093 Cl
HETATM   12 CL4  UNL     1      35.823   8.337  23.903  1.00  0.00    -0.093 Cl
ENDROOT
BRANCH   1  13
HETATM   13  C4  UNL     1      35.203   5.091  26.264  1.00  0.00     0.029 C 
BRANCH  13  14
HETATM   14  C3  UNL     1      35.022   3.740  25.664  1.00  0.00     0.002 C 
BRANCH  14  15
HETATM   15  C2  UNL     1      34.600   2.707  26.700  1.00  0.00    -0.004 C 
HETATM   16  C1  UNL     1      35.369   1.434  26.581  1.00  0.00     0.005 C 
ENDBRANCH  14  15
ENDBRANCH  13  14
ENDBRANCH   1  13
TORSDOF 3
ENDMDL
MODEL 2
REMARK VINA RESULT: -4.732214560      4.614      6.037
REMARK  3 active torsions:
REMARK  status: ('A' for Active; 'I' for Inactive)
REMARK    1  A    between atoms: C2_2  and  C3_3 
REMARK    2  A    between atoms: C3_3  and  C4_4 
REMARK    3  A    between atoms: C4_4  and  C5_5 
ROOT
HETATM    1  C5  UNL     1      32.603   9.672  28.452  1.00  0.00     0.129 C 
HETATM    2  N1  UNL     1      31.210   9.339  28.069  1.00  0.00    -0.348 N 
ATOM      3  H1  UNL     1      30.655   8.632  28.553  1.00  0.00     0.163 HD
HETATM    4  C6  UNL     1      30.716  10.089  26.969  1.00  0.00     0.265 C 
HETATM    5  O1  UNL     1      29.844   9.584  26.209  1.00  0.00    -0.267 OA
HETATM    6  C7  UNL     1      31.233  11.454  26.737  1.00  0.00     0.122 C 
HETATM    7 CL1  UNL     1      30.648  12.403  25.392  1.00  0.00    -0.077 Cl
HETATM    8  C8  UNL     1      32.131  11.935  27.553  1.00  0.00     0.079 C 
HETATM    9 CL2  UNL     1      32.758  13.525  27.306  1.00  0.00    -0.084 Cl
HETATM   10  C9  UNL     1      32.593  11.139  28.702  1.00  0.00     0.172 C 
HETATM   11 CL3  UNL     1      34.080  11.810  29.340  1.00  0.00    -0.093 Cl
HETATM   12 CL4  UNL     1      31.282  11.404  29.949  1.00  0.00    -0.093 Cl
ENDROOT
BRANCH   1  13
HETATM   13  C4  UNL     1      33.465   9.161  27.361  1.00  0.00     0.029 C 
BRANCH  13  14
HETATM   14  C3  UNL     1      34.897   8.905  27.685  1.00  0.00     0.002 C 
BRANCH  14  15
HETATM   15  C2  UNL     1      35.509   7.850  26.774  1.00  0.00    -0.004 C 
HETATM   16  C1  UNL     1      36.147   8.444  25.564  1.00  0.00     0.005 C 
ENDBRANCH  14  15
ENDBRANCH  13  14
ENDBRANCH   1  13
TORSDOF 3
ENDMDL
MODEL 3
REMARK VINA RESULT: -4.443119343      5.989      7.139
REMARK  3 active torsions:
REMARK  status: ('A' for Active; 'I' for Inactive)
REMARK    1  A    between atoms: C2_2  and  C3_3 
REMARK    2  A    between atoms: C3_3  and  C4_4 
REMARK    3  A    between atoms: C4_4  and  C5_5 
ROOT
HETATM    1  C5  UNL     1      31.340  10.541  27.605  1.00  0.00     0.129 C 
HETATM    2  N1  UNL     1      31.113   9.285  28.358  1.00  0.00    -0.348 N 
ATOM      3  H1  UNL     1      30.959   8.385  27.902  1.00  0.00     0.163 HD
HETATM    4  C6  UNL     1      31.129   9.443  29.769  1.00  0.00     0.265 C 
HETATM    5  O1  UNL     1      30.444   8.668  30.493  1.00  0.00    -0.267 OA
HETATM    6  C7  UNL     1      31.954  10.515  30.365  1.00  0.00     0.122 C 
HETATM    7 CL1  UNL     1      31.993  10.739  32.098  1.00  0.00    -0.077 Cl
HETATM    8  C8  UNL     1      32.648  11.288  29.576  1.00  0.00     0.079 C 
HETATM    9 CL2  UNL     1      33.619  12.553  30.242  1.00  0.00    -0.084 Cl
HETATM   10  C9  UNL     1      32.633  11.070  28.120  1.00  0.00     0.172 C 
HETATM   11 CL3  UNL     1      33.258  12.482  27.294  1.00  0.00    -0.093 Cl
HETATM   12 CL4  UNL     1      33.834   9.711  27.888  1.00  0.00    -0.093 Cl
ENDROOT
BRANCH   1  13
HETATM   13  C4  UNL     1      30.126  11.367  27.803  1.00  0.00     0.029 C 
BRANCH  13  14
HETATM   14  C3  UNL     1      29.099  11.339  26.724  1.00  0.00     0.002 C 
BRANCH  14  15
HETATM   15  C2  UNL     1      27.917  10.449  27.084  1.00  0.00    -0.004 C 
HETATM   16  C1  UNL     1      27.881   9.197  26.274  1.00  0.00     0.005 C 
ENDBRANCH  14  15
ENDBRANCH  13  14
ENDBRANCH   1  13
TORSDOF 3
ENDMDL
MODEL 4
REMARK VINA RESULT: -4.430227266      5.974      7.479
REMARK  3 active torsions:
REMARK  status: ('A' for Active; 'I' for Inactive)
REMARK    1  A    between atoms: C2_2  and  C3_3 
REMARK    2  A    between atoms: C3_3  and  C4_4 
REMARK    3  A    between atoms: C4_4  and  C5_5 
ROOT
HETATM    1  C5  UNL     1      31.424  10.672  27.615  1.00  0.00     0.129 C 
HETATM    2  N1  UNL     1      31.135   9.391  28.304  1.00  0.00    -0.348 N 
ATOM      3  H1  UNL     1      30.927   8.527  27.803  1.00  0.00     0.163 HD
HETATM    4  C6  UNL     1      31.173   9.473  29.721  1.00  0.00     0.265 C 
HETATM    5  O1  UNL     1      30.454   8.700  30.411  1.00  0.00    -0.267 OA
HETATM    6  C7  UNL     1      32.061  10.466  30.362  1.00  0.00     0.122 C 
HETATM    7 CL1  UNL     1      32.130  10.595  32.103  1.00  0.00    -0.077 Cl
HETATM    8  C8  UNL     1      32.790  11.241  29.606  1.00  0.00     0.079 C 
HETATM    9 CL2  UNL     1      33.835  12.414  30.325  1.00  0.00    -0.084 Cl
HETATM   10  C9  UNL     1      32.749  11.101  28.141  1.00  0.00     0.172 C 
HETATM   11 CL3  UNL     1      33.443  12.519  27.382  1.00  0.00    -0.093 Cl
HETATM   12 CL4  UNL     1      33.871   9.693  27.822  1.00  0.00    -0.093 Cl
ENDROOT
BRANCH   1  13
HETATM   13  C4  UNL     1      30.260  11.551  27.871  1.00  0.00     0.029 C 
BRANCH  13  14
HETATM   14  C3  UNL     1      29.508  12.051  26.685  1.00  0.00     0.002 C 
BRANCH  14  15
HETATM   15  C2  UNL     1      30.432  12.370  25.517  1.00  0.00    -0.004 C 
HETATM   16  C1  UNL     1      30.633  13.836  25.334  1.00  0.00     0.005 C 
ENDBRANCH  14  15
ENDBRANCH  13  14
ENDBRANCH   1  13
TORSDOF 3
ENDMDL
MODEL 5
REMARK VINA RESULT: -4.394612407      4.512      5.892
REMARK  3 active torsions:
REMARK  status: ('A' for Active; 'I' for Inactive)
REMARK    1  A    between atoms: C2_2  and  C3_3 
REMARK    2  A    between atoms: C3_3  and  C4_4 
REMARK    3  A    between atoms: C4_4  and  C5_5 
ROOT
HETATM    1  C5  UNL     1      33.360  10.706  28.609  1.00  0.00     0.129 C 
HETATM    2  N1  UNL     1      32.412  10.043  29.536  1.00  0.00    -0.348 N 
ATOM      3  H1  UNL     1      32.627   9.869  30.518  1.00  0.00     0.163 HD
HETATM    4  C6  UNL     1      31.179   9.673  28.937  1.00  0.00     0.265 C 
HETATM    5  O1  UNL     1      30.543   8.678  29.381  1.00  0.00    -0.267 OA
HETATM    6  C7  UNL     1      30.660  10.467  27.803  1.00  0.00     0.122 C 
HETATM    7 CL1  UNL     1      29.147  10.037  27.043  1.00  0.00    -0.077 Cl
HETATM    8  C8  UNL     1      31.351  11.491  27.383  1.00  0.00     0.079 C 
HETATM    9 CL2  UNL     1      30.775  12.437  26.058  1.00  0.00    -0.084 Cl
HETATM   10  C9  UNL     1      32.609  11.864  28.053  1.00  0.00     0.172 C 
HETATM   11 CL3  UNL     1      33.533  12.950  27.035  1.00  0.00    -0.093 Cl
HETATM   12 CL4  UNL     1      32.042  12.812  29.510  1.00  0.00    -0.093 Cl
ENDROOT
BRANCH   1  13
HETATM   13  C4  UNL     1      33.816   9.659  27.665  1.00  0.00     0.029 C 
BRANCH  13  14
HETATM   14  C3  UNL     1      35.174   9.088  27.883  1.00  0.00     0.002 C 
BRANCH  14  15
HETATM   15  C2  UNL     1      35.514   8.014  26.858  1.00  0.00    -0.004 C 
HETATM   16  C1  UNL     1      36.129   8.581  25.623  1.00  0.00     0.005 C 
ENDBRANCH  14  15
ENDBRANCH  13  14
ENDBRANCH   1  13
TORSDOF 3
ENDMDL
