MODEL 1
REMARK VINA RESULT: -4.037570401      0.000      0.000
REMARK  3 active torsions:
REMARK  status: ('A' for Active; 'I' for Inactive)
REMARK    1  A    between atoms: C2_2  and  C3_3 
REMARK    2  A    between atoms: C3_3  and  C4_4 
REMARK    3  A    between atoms: C7_13  and  N2_14 
ROOT
HETATM    1  C3  UNL     1      31.486  10.436  28.094  1.00  0.00     0.052 C 
HETATM    2  C5  UNL     1      31.719  11.733  28.772  1.00  0.00     0.085 C 
HETATM    3  C6  UNL     1      33.145  12.069  28.364  1.00  0.00     0.188 C 
HETATM    4 CL3  UNL     1      34.164  12.433  29.767  1.00  0.00    -0.078 Cl
HETATM    5 CL4  UNL     1      33.204  13.428  27.233  1.00  0.00    -0.078 Cl
HETATM    6  N1  UNL     1      33.671  10.904  27.718  1.00  0.00    -0.344 N 
ATOM      7  H1  UNL     1      34.642  10.816  27.422  1.00  0.00     0.164 HD
HETATM    8  C7  UNL     1      32.795   9.987  27.551  1.00  0.00     0.086 C 
ENDROOT
BRANCH   1   9
HETATM    9  C2  UNL     1      30.821   9.386  28.930  1.00  0.00     0.015 C 
HETATM   10  C1  UNL     1      30.733   9.665  30.372  1.00  0.00     0.006 C 
ENDBRANCH   1   9
BRANCH   1  11
HETATM   11  C4  UNL     1      30.587  10.687  26.891  1.00  0.00     0.194 C 
HETATM   12 CL1  UNL     1      29.650  12.166  27.273  1.00  0.00    -0.107 Cl
HETATM   13 CL2  UNL     1      29.465   9.307  26.809  1.00  0.00    -0.107 Cl
ENDBRANCH   1  11
BRANCH   8  14
HETATM   14  N2  UNL     1      33.081   8.740  26.933  1.00  0.00    -0.384 N 
HETATM   15  C8  UNL     1      34.452   8.290  26.877  1.00  0.00     0.147 C 
ATOM     16  H2  UNL     1      32.331   8.173  26.537  1.00  0.00     0.160 HD
ENDBRANCH   8  14
TORSDOF 3
ENDMDL
MODEL 2
REMARK VINA RESULT: -3.710671622      1.596      3.429
REMARK  3 active torsions:
REMARK  status: ('A' for Active; 'I' for Inactive)
REMARK    1  A    between atoms: C2_2  and  C3_3 
REMARK    2  A    between atoms: C3_3  and  C4_4 
REMARK    3  A    between atoms: C7_13  and  N2_14 
ROOT
HETATM    1  C3  UNL     1      32.177  11.196  28.821  1.00  0.00     0.052 C 
HETATM    2  C5  UNL     1      30.997  11.833  28.190  1.00  0.00     0.085 C 
HETATM    3  C6  UNL     1      30.881  11.083  26.872  1.00  0.00     0.188 C 
HETATM    4 CL3  UNL     1      30.810  12.190  25.490  1.00  0.00    -0.078 Cl
HETATM    5 CL4  UNL     1      29.467  10.020  26.841  1.00  0.00    -0.078 Cl
HETATM    6  N1  UNL     1      32.064  10.287  26.749  1.00  0.00    -0.344 N 
ATOM      7  H1  UNL     1      32.295   9.748  25.914  1.00  0.00     0.164 HD
HETATM    8  C7  UNL     1      32.800  10.321  27.794  1.00  0.00     0.086 C 
ENDROOT
BRANCH   1   9
HETATM    9  C2  UNL     1      33.159  12.139  29.444  1.00  0.00     0.015 C 
HETATM   10  C1  UNL     1      33.517  13.322  28.645  1.00  0.00     0.006 C 
ENDBRANCH   1   9
BRANCH   1  11
HETATM   11  C4  UNL     1      31.681  10.273  29.926  1.00  0.00     0.194 C 
HETATM   12 CL1  UNL     1      29.987  10.759  30.254  1.00  0.00    -0.107 Cl
HETATM   13 CL2  UNL     1      32.667  10.637  31.362  1.00  0.00    -0.107 Cl
ENDBRANCH   1  11
BRANCH   8  14
HETATM   14  N2  UNL     1      34.025   9.610  27.907  1.00  0.00    -0.384 N 
HETATM   15  C8  UNL     1      34.231   8.443  27.080  1.00  0.00     0.147 C 
ATOM     16  H2  UNL     1      34.746   9.917  28.561  1.00  0.00     0.160 HD
ENDBRANCH   8  14
TORSDOF 3
ENDMDL
MODEL 3
REMARK VINA RESULT: -3.607639878      2.104      4.094
REMARK  3 active torsions:
REMARK  status: ('A' for Active; 'I' for Inactive)
REMARK    1  A    between atoms: C2_2  and  C3_3 
REMARK    2  A    between atoms: C3_3  and  C4_4 
REMARK    3  A    between atoms: C7_13  and  N2_14 
ROOT
HETATM    1  C3  UNL     1      30.921  11.850  27.296  1.00  0.00     0.052 C 
HETATM    2  C5  UNL     1      29.582  12.186  27.833  1.00  0.00     0.085 C 
HETATM    3  C6  UNL     1      29.082  10.842  28.340  1.00  0.00     0.188 C 
HETATM    4 CL3  UNL     1      27.481  10.447  27.689  1.00  0.00    -0.078 Cl
HETATM    5 CL4  UNL     1      29.023  10.783  30.107  1.00  0.00    -0.078 Cl
HETATM    6  N1  UNL     1      30.011   9.857  27.873  1.00  0.00    -0.344 N 
ATOM      7  H1  UNL     1      29.872   8.854  27.990  1.00  0.00     0.164 HD
HETATM    8  C7  UNL     1      31.032  10.367  27.296  1.00  0.00     0.086 C 
ENDROOT
BRANCH   1   9
HETATM    9  C2  UNL     1      31.245  12.448  25.961  1.00  0.00     0.015 C 
HETATM   10  C1  UNL     1      30.096  12.818  25.121  1.00  0.00     0.006 C 
ENDBRANCH   1   9
BRANCH   1  11
HETATM   11  C4  UNL     1      31.966  12.357  28.279  1.00  0.00     0.194 C 
HETATM   12 CL1  UNL     1      31.210  13.737  29.137  1.00  0.00    -0.107 Cl
HETATM   13 CL2  UNL     1      33.321  12.968  27.299  1.00  0.00    -0.107 Cl
ENDBRANCH   1  11
BRANCH   8  14
HETATM   14  N2  UNL     1      32.089   9.589  26.752  1.00  0.00    -0.384 N 
HETATM   15  C8  UNL     1      33.189   9.213  27.610  1.00  0.00     0.147 C 
ATOM     16  H2  UNL     1      32.071   9.301  25.773  1.00  0.00     0.160 HD
ENDBRANCH   8  14
TORSDOF 3
ENDMDL
MODEL 4
REMARK VINA RESULT: -3.605703134      1.800      2.334
REMARK  3 active torsions:
REMARK  status: ('A' for Active; 'I' for Inactive)
REMARK    1  A    between atoms: C2_2  and  C3_3 
REMARK    2  A    between atoms: C3_3  and  C4_4 
REMARK    3  A    between atoms: C7_13  and  N2_14 
ROOT
HETATM    1  C3  UNL     1      31.870  11.108  29.150  1.00  0.00     0.052 C 
HETATM    2  C5  UNL     1      31.773  12.566  28.904  1.00  0.00     0.085 C 
HETATM    3  C6  UNL     1      32.034  12.668  27.410  1.00  0.00     0.188 C 
HETATM    4 CL3  UNL     1      33.320  13.831  27.044  1.00  0.00    -0.078 Cl
HETATM    5 CL4  UNL     1      30.575  13.111  26.513  1.00  0.00    -0.078 Cl
HETATM    6  N1  UNL     1      32.466  11.372  26.981  1.00  0.00    -0.344 N 
ATOM      7  H1  UNL     1      32.799  11.174  26.037  1.00  0.00     0.164 HD
HETATM    8  C7  UNL     1      32.392  10.490  27.903  1.00  0.00     0.086 C 
ENDROOT
BRANCH   1   9
HETATM    9  C2  UNL     1      32.659  10.714  30.361  1.00  0.00     0.015 C 
HETATM   10  C1  UNL     1      34.002  11.302  30.478  1.00  0.00     0.006 C 
ENDBRANCH   1   9
BRANCH   1  11
HETATM   11  C4  UNL     1      30.460  10.566  29.339  1.00  0.00     0.194 C 
HETATM   12 CL1  UNL     1      29.433  11.981  29.730  1.00  0.00    -0.107 Cl
HETATM   13 CL2  UNL     1      30.522   9.496  30.761  1.00  0.00    -0.107 Cl
ENDBRANCH   1  11
BRANCH   8  14
HETATM   14  N2  UNL     1      32.766   9.132  27.715  1.00  0.00    -0.384 N 
HETATM   15  C8  UNL     1      34.134   8.830  27.362  1.00  0.00     0.147 C 
ATOM     16  H2  UNL     1      32.081   8.384  27.827  1.00  0.00     0.160 HD
ENDBRANCH   8  14
TORSDOF 3
ENDMDL
MODEL 5
REMARK VINA RESULT: -3.569210178      1.534      3.958
REMARK  3 active torsions:
REMARK  status: ('A' for Active; 'I' for Inactive)
REMARK    1  A    between atoms: C2_2  and  C3_3 
REMARK    2  A    between atoms: C3_3  and  C4_4 
REMARK    3  A    between atoms: C7_13  and  N2_14 
ROOT
HETATM    1  C3  UNL     1      32.723  11.423  28.538  1.00  0.00     0.052 C 
HETATM    2  C5  UNL     1      31.267  11.384  28.811  1.00  0.00     0.085 C 
HETATM    3  C6  UNL     1      30.928   9.919  28.586  1.00  0.00     0.188 C 
HETATM    4 CL3  UNL     1      29.580   9.720  27.453  1.00  0.00    -0.078 Cl
HETATM    5 CL4  UNL     1      30.542   9.092  30.102  1.00  0.00    -0.078 Cl
HETATM    6  N1  UNL     1      32.090   9.313  28.011  1.00  0.00    -0.344 N 
ATOM      7  H1  UNL     1      32.114   8.351  27.672  1.00  0.00     0.164 HD
HETATM    8  C7  UNL     1      33.095  10.103  27.965  1.00  0.00     0.086 C 
ENDROOT
BRANCH   1   9
HETATM    9  C2  UNL     1      33.186  12.567  27.689  1.00  0.00     0.015 C 
HETATM   10  C1  UNL     1      32.145  13.260  26.913  1.00  0.00     0.006 C 
ENDBRANCH   1   9
BRANCH   1  11
HETATM   11  C4  UNL     1      33.451  11.533  29.870  1.00  0.00     0.194 C 
HETATM   12 CL1  UNL     1      32.194  11.904  31.092  1.00  0.00    -0.107 Cl
HETATM   13 CL2  UNL     1      34.542  12.933  29.731  1.00  0.00    -0.107 Cl
ENDBRANCH   1  11
BRANCH   8  14
HETATM   14  N2  UNL     1      34.359   9.726  27.437  1.00  0.00    -0.384 N 
HETATM   15  C8  UNL     1      34.588   8.340  27.102  1.00  0.00     0.147 C 
ATOM     16  H2  UNL     1      35.092  10.422  27.297  1.00  0.00     0.160 HD
ENDBRANCH   8  14
TORSDOF 3
ENDMDL
