MODEL 1
REMARK VINA RESULT: -3.768332609      0.000      0.000
REMARK  3 active torsions:
REMARK  status: ('A' for Active; 'I' for Inactive)
REMARK    1  A    between atoms: C2_2  and  C3_3 
REMARK    2  A    between atoms: C3_3  and  C4_4 
REMARK    3  A    between atoms: C4_4  and  C5_5 
ROOT
HETATM    1  C4  UNL     1      33.011  10.610  28.026  1.00  0.00     0.183 C 
HETATM    2  N1  UNL     1      33.222  11.754  27.157  1.00  0.00    -0.058 N 
ATOM      3  H11 UNL     1      32.504  11.834  26.437  1.00  0.00     0.278 HD
ATOM      4  H12 UNL     1      34.026  11.633  26.541  1.00  0.00     0.278 HD
HETATM    5  C7  UNL     1      33.321  12.923  27.960  1.00  0.00     0.257 C 
HETATM    6  C8  UNL     1      32.574  12.604  29.236  1.00  0.00     0.149 C 
HETATM    7 CL2  UNL     1      33.309  13.553  30.543  1.00  0.00    -0.120 Cl
HETATM    8  C9  UNL     1      32.909  11.113  29.386  1.00  0.00     0.168 C 
HETATM    9 CL3  UNL     1      31.800  10.389  30.491  1.00  0.00    -0.097 Cl
HETATM   10 CL4  UNL     1      34.529  11.104  30.181  1.00  0.00    -0.097 Cl
ENDROOT
BRANCH   1  11
HETATM   11  C3  UNL     1      31.906   9.800  27.461  1.00  0.00     0.073 C 
BRANCH  11  12
HETATM   12  C2  UNL     1      30.871  10.524  26.726  1.00  0.00    -0.034 C 
HETATM   13  C1  UNL     1      29.693  10.824  27.255  1.00  0.00     0.007 C 
ENDBRANCH  11  12
ENDBRANCH   1  11
BRANCH   1  14
HETATM   14  C5  UNL     1      34.262   9.769  27.918  1.00  0.00     0.027 C 
HETATM   15  C6  UNL     1      34.243   8.618  27.258  1.00  0.00     0.083 C 
HETATM   16 CL1  UNL     1      35.664   7.612  27.106  1.00  0.00    -0.097 Cl
ENDBRANCH   1  14
TORSDOF 3
ENDMDL
MODEL 2
REMARK VINA RESULT: -3.667315264      2.846      3.729
REMARK  3 active torsions:
REMARK  status: ('A' for Active; 'I' for Inactive)
REMARK    1  A    between atoms: C2_2  and  C3_3 
REMARK    2  A    between atoms: C3_3  and  C4_4 
REMARK    3  A    between atoms: C4_4  and  C5_5 
ROOT
HETATM    1  C4  UNL     1      31.385  10.395  28.384  1.00  0.00     0.183 C 
HETATM    2  N1  UNL     1      30.677   9.194  27.976  1.00  0.00    -0.058 N 
ATOM      3  H11 UNL     1      30.368   8.634  28.770  1.00  0.00     0.278 HD
ATOM      4  H12 UNL     1      31.294   8.504  27.548  1.00  0.00     0.278 HD
HETATM    5  C7  UNL     1      29.603   9.568  27.122  1.00  0.00     0.257 C 
HETATM    6  C8  UNL     1      29.273  10.999  27.488  1.00  0.00     0.149 C 
HETATM    7 CL2  UNL     1      28.621  11.789  26.039  1.00  0.00    -0.120 Cl
HETATM    8  C9  UNL     1      30.675  11.530  27.818  1.00  0.00     0.168 C 
HETATM    9 CL3  UNL     1      30.531  12.992  28.722  1.00  0.00    -0.097 Cl
HETATM   10 CL4  UNL     1      31.370  11.967  26.212  1.00  0.00    -0.097 Cl
ENDROOT
BRANCH   1  11
HETATM   11  C3  UNL     1      31.603  10.324  29.848  1.00  0.00     0.073 C 
BRANCH  11  12
HETATM   12  C2  UNL     1      30.530   9.732  30.644  1.00  0.00    -0.034 C 
HETATM   13  C1  UNL     1      29.629  10.460  31.289  1.00  0.00     0.007 C 
ENDBRANCH  11  12
ENDBRANCH   1  11
BRANCH   1  14
HETATM   14  C5  UNL     1      32.750  10.312  27.740  1.00  0.00     0.027 C 
HETATM   15  C6  UNL     1      33.405   9.159  27.699  1.00  0.00     0.083 C 
HETATM   16 CL1  UNL     1      34.984   9.016  26.965  1.00  0.00    -0.097 Cl
ENDBRANCH   1  14
TORSDOF 3
ENDMDL
MODEL 3
REMARK VINA RESULT: -3.601949907      2.417      3.605
REMARK  3 active torsions:
REMARK  status: ('A' for Active; 'I' for Inactive)
REMARK    1  A    between atoms: C2_2  and  C3_3 
REMARK    2  A    between atoms: C3_3  and  C4_4 
REMARK    3  A    between atoms: C4_4  and  C5_5 
ROOT
HETATM    1  C4  UNL     1      32.314  11.010  27.982  1.00  0.00     0.183 C 
HETATM    2  N1  UNL     1      32.049  10.960  29.409  1.00  0.00    -0.058 N 
ATOM      3  H11 UNL     1      32.554  11.681  29.925  1.00  0.00     0.278 HD
ATOM      4  H12 UNL     1      32.469  10.145  29.856  1.00  0.00     0.278 HD
HETATM    5  C7  UNL     1      30.643  11.029  29.613  1.00  0.00     0.257 C 
HETATM    6  C8  UNL     1      30.089  11.727  28.391  1.00  0.00     0.149 C 
HETATM    7 CL2  UNL     1      28.435  11.135  28.136  1.00  0.00    -0.120 Cl
HETATM    8  C9  UNL     1      31.037  11.185  27.311  1.00  0.00     0.168 C 
HETATM    9 CL3  UNL     1      30.931  12.184  25.909  1.00  0.00    -0.097 Cl
HETATM   10 CL4  UNL     1      30.334   9.582  26.872  1.00  0.00    -0.097 Cl
ENDROOT
BRANCH   1  11
HETATM   11  C3  UNL     1      33.403  11.988  27.751  1.00  0.00     0.073 C 
BRANCH  11  12
HETATM   12  C2  UNL     1      33.450  13.143  28.646  1.00  0.00    -0.034 C 
HETATM   13  C1  UNL     1      33.229  14.382  28.231  1.00  0.00     0.007 C 
ENDBRANCH  11  12
ENDBRANCH   1  11
BRANCH   1  14
HETATM   14  C5  UNL     1      32.868   9.653  27.615  1.00  0.00     0.027 C 
HETATM   15  C6  UNL     1      34.178   9.444  27.595  1.00  0.00     0.083 C 
HETATM   16 CL1  UNL     1      34.864   7.892  27.176  1.00  0.00    -0.097 Cl
ENDBRANCH   1  14
TORSDOF 3
ENDMDL
MODEL 4
REMARK VINA RESULT: -3.545714306      2.062      3.984
REMARK  3 active torsions:
REMARK  status: ('A' for Active; 'I' for Inactive)
REMARK    1  A    between atoms: C2_2  and  C3_3 
REMARK    2  A    between atoms: C3_3  and  C4_4 
REMARK    3  A    between atoms: C4_4  and  C5_5 
ROOT
HETATM    1  C4  UNL     1      32.311  11.075  28.213  1.00  0.00     0.183 C 
HETATM    2  N1  UNL     1      32.071  11.139  26.783  1.00  0.00    -0.058 N 
ATOM      3  H11 UNL     1      32.631  10.463  26.262  1.00  0.00     0.278 HD
ATOM      4  H12 UNL     1      32.448  11.988  26.361  1.00  0.00     0.278 HD
HETATM    5  C7  UNL     1      30.677  10.986  26.548  1.00  0.00     0.257 C 
HETATM    6  C8  UNL     1      30.145  10.228  27.744  1.00  0.00     0.149 C 
HETATM    7 CL2  UNL     1      28.452  10.708  27.976  1.00  0.00    -0.120 Cl
HETATM    8  C9  UNL     1      31.035  10.805  28.854  1.00  0.00     0.168 C 
HETATM    9 CL3  UNL     1      30.966   9.772  30.233  1.00  0.00    -0.097 Cl
HETATM   10 CL4  UNL     1      30.223  12.351  29.311  1.00  0.00    -0.097 Cl
ENDROOT
BRANCH   1  11
HETATM   11  C3  UNL     1      33.455  10.163  28.447  1.00  0.00     0.073 C 
BRANCH  11  12
HETATM   12  C2  UNL     1      33.637   9.077  27.486  1.00  0.00    -0.034 C 
HETATM   13  C1  UNL     1      34.821   8.542  27.224  1.00  0.00     0.007 C 
ENDBRANCH  11  12
ENDBRANCH   1  11
BRANCH   1  14
HETATM   14  C5  UNL     1      32.770  12.457  28.620  1.00  0.00     0.027 C 
HETATM   15  C6  UNL     1      33.804  12.608  29.438  1.00  0.00     0.083 C 
HETATM   16 CL1  UNL     1      34.370  14.184  29.936  1.00  0.00    -0.097 Cl
ENDBRANCH   1  14
TORSDOF 3
ENDMDL
MODEL 5
REMARK VINA RESULT: -3.540687462      1.066      1.078
REMARK  3 active torsions:
REMARK  status: ('A' for Active; 'I' for Inactive)
REMARK    1  A    between atoms: C2_2  and  C3_3 
REMARK    2  A    between atoms: C3_3  and  C4_4 
REMARK    3  A    between atoms: C4_4  and  C5_5 
ROOT
HETATM    1  C4  UNL     1      32.367  10.815  28.160  1.00  0.00     0.183 C 
HETATM    2  N1  UNL     1      32.302  11.514  26.890  1.00  0.00    -0.058 N 
ATOM      3  H11 UNL     1      31.509  11.218  26.321  1.00  0.00     0.278 HD
ATOM      4  H12 UNL     1      33.046  11.233  26.251  1.00  0.00     0.278 HD
HETATM    5  C7  UNL     1      32.299  12.914  27.140  1.00  0.00     0.257 C 
HETATM    6  C8  UNL     1      31.750  13.075  28.541  1.00  0.00     0.149 C 
HETATM    7 CL2  UNL     1      32.460  14.547  29.233  1.00  0.00    -0.120 Cl
HETATM    8  C9  UNL     1      32.330  11.820  29.210  1.00  0.00     0.168 C 
HETATM    9 CL3  UNL     1      31.471  11.507  30.672  1.00  0.00    -0.097 Cl
HETATM   10 CL4  UNL     1      34.005  12.303  29.674  1.00  0.00    -0.097 Cl
ENDROOT
BRANCH   1  11
HETATM   11  C3  UNL     1      31.350   9.737  28.144  1.00  0.00     0.073 C 
BRANCH  11  12
HETATM   12  C2  UNL     1      30.173   9.957  27.306  1.00  0.00    -0.034 C 
HETATM   13  C1  UNL     1      29.061  10.515  27.764  1.00  0.00     0.007 C 
ENDBRANCH  11  12
ENDBRANCH   1  11
BRANCH   1  14
HETATM   14  C5  UNL     1      33.716  10.135  28.193  1.00  0.00     0.027 C 
HETATM   15  C6  UNL     1      33.937   9.046  27.470  1.00  0.00     0.083 C 
HETATM   16 CL1  UNL     1      35.481   8.226  27.475  1.00  0.00    -0.097 Cl
ENDBRANCH   1  14
TORSDOF 3
ENDMDL
