MODEL 1
REMARK VINA RESULT: -8.415191943      0.000      0.000
REMARK  3 active torsions:
REMARK  status: ('A' for Active; 'I' for Inactive)
REMARK    1  A    between atoms: C5_8  and  N1_9 
REMARK    2  A    between atoms: N1_9  and  C6_11 
REMARK    3  A    between atoms: C6_11  and  C7_12 
ROOT
HETATM    1  F1  UNL     1      33.428   8.351  23.170  1.00  0.00    -0.203 F 
HETATM    2  C1  UNL     1      34.132   7.496  23.961  1.00  0.00     0.160 A 
HETATM    3  C2  UNL     1      34.875   8.017  24.982  1.00  0.00     0.091 A 
HETATM    4  C3  UNL     1      35.592   7.146  25.787  1.00  0.00     0.160 A 
HETATM    5  F2  UNL     1      36.318   7.703  26.788  1.00  0.00    -0.203 F 
HETATM    6  C4  UNL     1      35.553   5.804  25.559  1.00  0.00     0.184 A 
HETATM    7  F3  UNL     1      36.268   4.983  26.368  1.00  0.00    -0.200 F 
HETATM    8  C5  UNL     1      34.816   5.235  24.540  1.00  0.00     0.112 A 
HETATM    9  C14 UNL     1      34.100   6.145  23.743  1.00  0.00     0.184 A 
HETATM   10  F4  UNL     1      33.351   5.684  22.722  1.00  0.00    -0.200 F 
ENDROOT
BRANCH   8  11
HETATM   11  N1  UNL     1      34.813   3.853  24.261  1.00  0.00    -0.384 N 
ATOM     12  H1  UNL     1      35.262   3.589  23.383  1.00  0.00     0.159 HD
BRANCH  11  13
HETATM   13  C6  UNL     1      34.283   2.768  25.014  1.00  0.00     0.125 C 
BRANCH  13  14
HETATM   14  C7  UNL     1      35.291   2.000  25.761  1.00  0.00     0.008 C 
HETATM   15  C8  UNL     1      34.605   1.205  26.917  1.00  0.00     0.011 C 
HETATM   16  C9  UNL     1      35.360  -0.076  27.056  1.00  0.00    -0.014 C 
HETATM   17  C10 UNL     1      34.713  -1.057  26.098  1.00  0.00     0.005 C 
HETATM   18  C13 UNL     1      36.634   0.200  26.254  1.00  0.00     0.010 C 
HETATM   19  C11 UNL     1      34.876  -0.296  24.794  1.00  0.00     0.005 C 
HETATM   20  C12 UNL     1      35.891   0.811  25.043  1.00  0.00    -0.009 C 
ENDBRANCH  13  14
ENDBRANCH  11  13
ENDBRANCH   8  11
TORSDOF 3
ENDMDL
MODEL 2
REMARK VINA RESULT: -8.341292686      0.169      2.417
REMARK  3 active torsions:
REMARK  status: ('A' for Active; 'I' for Inactive)
REMARK    1  A    between atoms: C5_8  and  N1_9 
REMARK    2  A    between atoms: N1_9  and  C6_11 
REMARK    3  A    between atoms: C6_11  and  C7_12 
ROOT
HETATM    1  F1  UNL     1      36.125   7.579  27.108  1.00  0.00    -0.203 F 
HETATM    2  C1  UNL     1      35.460   7.093  26.025  1.00  0.00     0.160 A 
HETATM    3  C2  UNL     1      34.733   7.964  25.264  1.00  0.00     0.091 A 
HETATM    4  C3  UNL     1      34.055   7.469  24.160  1.00  0.00     0.160 A 
HETATM    5  F2  UNL     1      33.344   8.365  23.432  1.00  0.00    -0.203 F 
HETATM    6  C4  UNL     1      34.118   6.145  23.849  1.00  0.00     0.184 A 
HETATM    7  F3  UNL     1      33.442   5.697  22.761  1.00  0.00    -0.200 F 
HETATM    8  C5  UNL     1      34.841   5.231  24.588  1.00  0.00     0.112 A 
HETATM    9  C14 UNL     1      35.515   5.765  25.700  1.00  0.00     0.184 A 
HETATM   10  F4  UNL     1      36.247   4.949  26.484  1.00  0.00    -0.200 F 
ENDROOT
BRANCH   8  11
HETATM   11  N1  UNL     1      34.865   3.849  24.307  1.00  0.00    -0.384 N 
ATOM     12  H1  UNL     1      35.354   3.592  23.450  1.00  0.00     0.159 HD
BRANCH  11  13
HETATM   13  C6  UNL     1      34.313   2.758  25.035  1.00  0.00     0.125 C 
BRANCH  13  14
HETATM   14  C7  UNL     1      35.301   1.980  25.801  1.00  0.00     0.008 C 
HETATM   15  C8  UNL     1      34.582   1.160  26.918  1.00  0.00     0.011 C 
HETATM   16  C9  UNL     1      35.339  -0.120  27.058  1.00  0.00    -0.014 C 
HETATM   17  C10 UNL     1      34.730  -1.086  26.060  1.00  0.00     0.005 C 
HETATM   18  C13 UNL     1      36.637   0.178  26.304  1.00  0.00     0.010 C 
HETATM   19  C11 UNL     1      34.931  -0.299  24.777  1.00  0.00     0.005 C 
HETATM   20  C12 UNL     1      35.931   0.808  25.080  1.00  0.00    -0.009 C 
ENDBRANCH  13  14
ENDBRANCH  11  13
ENDBRANCH   8  11
TORSDOF 3
ENDMDL
MODEL 3
REMARK VINA RESULT: -8.152792662      1.144      2.646
REMARK  3 active torsions:
REMARK  status: ('A' for Active; 'I' for Inactive)
REMARK    1  A    between atoms: C5_8  and  N1_9 
REMARK    2  A    between atoms: N1_9  and  C6_11 
REMARK    3  A    between atoms: C6_11  and  C7_12 
ROOT
HETATM    1  F1  UNL     1      35.654   8.928  26.107  1.00  0.00    -0.203 F 
HETATM    2  C1  UNL     1      35.239   7.730  25.612  1.00  0.00     0.160 A 
HETATM    3  C2  UNL     1      34.538   7.718  24.440  1.00  0.00     0.091 A 
HETATM    4  C3  UNL     1      34.116   6.498  23.936  1.00  0.00     0.160 A 
HETATM    5  F2  UNL     1      33.422   6.529  22.772  1.00  0.00    -0.203 F 
HETATM    6  C4  UNL     1      34.397   5.343  24.600  1.00  0.00     0.184 A 
HETATM    7  F3  UNL     1      33.967   4.167  24.076  1.00  0.00    -0.200 F 
HETATM    8  C5  UNL     1      35.102   5.308  25.786  1.00  0.00     0.112 A 
HETATM    9  C14 UNL     1      35.516   6.562  26.269  1.00  0.00     0.184 A 
HETATM   10  F4  UNL     1      36.211   6.630  27.421  1.00  0.00    -0.200 F 
ENDROOT
BRANCH   8  11
HETATM   11  N1  UNL     1      35.349   4.123  26.510  1.00  0.00    -0.384 N 
ATOM     12  H1  UNL     1      34.871   4.059  27.409  1.00  0.00     0.159 HD
BRANCH  11  13
HETATM   13  C6  UNL     1      36.161   3.002  26.180  1.00  0.00     0.125 C 
BRANCH  13  14
HETATM   14  C7  UNL     1      35.566   1.701  26.524  1.00  0.00     0.008 C 
HETATM   15  C8  UNL     1      34.141   1.586  25.897  1.00  0.00     0.011 C 
HETATM   16  C9  UNL     1      33.955   0.151  25.526  1.00  0.00    -0.014 C 
HETATM   17  C10 UNL     1      34.504   0.001  24.120  1.00  0.00     0.005 C 
HETATM   18  C13 UNL     1      35.097  -0.536  26.278  1.00  0.00     0.010 C 
HETATM   19  C11 UNL     1      35.928   0.481  24.342  1.00  0.00     0.005 C 
HETATM   20  C12 UNL     1      36.170   0.491  25.846  1.00  0.00    -0.009 C 
ENDBRANCH  13  14
ENDBRANCH  11  13
ENDBRANCH   8  11
TORSDOF 3
ENDMDL
MODEL 4
REMARK VINA RESULT: -8.081950990      1.149      1.597
REMARK  3 active torsions:
REMARK  status: ('A' for Active; 'I' for Inactive)
REMARK    1  A    between atoms: C5_8  and  N1_9 
REMARK    2  A    between atoms: N1_9  and  C6_11 
REMARK    3  A    between atoms: C6_11  and  C7_12 
ROOT
HETATM    1  F1  UNL     1      33.468   6.471  22.765  1.00  0.00    -0.203 F 
HETATM    2  C1  UNL     1      34.160   6.496  23.937  1.00  0.00     0.160 A 
HETATM    3  C2  UNL     1      34.633   7.695  24.387  1.00  0.00     0.091 A 
HETATM    4  C3  UNL     1      35.338   7.721  25.580  1.00  0.00     0.160 A 
HETATM    5  F2  UNL     1      35.791   8.931  25.992  1.00  0.00    -0.203 F 
HETATM    6  C4  UNL     1      35.551   6.573  26.281  1.00  0.00     0.184 A 
HETATM    7  F3  UNL     1      36.245   6.637  27.445  1.00  0.00    -0.200 F 
HETATM    8  C5  UNL     1      35.091   5.340  25.863  1.00  0.00     0.112 A 
HETATM    9  C14 UNL     1      34.380   5.349  24.651  1.00  0.00     0.184 A 
HETATM   10  F4  UNL     1      33.892   4.193  24.162  1.00  0.00    -0.200 F 
ENDROOT
BRANCH   8  11
HETATM   11  N1  UNL     1      35.355   4.138  26.552  1.00  0.00    -0.384 N 
ATOM     12  H1  UNL     1      34.908   4.057  27.466  1.00  0.00     0.159 HD
BRANCH  11  13
HETATM   13  C6  UNL     1      36.148   3.020  26.170  1.00  0.00     0.125 C 
BRANCH  13  14
HETATM   14  C7  UNL     1      35.567   1.716  26.527  1.00  0.00     0.008 C 
HETATM   15  C8  UNL     1      34.141   1.582  25.908  1.00  0.00     0.011 C 
HETATM   16  C9  UNL     1      33.968   0.142  25.549  1.00  0.00    -0.014 C 
HETATM   17  C10 UNL     1      34.511  -0.014  24.142  1.00  0.00     0.005 C 
HETATM   18  C13 UNL     1      35.121  -0.528  26.300  1.00  0.00     0.010 C 
HETATM   19  C11 UNL     1      35.932   0.482  24.353  1.00  0.00     0.005 C 
HETATM   20  C12 UNL     1      36.181   0.507  25.855  1.00  0.00    -0.009 C 
ENDBRANCH  13  14
ENDBRANCH  11  13
ENDBRANCH   8  11
TORSDOF 3
ENDMDL
MODEL 5
REMARK VINA RESULT: -7.761827863      2.529      6.413
REMARK  3 active torsions:
REMARK  status: ('A' for Active; 'I' for Inactive)
REMARK    1  A    between atoms: C5_8  and  N1_9 
REMARK    2  A    between atoms: N1_9  and  C6_11 
REMARK    3  A    between atoms: C6_11  and  C7_12 
ROOT
HETATM    1  F1  UNL     1      36.204  -0.371  23.457  1.00  0.00    -0.203 F 
HETATM    2  C1  UNL     1      35.675   0.322  24.502  1.00  0.00     0.160 A 
HETATM    3  C2  UNL     1      35.677  -0.262  25.736  1.00  0.00     0.091 A 
HETATM    4  C3  UNL     1      35.137   0.442  26.801  1.00  0.00     0.160 A 
HETATM    5  F2  UNL     1      35.158  -0.173  28.009  1.00  0.00    -0.203 F 
HETATM    6  C4  UNL     1      34.619   1.687  26.613  1.00  0.00     0.184 A 
HETATM    7  F3  UNL     1      34.101   2.347  27.679  1.00  0.00    -0.200 F 
HETATM    8  C5  UNL     1      34.598   2.316  25.384  1.00  0.00     0.112 A 
HETATM    9  C14 UNL     1      35.151   1.574  24.326  1.00  0.00     0.184 A 
HETATM   10  F4  UNL     1      35.175   2.104  23.087  1.00  0.00    -0.200 F 
ENDROOT
BRANCH   8  11
HETATM   11  N1  UNL     1      34.012   3.581  25.167  1.00  0.00    -0.384 N 
ATOM     12  H1  UNL     1      33.006   3.624  25.331  1.00  0.00     0.159 HD
BRANCH  11  13
HETATM   13  C6  UNL     1      34.608   4.806  24.756  1.00  0.00     0.125 C 
BRANCH  13  14
HETATM   14  C7  UNL     1      34.496   5.893  25.741  1.00  0.00     0.008 C 
HETATM   15  C8  UNL     1      35.913   6.279  26.270  1.00  0.00     0.011 C 
HETATM   16  C9  UNL     1      35.887   7.752  26.519  1.00  0.00    -0.014 C 
HETATM   17  C10 UNL     1      36.278   8.411  25.211  1.00  0.00     0.005 C 
HETATM   18  C13 UNL     1      34.390   8.068  26.481  1.00  0.00     0.010 C 
HETATM   19  C11 UNL     1      35.204   7.843  24.299  1.00  0.00     0.005 C 
HETATM   20  C12 UNL     1      34.121   7.254  25.193  1.00  0.00    -0.009 C 
ENDBRANCH  13  14
ENDBRANCH  11  13
ENDBRANCH   8  11
TORSDOF 3
ENDMDL
