MODEL 1
REMARK VINA RESULT: -5.818644993      0.000      0.000
REMARK  5 active torsions:
REMARK  status: ('A' for Active; 'I' for Inactive)
REMARK    1  A    between atoms: C2_2  and  C3_3 
REMARK    2  A    between atoms: C3_3  and  N1_5 
REMARK    3  A    between atoms: N1_5  and  N2_6 
REMARK    4  A    between atoms: N2_6  and  C5_8 
REMARK    5  A    between atoms: C5_8  and  C7_12 
ROOT
HETATM    1  C5  UNL     1      34.837   6.106  25.783  1.00  0.00     0.079 C 
HETATM    2  C6  UNL     1      34.214   6.137  24.648  1.00  0.00     0.128 C 
HETATM    3 CL1  UNL     1      34.392   4.774  23.540  1.00  0.00    -0.069 Cl
HETATM    4 CL2  UNL     1      33.203   7.469  24.127  1.00  0.00    -0.069 Cl
ENDROOT
BRANCH   1   5
HETATM    5  N2  UNL     1      35.653   4.960  26.103  1.00  0.00    -0.237 N 
ATOM      6  H2  UNL     1      36.651   5.156  26.187  1.00  0.00     0.201 HD
BRANCH   5   7
HETATM    7  N1  UNL     1      35.331   3.750  26.297  1.00  0.00    -0.335 NA
BRANCH   7   8
HETATM    8  C3  UNL     1      35.061   2.618  26.461  1.00  0.00     0.082 C 
HETATM    9  C4  UNL     1      33.645   2.169  26.747  1.00  0.00     0.082 C 
BRANCH   8  10
HETATM   10  C2  UNL     1      36.033   1.445  26.424  1.00  0.00     0.065 C 
HETATM   11  C1  UNL     1      35.301   0.135  26.595  1.00  0.00     0.012 C 
ENDBRANCH   8  10
ENDBRANCH   7   8
ENDBRANCH   5   7
ENDBRANCH   1   5
BRANCH   1  12
HETATM   12  C7  UNL     1      34.733   7.201  26.754  1.00  0.00     0.082 A 
HETATM   13  C8  UNL     1      35.967   7.574  27.569  1.00  0.00     0.057 A 
HETATM   14  C9  UNL     1      35.342   8.530  26.572  1.00  0.00     0.123 A 
HETATM   15 CL3  UNL     1      34.556   9.955  27.334  1.00  0.00    -0.101 Cl
HETATM   16 CL4  UNL     1      36.359   8.947  25.204  1.00  0.00    -0.101 Cl
ENDBRANCH   1  12
TORSDOF 5
ENDMDL
MODEL 2
REMARK VINA RESULT: -5.426441022      2.433      5.844
REMARK  5 active torsions:
REMARK  status: ('A' for Active; 'I' for Inactive)
REMARK    1  A    between atoms: C2_2  and  C3_3 
REMARK    2  A    between atoms: C3_3  and  N1_5 
REMARK    3  A    between atoms: N1_5  and  N2_6 
REMARK    4  A    between atoms: N2_6  and  C5_8 
REMARK    5  A    between atoms: C5_8  and  C7_12 
ROOT
HETATM    1  C5  UNL     1      34.701   3.962  25.656  1.00  0.00     0.079 C 
HETATM    2  C6  UNL     1      34.654   3.832  24.368  1.00  0.00     0.128 C 
HETATM    3 CL1  UNL     1      34.159   5.216  23.390  1.00  0.00    -0.069 Cl
HETATM    4 CL2  UNL     1      35.040   2.347  23.522  1.00  0.00    -0.069 Cl
ENDROOT
BRANCH   1   5
HETATM    5  N2  UNL     1      34.350   5.230  26.246  1.00  0.00    -0.237 N 
ATOM      6  H2  UNL     1      33.454   5.241  26.735  1.00  0.00     0.201 HD
BRANCH   5   7
HETATM    7  N1  UNL     1      34.974   6.333  26.255  1.00  0.00    -0.335 NA
BRANCH   7   8
HETATM    8  C3  UNL     1      35.524   7.371  26.252  1.00  0.00     0.082 C 
HETATM    9  C4  UNL     1      36.466   7.772  25.139  1.00  0.00     0.082 C 
BRANCH   8  10
HETATM   10  C2  UNL     1      35.405   8.458  27.315  1.00  0.00     0.065 C 
HETATM   11  C1  UNL     1      33.974   8.923  27.449  1.00  0.00     0.012 C 
ENDBRANCH   8  10
ENDBRANCH   7   8
ENDBRANCH   5   7
ENDBRANCH   1   5
BRANCH   1  12
HETATM   12  C7  UNL     1      35.105   2.855  26.531  1.00  0.00     0.082 A 
HETATM   13  C8  UNL     1      34.193   2.472  27.691  1.00  0.00     0.057 A 
HETATM   14  C9  UNL     1      34.467   1.527  26.537  1.00  0.00     0.123 A 
HETATM   15 CL3  UNL     1      35.450   0.095  26.994  1.00  0.00    -0.101 Cl
HETATM   16 CL4  UNL     1      33.067   1.125  25.559  1.00  0.00    -0.101 Cl
ENDBRANCH   1  12
TORSDOF 5
ENDMDL
MODEL 3
REMARK VINA RESULT: -4.630056316      3.033      6.252
REMARK  5 active torsions:
REMARK  status: ('A' for Active; 'I' for Inactive)
REMARK    1  A    between atoms: C2_2  and  C3_3 
REMARK    2  A    between atoms: C3_3  and  N1_5 
REMARK    3  A    between atoms: N1_5  and  N2_6 
REMARK    4  A    between atoms: N2_6  and  C5_8 
REMARK    5  A    between atoms: C5_8  and  C7_12 
ROOT
HETATM    1  C5  UNL     1      34.600   3.239  25.062  1.00  0.00     0.079 C 
HETATM    2  C6  UNL     1      34.505   3.529  26.321  1.00  0.00     0.128 C 
HETATM    3 CL1  UNL     1      34.845   5.180  26.843  1.00  0.00    -0.069 Cl
HETATM    4 CL2  UNL     1      34.070   2.368  27.559  1.00  0.00    -0.069 Cl
ENDROOT
BRANCH   1   5
HETATM    5  N2  UNL     1      34.979   4.274  24.131  1.00  0.00    -0.237 N 
ATOM      6  H2  UNL     1      35.627   3.977  23.401  1.00  0.00     0.201 HD
BRANCH   5   7
HETATM    7  N1  UNL     1      34.635   5.493  24.074  1.00  0.00    -0.335 NA
BRANCH   7   8
HETATM    8  C3  UNL     1      34.350   6.631  24.031  1.00  0.00     0.082 C 
HETATM    9  C4  UNL     1      33.090   7.112  23.347  1.00  0.00     0.082 C 
BRANCH   8  10
HETATM   10  C2  UNL     1      35.150   7.785  24.623  1.00  0.00     0.065 C 
HETATM   11  C1  UNL     1      36.548   7.342  24.981  1.00  0.00     0.012 C 
ENDBRANCH   8  10
ENDBRANCH   7   8
ENDBRANCH   5   7
ENDBRANCH   1   5
BRANCH   1  12
HETATM   12  C7  UNL     1      34.330   1.888  24.556  1.00  0.00     0.082 A 
HETATM   13  C8  UNL     1      35.328   1.258  23.591  1.00  0.00     0.057 A 
HETATM   14  C9  UNL     1      35.071   0.684  24.971  1.00  0.00     0.123 A 
HETATM   15 CL3  UNL     1      34.229  -0.902  24.948  1.00  0.00    -0.101 Cl
HETATM   16 CL4  UNL     1      36.447   0.725  26.059  1.00  0.00    -0.101 Cl
ENDBRANCH   1  12
TORSDOF 5
ENDMDL
MODEL 4
REMARK VINA RESULT: -4.507220820      4.011      6.455
REMARK  5 active torsions:
REMARK  status: ('A' for Active; 'I' for Inactive)
REMARK    1  A    between atoms: C2_2  and  C3_3 
REMARK    2  A    between atoms: C3_3  and  N1_5 
REMARK    3  A    between atoms: N1_5  and  N2_6 
REMARK    4  A    between atoms: N2_6  and  C5_8 
REMARK    5  A    between atoms: C5_8  and  C7_12 
ROOT
HETATM    1  C5  UNL     1      33.630   8.715  26.725  1.00  0.00     0.079 C 
HETATM    2  C6  UNL     1      34.310   9.341  27.632  1.00  0.00     0.128 C 
HETATM    3 CL1  UNL     1      33.697  10.878  28.248  1.00  0.00    -0.069 Cl
HETATM    4 CL2  UNL     1      35.828   8.761  28.286  1.00  0.00    -0.069 Cl
ENDROOT
BRANCH   1   5
HETATM    5  N2  UNL     1      32.396   9.293  26.249  1.00  0.00    -0.237 N 
ATOM      6  H2  UNL     1      32.399   9.558  25.264  1.00  0.00     0.201 HD
BRANCH   5   7
HETATM    7  N1  UNL     1      31.310   9.527  26.859  1.00  0.00    -0.335 NA
BRANCH   7   8
HETATM    8  C3  UNL     1      30.292   9.760  27.396  1.00  0.00     0.082 C 
HETATM    9  C4  UNL     1      28.961   9.425  26.761  1.00  0.00     0.082 C 
BRANCH   8  10
HETATM   10  C2  UNL     1      30.121  10.411  28.764  1.00  0.00     0.065 C 
HETATM   11  C1  UNL     1      30.815   9.604  29.835  1.00  0.00     0.012 C 
ENDBRANCH   8  10
ENDBRANCH   7   8
ENDBRANCH   5   7
ENDBRANCH   1   5
BRANCH   1  12
HETATM   12  C7  UNL     1      34.077   7.433  26.169  1.00  0.00     0.082 A 
HETATM   13  C8  UNL     1      33.932   7.198  24.669  1.00  0.00     0.057 A 
HETATM   14  C9  UNL     1      35.288   7.263  25.347  1.00  0.00     0.123 A 
HETATM   15 CL3  UNL     1      36.149   5.687  25.390  1.00  0.00    -0.101 Cl
HETATM   16 CL4  UNL     1      36.307   8.599  24.842  1.00  0.00    -0.101 Cl
ENDBRANCH   1  12
TORSDOF 5
ENDMDL
MODEL 5
REMARK VINA RESULT: -4.482112697      4.112      6.638
REMARK  5 active torsions:
REMARK  status: ('A' for Active; 'I' for Inactive)
REMARK    1  A    between atoms: C2_2  and  C3_3 
REMARK    2  A    between atoms: C3_3  and  N1_5 
REMARK    3  A    between atoms: N1_5  and  N2_6 
REMARK    4  A    between atoms: N2_6  and  C5_8 
REMARK    5  A    between atoms: C5_8  and  C7_12 
ROOT
HETATM    1  C5  UNL     1      33.534   8.705  26.594  1.00  0.00     0.079 C 
HETATM    2  C6  UNL     1      34.165   9.338  27.531  1.00  0.00     0.128 C 
HETATM    3 CL1  UNL     1      33.509  10.869  28.116  1.00  0.00    -0.069 Cl
HETATM    4 CL2  UNL     1      35.658   8.774  28.255  1.00  0.00    -0.069 Cl
ENDROOT
BRANCH   1   5
HETATM    5  N2  UNL     1      32.318   9.270  26.062  1.00  0.00    -0.237 N 
ATOM      6  H2  UNL     1      32.379   9.580  25.091  1.00  0.00     0.201 HD
BRANCH   5   7
HETATM    7  N1  UNL     1      31.187   9.444  26.606  1.00  0.00    -0.335 NA
BRANCH   7   8
HETATM    8  C3  UNL     1      30.129   9.625  27.083  1.00  0.00     0.082 C 
HETATM    9  C4  UNL     1      29.956  10.410  28.364  1.00  0.00     0.082 C 
BRANCH   8  10
HETATM   10  C2  UNL     1      28.795   9.130  26.536  1.00  0.00     0.065 C 
HETATM   11  C1  UNL     1      27.751  10.219  26.599  1.00  0.00     0.012 C 
ENDBRANCH   8  10
ENDBRANCH   7   8
ENDBRANCH   5   7
ENDBRANCH   1   5
BRANCH   1  12
HETATM   12  C7  UNL     1      34.020   7.427  26.060  1.00  0.00     0.082 A 
HETATM   13  C8  UNL     1      33.949   7.190  24.555  1.00  0.00     0.057 A 
HETATM   14  C9  UNL     1      35.270   7.269  25.297  1.00  0.00     0.123 A 
HETATM   15 CL3  UNL     1      36.144   5.702  25.381  1.00  0.00    -0.101 Cl
HETATM   16 CL4  UNL     1      36.299   8.615  24.840  1.00  0.00    -0.101 Cl
ENDBRANCH   1  12
TORSDOF 5
ENDMDL
