MODEL 1
REMARK VINA RESULT: -9.828453347      0.000      0.000
REMARK  12 active torsions:
REMARK  status: ('A' for Active; 'I' for Inactive)
REMARK    1  A    between atoms: C2_2  and  N1_3 
REMARK    2  A    between atoms: C3_4  and  C4_5 
REMARK    3  A    between atoms: C4_5  and  C5_6 
REMARK    4  A    between atoms: C5_6  and  C6_7 
REMARK    5  A    between atoms: C6_7  and  C7_8 
REMARK    6  A    between atoms: C7_8  and  C8_9 
REMARK       I    between atoms: N4_15  and  C10_17 
REMARK    7  A    between atoms: C10_17  and  C11_19 
REMARK    8  A    between atoms: C16_31  and  N8_32 
REMARK       I    between atoms: N8_32  and  C17_34 
REMARK    9  A    between atoms: C17_34  and  C18_36 
REMARK   10  A    between atoms: C18_36  and  C19_37 
REMARK   11  A    between atoms: C22_40  and  O3_41 
REMARK   12  A    between atoms: C24_43  and  O4_44 
ROOT
HETATM    1  N1  UNL     1      19.019  31.077  15.957  1.00  0.00    -0.170 N 
HETATM    2  C3  UNL     1      18.378  30.029  15.418  1.00  0.00     0.115 A 
HETATM    3  N6  UNL     1      19.109  28.946  15.694  1.00  0.00    -0.274 N 
ATOM      4  H6  UNL     1      18.881  27.990  15.417  1.00  0.00     0.189 HD
HETATM    5  N7  UNL     1      20.178  29.312  16.387  1.00  0.00    -0.130 N 
ATOM      6  H7  UNL     1      20.908  28.687  16.729  1.00  0.00     0.205 HD
HETATM    7  C16 UNL     1      20.141  30.627  16.559  1.00  0.00     0.703 A 
ENDROOT
BRANCH   2   8
HETATM    8  C4  UNL     1      17.104  30.055  14.663  1.00  0.00     0.079 C 
BRANCH   8   9
HETATM    9  C5  UNL     1      17.331  29.970  13.184  1.00  0.00     0.008 C 
BRANCH   9  10
HETATM   10  C6  UNL     1      16.791  28.656  12.684  1.00  0.00     0.007 C 
BRANCH  10  11
HETATM   11  C7  UNL     1      16.736  28.535  11.200  1.00  0.00     0.066 C 
BRANCH  11  12
HETATM   12  C8  UNL     1      17.884  27.712  10.683  1.00  0.00     0.069 A 
HETATM   13  N2  UNL     1      18.112  27.366   9.429  1.00  0.00    -0.296 N 
HETATM   14  N3  UNL     1      19.127  26.662   9.128  1.00  0.00    -0.279 N 
ATOM     15  H2  UNL     1      17.468  27.665   8.697  1.00  0.00     0.187 HD
HETATM   16  C9  UNL     1      19.956  26.284  10.111  1.00  0.00     0.168 A 
ATOM     17  H3  UNL     1      19.308  26.392   8.161  1.00  0.00     0.189 HD
HETATM   18  N4  UNL     1      21.047  25.562  10.005  1.00  0.00    -0.301 N 
HETATM   19  S1  UNL     1      19.208  26.984  11.479  1.00  0.00    -0.038 SA
HETATM   20  C10 UNL     1      21.761  25.291  11.204  1.00  0.00     0.274 C 
ATOM     21  H4  UNL     1      21.369  25.211   9.103  1.00  0.00     0.171 HD
HETATM   22  O1  UNL     1      21.218  24.597  12.097  1.00  0.00    -0.266 OA
BRANCH  20  23
HETATM   23  C11 UNL     1      23.107  25.793  11.439  1.00  0.00     0.106 A 
HETATM   24  N5  UNL     1      24.275  25.273  10.995  1.00  0.00    -0.361 N 
HETATM   25  C12 UNL     1      25.299  26.020  11.424  1.00  0.00     0.089 A 
ATOM     26  H5  UNL     1      24.362  24.435  10.419  1.00  0.00     0.165 HD
HETATM   27  C13 UNL     1      24.798  27.083  12.186  1.00  0.00     0.026 A 
HETATM   28  C14 UNL     1      23.428  26.918  12.181  1.00  0.00    -0.028 A 
HETATM   29  C15 UNL     1      22.481  27.842  12.882  1.00  0.00     0.050 C 
ENDBRANCH  20  23
ENDBRANCH  11  12
ENDBRANCH  10  11
ENDBRANCH   9  10
ENDBRANCH   8   9
ENDBRANCH   2   8
BRANCH   1  30
HETATM   30  C2  UNL     1      18.536  32.441  15.870  1.00  0.00     0.144 C 
HETATM   31  C1  UNL     1      19.084  33.058  14.615  1.00  0.00     0.027 C 
ENDBRANCH   1  30
BRANCH   7  32
HETATM   32  N8  UNL     1      20.966  31.382  17.164  1.00  0.00    -0.158 N 
HETATM   33  C17 UNL     1      22.053  32.086  16.667  1.00  0.00     0.240 C 
HETATM   34  O2  UNL     1      22.462  31.975  15.490  1.00  0.00    -0.272 OA
ATOM     35  H8  UNL     1      20.804  31.487  18.165  1.00  0.00     0.187 HD
BRANCH  33  36
HETATM   36  C18 UNL     1      22.777  33.019  17.575  1.00  0.00     0.142 C 
BRANCH  36  37
HETATM   37  C19 UNL     1      22.157  34.369  17.557  1.00  0.00    -0.047 A 
HETATM   38  C20 UNL     1      22.644  35.341  16.709  1.00  0.00     0.010 A 
HETATM   39  C21 UNL     1      22.059  36.590  16.702  1.00  0.00     0.040 A 
HETATM   40  C22 UNL     1      20.997  36.921  17.515  1.00  0.00     0.101 A 
HETATM   41  C24 UNL     1      20.505  35.949  18.368  1.00  0.00     0.102 A 
HETATM   42  C26 UNL     1      21.091  34.702  18.371  1.00  0.00     0.047 A 
BRANCH  40  43
HETATM   43  O3  UNL     1      20.416  38.181  17.501  1.00  0.00    -0.353 OA
HETATM   44  C23 UNL     1      20.987  39.161  16.657  1.00  0.00     0.210 C 
ENDBRANCH  40  43
BRANCH  41  45
HETATM   45  O4  UNL     1      19.434  36.291  19.183  1.00  0.00    -0.353 OA
HETATM   46  C25 UNL     1      18.133  35.785  18.988  1.00  0.00     0.210 C 
ENDBRANCH  41  45
ENDBRANCH  36  37
ENDBRANCH  33  36
ENDBRANCH   7  32
TORSDOF 12
ENDMDL
MODEL 2
REMARK VINA RESULT: -9.660321367      1.133      1.490
REMARK  12 active torsions:
REMARK  status: ('A' for Active; 'I' for Inactive)
REMARK    1  A    between atoms: C2_2  and  N1_3 
REMARK    2  A    between atoms: C3_4  and  C4_5 
REMARK    3  A    between atoms: C4_5  and  C5_6 
REMARK    4  A    between atoms: C5_6  and  C6_7 
REMARK    5  A    between atoms: C6_7  and  C7_8 
REMARK    6  A    between atoms: C7_8  and  C8_9 
REMARK       I    between atoms: N4_15  and  C10_17 
REMARK    7  A    between atoms: C10_17  and  C11_19 
REMARK    8  A    between atoms: C16_31  and  N8_32 
REMARK       I    between atoms: N8_32  and  C17_34 
REMARK    9  A    between atoms: C17_34  and  C18_36 
REMARK   10  A    between atoms: C18_36  and  C19_37 
REMARK   11  A    between atoms: C22_40  and  O3_41 
REMARK   12  A    between atoms: C24_43  and  O4_44 
ROOT
HETATM    1  N1  UNL     1      19.248  31.277  15.899  1.00  0.00    -0.170 N 
HETATM    2  C3  UNL     1      18.522  30.202  15.555  1.00  0.00     0.115 A 
HETATM    3  N6  UNL     1      19.343  29.150  15.603  1.00  0.00    -0.274 N 
ATOM      4  H6  UNL     1      19.083  28.186  15.393  1.00  0.00     0.189 HD
HETATM    5  N7  UNL     1      20.549  29.561  15.969  1.00  0.00    -0.130 N 
ATOM      6  H7  UNL     1      21.371  28.967  16.085  1.00  0.00     0.205 HD
HETATM    7  C16 UNL     1      20.511  30.873  16.156  1.00  0.00     0.703 A 
ENDROOT
BRANCH   2   8
HETATM    8  C4  UNL     1      17.086  30.175  15.191  1.00  0.00     0.079 C 
BRANCH   8   9
HETATM    9  C5  UNL     1      16.887  30.229  13.707  1.00  0.00     0.008 C 
BRANCH   9  10
HETATM   10  C6  UNL     1      16.946  28.828  13.157  1.00  0.00     0.007 C 
BRANCH  10  11
HETATM   11  C7  UNL     1      16.782  28.737  11.679  1.00  0.00     0.066 C 
BRANCH  11  12
HETATM   12  C8  UNL     1      17.881  27.914  11.064  1.00  0.00     0.069 A 
HETATM   13  N2  UNL     1      18.043  27.634   9.784  1.00  0.00    -0.296 N 
HETATM   14  N3  UNL     1      19.023  26.921   9.398  1.00  0.00    -0.279 N 
ATOM     15  H2  UNL     1      17.376  27.992   9.100  1.00  0.00     0.187 HD
HETATM   16  C9  UNL     1      19.882  26.465  10.320  1.00  0.00     0.168 A 
ATOM     17  H3  UNL     1      19.152  26.702   8.410  1.00  0.00     0.189 HD
HETATM   18  N4  UNL     1      20.946  25.721  10.124  1.00  0.00    -0.301 N 
HETATM   19  S1  UNL     1      19.217  27.106  11.757  1.00  0.00    -0.038 SA
HETATM   20  C10 UNL     1      21.704  25.363  11.272  1.00  0.00     0.274 C 
ATOM     21  H4  UNL     1      21.217  25.414   9.190  1.00  0.00     0.171 HD
HETATM   22  O1  UNL     1      21.180  24.634  12.147  1.00  0.00    -0.266 OA
BRANCH  20  23
HETATM   23  C11 UNL     1      23.073  25.813  11.472  1.00  0.00     0.106 A 
HETATM   24  N5  UNL     1      24.210  25.243  11.009  1.00  0.00    -0.361 N 
HETATM   25  C12 UNL     1      25.272  25.954  11.408  1.00  0.00     0.089 A 
ATOM     26  H5  UNL     1      24.251  24.398  10.440  1.00  0.00     0.165 HD
HETATM   27  C13 UNL     1      24.829  27.043  12.169  1.00  0.00     0.026 A 
HETATM   28  C14 UNL     1      23.453  26.932  12.195  1.00  0.00    -0.028 A 
HETATM   29  C15 UNL     1      22.559  27.900  12.907  1.00  0.00     0.050 C 
ENDBRANCH  20  23
ENDBRANCH  11  12
ENDBRANCH  10  11
ENDBRANCH   9  10
ENDBRANCH   8   9
ENDBRANCH   2   8
BRANCH   1  30
HETATM   30  C2  UNL     1      18.706  32.620  15.966  1.00  0.00     0.144 C 
HETATM   31  C1  UNL     1      18.834  33.248  14.606  1.00  0.00     0.027 C 
ENDBRANCH   1  30
BRANCH   7  32
HETATM   32  N8  UNL     1      21.443  31.663  16.509  1.00  0.00    -0.158 N 
HETATM   33  C17 UNL     1      22.296  32.432  15.732  1.00  0.00     0.240 C 
HETATM   34  O2  UNL     1      22.337  32.362  14.484  1.00  0.00    -0.272 OA
ATOM     35  H8  UNL     1      21.585  31.743  17.516  1.00  0.00     0.187 HD
BRANCH  33  36
HETATM   36  C18 UNL     1      23.214  33.388  16.411  1.00  0.00     0.142 C 
BRANCH  36  37
HETATM   37  C19 UNL     1      22.457  34.348  17.255  1.00  0.00    -0.047 A 
HETATM   38  C20 UNL     1      21.366  35.014  16.736  1.00  0.00     0.010 A 
HETATM   39  C21 UNL     1      20.672  35.901  17.531  1.00  0.00     0.040 A 
HETATM   40  C22 UNL     1      21.021  36.161  18.839  1.00  0.00     0.101 A 
HETATM   41  C24 UNL     1      22.114  35.496  19.364  1.00  0.00     0.102 A 
HETATM   42  C26 UNL     1      22.804  34.610  18.567  1.00  0.00     0.047 A 
BRANCH  40  43
HETATM   43  O3  UNL     1      20.316  37.056  19.631  1.00  0.00    -0.353 OA
HETATM   44  C23 UNL     1      19.273  37.795  19.024  1.00  0.00     0.210 C 
ENDBRANCH  40  43
BRANCH  41  45
HETATM   45  O4  UNL     1      22.457  35.764  20.683  1.00  0.00    -0.353 OA
HETATM   46  C25 UNL     1      23.792  35.818  21.130  1.00  0.00     0.210 C 
ENDBRANCH  41  45
ENDBRANCH  36  37
ENDBRANCH  33  36
ENDBRANCH   7  32
TORSDOF 12
ENDMDL
MODEL 3
REMARK VINA RESULT: -9.566538339      3.563      8.141
REMARK  12 active torsions:
REMARK  status: ('A' for Active; 'I' for Inactive)
REMARK    1  A    between atoms: C2_2  and  N1_3 
REMARK    2  A    between atoms: C3_4  and  C4_5 
REMARK    3  A    between atoms: C4_5  and  C5_6 
REMARK    4  A    between atoms: C5_6  and  C6_7 
REMARK    5  A    between atoms: C6_7  and  C7_8 
REMARK    6  A    between atoms: C7_8  and  C8_9 
REMARK       I    between atoms: N4_15  and  C10_17 
REMARK    7  A    between atoms: C10_17  and  C11_19 
REMARK    8  A    between atoms: C16_31  and  N8_32 
REMARK       I    between atoms: N8_32  and  C17_34 
REMARK    9  A    between atoms: C17_34  and  C18_36 
REMARK   10  A    between atoms: C18_36  and  C19_37 
REMARK   11  A    between atoms: C22_40  and  O3_41 
REMARK   12  A    between atoms: C24_43  and  O4_44 
ROOT
HETATM    1  N1  UNL     1      18.448  30.179  15.236  1.00  0.00    -0.170 N 
HETATM    2  C3  UNL     1      19.350  30.308  16.220  1.00  0.00     0.115 A 
HETATM    3  N6  UNL     1      19.940  29.119  16.362  1.00  0.00    -0.274 N 
ATOM      4  H6  UNL     1      20.675  28.899  17.035  1.00  0.00     0.189 HD
HETATM    5  N7  UNL     1      19.417  28.270  15.488  1.00  0.00    -0.130 N 
ATOM      6  H7  UNL     1      19.681  27.291  15.377  1.00  0.00     0.205 HD
HETATM    7  C16 UNL     1      18.492  28.908  14.782  1.00  0.00     0.703 A 
ENDROOT
BRANCH   2   8
HETATM    8  C4  UNL     1      19.645  31.530  17.004  1.00  0.00     0.079 C 
BRANCH   8   9
HETATM    9  C5  UNL     1      20.582  32.446  16.278  1.00  0.00     0.008 C 
BRANCH   9  10
HETATM   10  C6  UNL     1      21.994  31.968  16.496  1.00  0.00     0.007 C 
BRANCH  10  11
HETATM   11  C7  UNL     1      22.867  32.051  15.291  1.00  0.00     0.066 C 
BRANCH  11  12
HETATM   12  C8  UNL     1      22.336  31.187  14.180  1.00  0.00     0.069 A 
HETATM   13  N2  UNL     1      21.789  31.594  13.049  1.00  0.00    -0.296 N 
HETATM   14  N3  UNL     1      21.379  30.751  12.190  1.00  0.00    -0.279 N 
ATOM     15  H2  UNL     1      21.695  32.593  12.864  1.00  0.00     0.187 HD
HETATM   16  C9  UNL     1      21.517  29.446  12.461  1.00  0.00     0.168 A 
ATOM     17  H3  UNL     1      20.956  31.061  11.315  1.00  0.00     0.189 HD
HETATM   18  N4  UNL     1      21.159  28.430  11.709  1.00  0.00    -0.301 N 
HETATM   19  S1  UNL     1      22.258  29.490  14.000  1.00  0.00    -0.038 SA
HETATM   20  C10 UNL     1      21.412  27.128  12.221  1.00  0.00     0.274 C 
ATOM     21  H4  UNL     1      20.720  28.569  10.799  1.00  0.00     0.171 HD
HETATM   22  O1  UNL     1      20.817  26.753  13.259  1.00  0.00    -0.266 OA
BRANCH  20  23
HETATM   23  C11 UNL     1      22.342  26.208  11.583  1.00  0.00     0.106 A 
HETATM   24  N5  UNL     1      22.048  25.124  10.827  1.00  0.00    -0.361 N 
HETATM   25  C12 UNL     1      23.177  24.532  10.420  1.00  0.00     0.089 A 
ATOM     26  H5  UNL     1      21.106  24.806  10.600  1.00  0.00     0.165 HD
HETATM   27  C13 UNL     1      24.272  25.247  10.924  1.00  0.00     0.026 A 
HETATM   28  C14 UNL     1      23.723  26.287  11.646  1.00  0.00    -0.028 A 
HETATM   29  C15 UNL     1      24.540  27.316  12.367  1.00  0.00     0.050 C 
ENDBRANCH  20  23
ENDBRANCH  11  12
ENDBRANCH  10  11
ENDBRANCH   9  10
ENDBRANCH   8   9
ENDBRANCH   2   8
BRANCH   1  30
HETATM   30  C2  UNL     1      17.597  31.262  14.782  1.00  0.00     0.144 C 
HETATM   31  C1  UNL     1      16.279  31.158  15.495  1.00  0.00     0.027 C 
ENDBRANCH   1  30
BRANCH   7  32
HETATM   32  N8  UNL     1      17.752  28.469  13.845  1.00  0.00    -0.158 N 
HETATM   33  C17 UNL     1      17.756  28.777  12.493  1.00  0.00     0.240 C 
HETATM   34  O2  UNL     1      18.471  29.676  11.996  1.00  0.00    -0.272 OA
ATOM     35  H8  UNL     1      17.049  27.788  14.131  1.00  0.00     0.187 HD
BRANCH  33  36
HETATM   36  C18 UNL     1      16.868  28.005  11.581  1.00  0.00     0.142 C 
BRANCH  36  37
HETATM   37  C19 UNL     1      17.638  26.989  10.817  1.00  0.00    -0.047 A 
HETATM   38  C20 UNL     1      17.978  27.225   9.502  1.00  0.00     0.010 A 
HETATM   39  C21 UNL     1      18.693  26.275   8.805  1.00  0.00     0.040 A 
HETATM   40  C22 UNL     1      19.091  25.080   9.366  1.00  0.00     0.101 A 
HETATM   41  C24 UNL     1      18.752  24.839  10.685  1.00  0.00     0.102 A 
HETATM   42  C26 UNL     1      18.038  25.791  11.378  1.00  0.00     0.047 A 
BRANCH  40  43
HETATM   43  O3  UNL     1      19.810  24.130   8.656  1.00  0.00    -0.353 OA
HETATM   44  C23 UNL     1      20.492  24.553   7.491  1.00  0.00     0.210 C 
ENDBRANCH  40  43
BRANCH  41  45
HETATM   45  O4  UNL     1      19.158  23.633  11.243  1.00  0.00    -0.353 OA
HETATM   46  C25 UNL     1      18.386  22.931  12.190  1.00  0.00     0.210 C 
ENDBRANCH  41  45
ENDBRANCH  36  37
ENDBRANCH  33  36
ENDBRANCH   7  32
TORSDOF 12
ENDMDL
MODEL 4
REMARK VINA RESULT: -9.540720449      3.092      7.817
REMARK  12 active torsions:
REMARK  status: ('A' for Active; 'I' for Inactive)
REMARK    1  A    between atoms: C2_2  and  N1_3 
REMARK    2  A    between atoms: C3_4  and  C4_5 
REMARK    3  A    between atoms: C4_5  and  C5_6 
REMARK    4  A    between atoms: C5_6  and  C6_7 
REMARK    5  A    between atoms: C6_7  and  C7_8 
REMARK    6  A    between atoms: C7_8  and  C8_9 
REMARK       I    between atoms: N4_15  and  C10_17 
REMARK    7  A    between atoms: C10_17  and  C11_19 
REMARK    8  A    between atoms: C16_31  and  N8_32 
REMARK       I    between atoms: N8_32  and  C17_34 
REMARK    9  A    between atoms: C17_34  and  C18_36 
REMARK   10  A    between atoms: C18_36  and  C19_37 
REMARK   11  A    between atoms: C22_40  and  O3_41 
REMARK   12  A    between atoms: C24_43  and  O4_44 
ROOT
HETATM    1  N1  UNL     1      18.734  31.903  15.569  1.00  0.00    -0.170 N 
HETATM    2  C3  UNL     1      19.662  32.113  16.514  1.00  0.00     0.115 A 
HETATM    3  N6  UNL     1      20.016  30.914  16.981  1.00  0.00    -0.274 N 
ATOM      4  H6  UNL     1      20.708  30.743  17.712  1.00  0.00     0.189 HD
HETATM    5  N7  UNL     1      19.325  29.981  16.342  1.00  0.00    -0.130 N 
ATOM      6  H7  UNL     1      19.395  28.975  16.500  1.00  0.00     0.205 HD
HETATM    7  C16 UNL     1      18.526  30.573  15.464  1.00  0.00     0.703 A 
ENDROOT
BRANCH   2   8
HETATM    8  C4  UNL     1      20.199  33.420  16.961  1.00  0.00     0.079 C 
BRANCH   8   9
HETATM    9  C5  UNL     1      21.682  33.371  17.170  1.00  0.00     0.008 C 
BRANCH   9  10
HETATM   10  C6  UNL     1      22.363  33.414  15.827  1.00  0.00     0.007 C 
BRANCH  10  11
HETATM   11  C7  UNL     1      23.149  32.193  15.493  1.00  0.00     0.066 C 
BRANCH  11  12
HETATM   12  C8  UNL     1      22.498  31.420  14.379  1.00  0.00     0.069 A 
HETATM   13  N2  UNL     1      21.871  31.917  13.329  1.00  0.00    -0.296 N 
HETATM   14  N3  UNL     1      21.363  31.145  12.455  1.00  0.00    -0.279 N 
ATOM     15  H2  UNL     1      21.793  32.928  13.218  1.00  0.00     0.187 HD
HETATM   16  C9  UNL     1      21.482  29.821  12.628  1.00  0.00     0.168 A 
ATOM     17  H3  UNL     1      20.877  31.524  11.643  1.00  0.00     0.189 HD
HETATM   18  N4  UNL     1      21.030  28.868  11.846  1.00  0.00    -0.301 N 
HETATM   19  S1  UNL     1      22.352  29.742  14.096  1.00  0.00    -0.038 SA
HETATM   20  C10 UNL     1      21.284  27.528  12.248  1.00  0.00     0.274 C 
ATOM     21  H4  UNL     1      20.519  29.079  10.989  1.00  0.00     0.171 HD
HETATM   22  O1  UNL     1      20.768  27.099  13.307  1.00  0.00    -0.266 OA
BRANCH  20  23
HETATM   23  C11 UNL     1      22.126  26.630  11.473  1.00  0.00     0.106 A 
HETATM   24  N5  UNL     1      21.748  25.783  10.487  1.00  0.00    -0.361 N 
HETATM   25  C12 UNL     1      22.815  25.123  10.018  1.00  0.00     0.089 A 
ATOM     26  H5  UNL     1      20.793  25.665  10.150  1.00  0.00     0.165 HD
HETATM   27  C13 UNL     1      23.953  25.544  10.718  1.00  0.00     0.026 A 
HETATM   28  C14 UNL     1      23.496  26.484  11.620  1.00  0.00    -0.028 A 
HETATM   29  C15 UNL     1      24.386  27.206  12.585  1.00  0.00     0.050 C 
ENDBRANCH  20  23
ENDBRANCH  11  12
ENDBRANCH  10  11
ENDBRANCH   9  10
ENDBRANCH   8   9
ENDBRANCH   2   8
BRANCH   1  30
HETATM   30  C2  UNL     1      18.098  32.970  14.820  1.00  0.00     0.144 C 
HETATM   31  C1  UNL     1      16.838  33.365  15.538  1.00  0.00     0.027 C 
ENDBRANCH   1  30
BRANCH   7  32
HETATM   32  N8  UNL     1      17.699  30.052  14.651  1.00  0.00    -0.158 N 
HETATM   33  C17 UNL     1      17.750  29.965  13.267  1.00  0.00     0.240 C 
HETATM   34  O2  UNL     1      18.630  30.526  12.577  1.00  0.00    -0.272 OA
ATOM     35  H8  UNL     1      16.873  29.635  15.080  1.00  0.00     0.187 HD
BRANCH  33  36
HETATM   36  C18 UNL     1      16.708  29.168  12.562  1.00  0.00     0.142 C 
BRANCH  36  37
HETATM   37  C19 UNL     1      17.281  27.918  11.999  1.00  0.00    -0.047 A 
HETATM   38  C20 UNL     1      17.274  26.757  12.744  1.00  0.00     0.010 A 
HETATM   39  C21 UNL     1      17.808  25.605  12.209  1.00  0.00     0.040 A 
HETATM   40  C22 UNL     1      18.360  25.554  10.947  1.00  0.00     0.101 A 
HETATM   41  C24 UNL     1      18.370  26.716  10.196  1.00  0.00     0.102 A 
HETATM   42  C26 UNL     1      17.834  27.865  10.734  1.00  0.00     0.047 A 
BRANCH  40  43
HETATM   43  O3  UNL     1      18.896  24.389  10.417  1.00  0.00    -0.353 OA
HETATM   44  C23 UNL     1      19.065  23.286  11.286  1.00  0.00     0.210 C 
ENDBRANCH  40  43
BRANCH  41  45
HETATM   45  O4  UNL     1      18.927  26.655   8.925  1.00  0.00    -0.353 OA
HETATM   46  C25 UNL     1      18.196  26.942   7.755  1.00  0.00     0.210 C 
ENDBRANCH  41  45
ENDBRANCH  36  37
ENDBRANCH  33  36
ENDBRANCH   7  32
TORSDOF 12
ENDMDL
MODEL 5
REMARK VINA RESULT: -9.512062947      3.152      7.082
REMARK  12 active torsions:
REMARK  status: ('A' for Active; 'I' for Inactive)
REMARK    1  A    between atoms: C2_2  and  N1_3 
REMARK    2  A    between atoms: C3_4  and  C4_5 
REMARK    3  A    between atoms: C4_5  and  C5_6 
REMARK    4  A    between atoms: C5_6  and  C6_7 
REMARK    5  A    between atoms: C6_7  and  C7_8 
REMARK    6  A    between atoms: C7_8  and  C8_9 
REMARK       I    between atoms: N4_15  and  C10_17 
REMARK    7  A    between atoms: C10_17  and  C11_19 
REMARK    8  A    between atoms: C16_31  and  N8_32 
REMARK       I    between atoms: N8_32  and  C17_34 
REMARK    9  A    between atoms: C17_34  and  C18_36 
REMARK   10  A    between atoms: C18_36  and  C19_37 
REMARK   11  A    between atoms: C22_40  and  O3_41 
REMARK   12  A    between atoms: C24_43  and  O4_44 
ROOT
HETATM    1  N1  UNL     1      20.568  29.235  13.970  1.00  0.00    -0.170 N 
HETATM    2  C3  UNL     1      19.629  28.285  14.097  1.00  0.00     0.115 A 
HETATM    3  N6  UNL     1      19.430  28.112  15.405  1.00  0.00    -0.274 N 
ATOM      4  H6  UNL     1      18.771  27.453  15.822  1.00  0.00     0.189 HD
HETATM    5  N7  UNL     1      20.225  28.934  16.076  1.00  0.00    -0.130 N 
ATOM      6  H7  UNL     1      20.281  29.012  17.091  1.00  0.00     0.205 HD
HETATM    7  C16 UNL     1      20.937  29.637  15.205  1.00  0.00     0.703 A 
ENDROOT
BRANCH   2   8
HETATM    8  C4  UNL     1      18.939  27.562  13.004  1.00  0.00     0.079 C 
BRANCH   8   9
HETATM    9  C5  UNL     1      17.480  27.899  12.946  1.00  0.00     0.008 C 
BRANCH   9  10
HETATM   10  C6  UNL     1      17.332  29.388  12.774  1.00  0.00     0.007 C 
BRANCH  10  11
HETATM   11  C7  UNL     1      16.691  30.082  13.927  1.00  0.00     0.066 C 
BRANCH  11  12
HETATM   12  C8  UNL     1      17.493  31.284  14.346  1.00  0.00     0.069 A 
HETATM   13  N2  UNL     1      18.524  31.812  13.713  1.00  0.00    -0.296 N 
HETATM   14  N3  UNL     1      19.115  32.836  14.181  1.00  0.00    -0.279 N 
ATOM     15  H2  UNL     1      18.849  31.394  12.840  1.00  0.00     0.187 HD
HETATM   16  C9  UNL     1      18.664  33.363  15.328  1.00  0.00     0.168 A 
ATOM     17  H3  UNL     1      19.912  33.247  13.695  1.00  0.00     0.189 HD
HETATM   18  N4  UNL     1      19.134  34.409  15.968  1.00  0.00    -0.301 N 
HETATM   19  S1  UNL     1      17.361  32.321  15.697  1.00  0.00    -0.038 SA
HETATM   20  C10 UNL     1      18.481  34.775  17.176  1.00  0.00     0.274 C 
ATOM     21  H4  UNL     1      19.933  34.936  15.614  1.00  0.00     0.171 HD
HETATM   22  O1  UNL     1      18.511  33.987  18.151  1.00  0.00    -0.266 OA
BRANCH  20  23
HETATM   23  C11 UNL     1      17.771  36.036  17.326  1.00  0.00     0.106 A 
HETATM   24  N5  UNL     1      18.253  37.287  17.136  1.00  0.00    -0.361 N 
HETATM   25  C12 UNL     1      17.292  38.187  17.375  1.00  0.00     0.089 A 
ATOM     26  H5  UNL     1      19.207  37.510  16.854  1.00  0.00     0.165 HD
HETATM   27  C13 UNL     1      16.118  37.514  17.739  1.00  0.00     0.026 A 
HETATM   28  C14 UNL     1      16.444  36.173  17.701  1.00  0.00    -0.028 A 
HETATM   29  C15 UNL     1      15.475  35.077  18.023  1.00  0.00     0.050 C 
ENDBRANCH  20  23
ENDBRANCH  11  12
ENDBRANCH  10  11
ENDBRANCH   9  10
ENDBRANCH   8   9
ENDBRANCH   2   8
BRANCH   1  30
HETATM   30  C2  UNL     1      21.060  29.708  12.690  1.00  0.00     0.144 C 
HETATM   31  C1  UNL     1      22.211  28.835  12.276  1.00  0.00     0.027 C 
ENDBRANCH   1  30
BRANCH   7  32
HETATM   32  N8  UNL     1      21.815  30.532  15.420  1.00  0.00    -0.158 N 
HETATM   33  C17 UNL     1      21.783  31.616  16.285  1.00  0.00     0.240 C 
HETATM   34  O2  UNL     1      20.767  31.944  16.936  1.00  0.00    -0.272 OA
ATOM     35  H8  UNL     1      22.671  30.438  14.875  1.00  0.00     0.187 HD
BRANCH  33  36
HETATM   36  C18 UNL     1      23.016  32.436  16.449  1.00  0.00     0.142 C 
BRANCH  36  37
HETATM   37  C19 UNL     1      22.687  33.808  16.911  1.00  0.00    -0.047 A 
HETATM   38  C20 UNL     1      22.399  34.797  15.993  1.00  0.00     0.010 A 
HETATM   39  C21 UNL     1      22.095  36.066  16.436  1.00  0.00     0.040 A 
HETATM   40  C22 UNL     1      22.065  36.404  17.772  1.00  0.00     0.101 A 
HETATM   41  C24 UNL     1      22.353  35.416  18.696  1.00  0.00     0.102 A 
HETATM   42  C26 UNL     1      22.656  34.149  18.250  1.00  0.00     0.047 A 
BRANCH  40  43
HETATM   43  O3  UNL     1      21.758  37.685  18.207  1.00  0.00    -0.353 OA
HETATM   44  C23 UNL     1      21.538  38.680  17.226  1.00  0.00     0.210 C 
ENDBRANCH  40  43
BRANCH  41  45
HETATM   45  O4  UNL     1      22.320  35.765  20.041  1.00  0.00    -0.353 OA
HETATM   46  C25 UNL     1      23.483  35.898  20.824  1.00  0.00     0.210 C 
ENDBRANCH  41  45
ENDBRANCH  36  37
ENDBRANCH  33  36
ENDBRANCH   7  32
TORSDOF 12
ENDMDL
