MODEL 1
REMARK VINA RESULT: -7.900950404      0.000      0.000
REMARK  16 active torsions:
REMARK  status: ('A' for Active; 'I' for Inactive)
REMARK    1  A    between atoms: O1_2  and  C2_3 
REMARK    2  A    between atoms: C2_3  and  C3_4 
REMARK    3  A    between atoms: C4_5  and  C5_6 
REMARK    4  A    between atoms: C10_11  and  C11_12 
REMARK    5  A    between atoms: C11_12  and  C12_13 
REMARK    6  A    between atoms: C13_14  and  C14_15 
REMARK    7  A    between atoms: C13_14  and  C25_34 
REMARK    8  A    between atoms: C15_16  and  C16_17 
REMARK    9  A    between atoms: C18_20  and  O3_21 
REMARK   10  A    between atoms: O3_21  and  C19_22 
REMARK   11  A    between atoms: C20_25  and  O4_26 
REMARK   12  A    between atoms: C22_28  and  O5_29 
REMARK   13  A    between atoms: C23_31  and  O6_32 
REMARK   14  A    between atoms: C25_34  and  O7_35 
REMARK   15  A    between atoms: C25_34  and  N2_37 
REMARK   16  A    between atoms: N2_37  and  C26_39 
ROOT
HETATM    1  C12 UNL     1      17.817  29.848  14.709  1.00  0.00    -0.007 C 
HETATM    2  C13 UNL     1      19.036  29.300  14.611  1.00  0.00     0.011 C 
ENDROOT
BRANCH   2   3
HETATM    3  C14 UNL     1      19.261  28.462  13.427  1.00  0.00     0.014 C 
HETATM    4  C15 UNL     1      20.260  28.010  12.803  1.00  0.00     0.008 C 
BRANCH   4   5
HETATM    5  C16 UNL     1      20.007  27.150  11.579  1.00  0.00     0.177 C 
HETATM    6  O2  UNL     1      18.806  26.513  11.815  1.00  0.00    -0.368 OA
HETATM    7  C17 UNL     1      18.923  25.194  11.504  1.00  0.00     0.194 C 
HETATM    8  C18 UNL     1      18.840  24.951  10.011  1.00  0.00     0.195 C 
HETATM    9  C22 UNL     1      20.377  24.834  11.442  1.00  0.00     0.143 C 
HETATM   10  C20 UNL     1      20.115  24.147  10.131  1.00  0.00     0.192 C 
HETATM   11  C23 UNL     1      21.083  26.142  11.390  1.00  0.00     0.193 C 
BRANCH   8  12
HETATM   12  O3  UNL     1      18.953  26.110   9.218  1.00  0.00    -0.319 OA
BRANCH  12  13
HETATM   13  C19 UNL     1      18.163  26.177   8.079  1.00  0.00     0.223 C 
HETATM   14  N1  UNL     1      18.323  27.168   7.076  1.00  0.00    -0.063 NA
HETATM   15  S1  UNL     1      16.991  25.037   7.910  1.00  0.00    -0.037 SA
ENDBRANCH  12  13
ENDBRANCH   8  12
BRANCH  10  16
HETATM   16  O4  UNL     1      21.055  24.344   9.146  1.00  0.00    -0.385 OA
HETATM   17  C21 UNL     1      20.982  23.268   8.251  1.00  0.00     0.202 C 
ENDBRANCH  10  16
BRANCH   9  18
HETATM   18  O5  UNL     1      20.813  23.924  12.394  1.00  0.00    -0.382 OA
ATOM     19  H5  UNL     1      21.102  24.297  13.218  1.00  0.00     0.211 HD
ENDBRANCH   9  18
BRANCH  11  20
HETATM   20  O6  UNL     1      22.015  26.298  12.414  1.00  0.00    -0.385 OA
HETATM   21  C24 UNL     1      23.323  26.232  11.937  1.00  0.00     0.202 C 
ENDBRANCH  11  20
ENDBRANCH   4   5
ENDBRANCH   2   3
BRANCH   2  22
HETATM   22  C25 UNL     1      20.025  29.550  15.590  1.00  0.00     0.146 C 
BRANCH  22  23
HETATM   23  O7  UNL     1      20.143  28.652  16.530  1.00  0.00    -0.346 OA
ATOM     24  H7  UNL     1      21.027  28.363  16.725  1.00  0.00     0.219 HD
ENDBRANCH  22  23
BRANCH  22  25
HETATM   25  N2  UNL     1      20.910  30.624  15.709  1.00  0.00    -0.366 N 
ATOM     26  H2  UNL     1      21.460  30.770  16.555  1.00  0.00     0.162 HD
BRANCH  25  27
HETATM   27  C26 UNL     1      21.015  31.552  14.541  1.00  0.00     0.083 A 
HETATM   28  C27 UNL     1      22.343  32.262  14.380  1.00  0.00     0.027 A 
HETATM   29  C28 UNL     1      21.939  31.119  13.492  1.00  0.00     0.027 A 
ENDBRANCH  25  27
ENDBRANCH  22  25
ENDBRANCH   2  22
BRANCH   1  30
HETATM   30  C11 UNL     1      17.190  30.714  15.688  1.00  0.00     0.058 C 
BRANCH  30  31
HETATM   31  C10 UNL     1      17.223  32.112  15.174  1.00  0.00     0.014 C 
HETATM   32  C2  UNL     1      17.629  33.157  15.813  1.00  0.00     0.064 C 
BRANCH  32  33
HETATM   33  O1  UNL     1      17.549  34.375  15.074  1.00  0.00    -0.356 OA
HETATM   34  C1  UNL     1      16.663  35.375  15.530  1.00  0.00     0.210 C 
ENDBRANCH  32  33
BRANCH  32  35
HETATM   35  C3  UNL     1      18.128  33.145  17.149  1.00  0.00     0.033 C 
HETATM   36  C4  UNL     1      19.237  33.591  17.638  1.00  0.00    -0.019 C 
BRANCH  36  37
HETATM   37  C5  UNL     1      20.311  34.249  16.929  1.00  0.00     0.008 C 
HETATM   38  C6  UNL     1      20.290  35.762  17.256  1.00  0.00     0.008 C 
HETATM   39  C7  UNL     1      21.726  36.208  17.232  1.00  0.00     0.001 C 
HETATM   40  C8  UNL     1      22.533  34.986  16.917  1.00  0.00     0.001 C 
HETATM   41  C9  UNL     1      21.691  33.882  17.524  1.00  0.00     0.008 C 
ENDBRANCH  36  37
ENDBRANCH  32  35
ENDBRANCH  30  31
ENDBRANCH   1  30
TORSDOF 16
ENDMDL
MODEL 2
REMARK VINA RESULT: -7.875560026      4.285     10.518
REMARK  16 active torsions:
REMARK  status: ('A' for Active; 'I' for Inactive)
REMARK    1  A    between atoms: O1_2  and  C2_3 
REMARK    2  A    between atoms: C2_3  and  C3_4 
REMARK    3  A    between atoms: C4_5  and  C5_6 
REMARK    4  A    between atoms: C10_11  and  C11_12 
REMARK    5  A    between atoms: C11_12  and  C12_13 
REMARK    6  A    between atoms: C13_14  and  C14_15 
REMARK    7  A    between atoms: C13_14  and  C25_34 
REMARK    8  A    between atoms: C15_16  and  C16_17 
REMARK    9  A    between atoms: C18_20  and  O3_21 
REMARK   10  A    between atoms: O3_21  and  C19_22 
REMARK   11  A    between atoms: C20_25  and  O4_26 
REMARK   12  A    between atoms: C22_28  and  O5_29 
REMARK   13  A    between atoms: C23_31  and  O6_32 
REMARK   14  A    between atoms: C25_34  and  O7_35 
REMARK   15  A    between atoms: C25_34  and  N2_37 
REMARK   16  A    between atoms: N2_37  and  C26_39 
ROOT
HETATM    1  C12 UNL     1      17.943  30.808  15.706  1.00  0.00    -0.007 C 
HETATM    2  C13 UNL     1      18.947  31.382  16.383  1.00  0.00     0.011 C 
ENDROOT
BRANCH   2   3
HETATM    3  C14 UNL     1      18.713  32.767  16.809  1.00  0.00     0.014 C 
HETATM    4  C15 UNL     1      17.784  33.405  17.378  1.00  0.00     0.008 C 
BRANCH   4   5
HETATM    5  C16 UNL     1      17.987  34.888  17.628  1.00  0.00     0.177 C 
HETATM    6  O2  UNL     1      17.647  35.092  18.949  1.00  0.00    -0.368 OA
HETATM    7  C17 UNL     1      16.846  36.187  19.048  1.00  0.00     0.194 C 
HETATM    8  C18 UNL     1      17.634  37.479  18.977  1.00  0.00     0.195 C 
HETATM    9  C22 UNL     1      16.282  36.503  17.695  1.00  0.00     0.143 C 
HETATM   10  C20 UNL     1      16.669  37.940  17.908  1.00  0.00     0.192 C 
HETATM   11  C23 UNL     1      17.114  35.711  16.750  1.00  0.00     0.193 C 
BRANCH   8  12
HETATM   12  O3  UNL     1      18.966  37.333  18.539  1.00  0.00    -0.319 OA
BRANCH  12  13
HETATM   13  C19 UNL     1      19.891  38.254  19.010  1.00  0.00     0.223 C 
HETATM   14  N1  UNL     1      19.528  39.474  19.637  1.00  0.00    -0.063 NA
HETATM   15  S1  UNL     1      21.481  37.884  18.820  1.00  0.00    -0.037 SA
ENDBRANCH  12  13
ENDBRANCH   8  12
BRANCH  10  16
HETATM   16  O4  UNL     1      17.222  38.584  16.825  1.00  0.00    -0.385 OA
HETATM   17  C21 UNL     1      16.896  39.944  16.914  1.00  0.00     0.202 C 
ENDBRANCH  10  16
BRANCH   9  18
HETATM   18  O5  UNL     1      14.906  36.379  17.572  1.00  0.00    -0.382 OA
ATOM     19  H5  UNL     1      14.536  36.685  16.753  1.00  0.00     0.211 HD
ENDBRANCH   9  18
BRANCH  11  20
HETATM   20  O6  UNL     1      16.362  34.854  15.950  1.00  0.00    -0.385 OA
HETATM   21  C24 UNL     1      16.602  35.068  14.594  1.00  0.00     0.202 C 
ENDBRANCH  11  20
ENDBRANCH   4   5
ENDBRANCH   2   3
BRANCH   2  22
HETATM   22  C25 UNL     1      20.133  30.667  16.670  1.00  0.00     0.146 C 
BRANCH  22  23
HETATM   23  O7  UNL     1      20.049  29.773  17.618  1.00  0.00    -0.346 OA
ATOM     24  H7  UNL     1      20.593  29.922  18.383  1.00  0.00     0.219 HD
ENDBRANCH  22  23
BRANCH  22  25
HETATM   25  N2  UNL     1      21.398  30.771  16.089  1.00  0.00    -0.366 N 
ATOM     26  H2  UNL     1      22.098  30.038  16.201  1.00  0.00     0.162 HD
BRANCH  25  27
HETATM   27  C26 UNL     1      21.683  32.005  15.294  1.00  0.00     0.083 A 
HETATM   28  C27 UNL     1      23.003  32.022  14.552  1.00  0.00     0.027 A 
HETATM   29  C28 UNL     1      21.695  31.814  13.844  1.00  0.00     0.027 A 
ENDBRANCH  25  27
ENDBRANCH  22  25
ENDBRANCH   2  22
BRANCH   1  30
HETATM   30  C11 UNL     1      17.762  29.496  15.117  1.00  0.00     0.058 C 
BRANCH  30  31
HETATM   31  C10 UNL     1      17.409  29.667  13.680  1.00  0.00     0.014 C 
HETATM   32  C2  UNL     1      17.595  28.808  12.735  1.00  0.00     0.064 C 
BRANCH  32  33
HETATM   33  O1  UNL     1      17.160  29.236  11.446  1.00  0.00    -0.356 OA
HETATM   34  C1  UNL     1      17.115  28.282  10.406  1.00  0.00     0.210 C 
ENDBRANCH  32  33
BRANCH  32  35
HETATM   35  C3  UNL     1      18.180  27.519  12.917  1.00  0.00     0.033 C 
HETATM   36  C4  UNL     1      19.388  27.106  12.722  1.00  0.00    -0.019 C 
BRANCH  36  37
HETATM   37  C5  UNL     1      20.516  27.877  12.248  1.00  0.00     0.008 C 
HETATM   38  C6  UNL     1      21.441  28.219  13.442  1.00  0.00     0.008 C 
HETATM   39  C7  UNL     1      22.839  28.238  12.887  1.00  0.00     0.001 C 
HETATM   40  C8  UNL     1      22.711  27.902  11.433  1.00  0.00     0.001 C 
HETATM   41  C9  UNL     1      21.489  27.006  11.418  1.00  0.00     0.008 C 
ENDBRANCH  36  37
ENDBRANCH  32  35
ENDBRANCH  30  31
ENDBRANCH   1  30
TORSDOF 16
ENDMDL
MODEL 3
REMARK VINA RESULT: -7.737737190      4.080     10.975
REMARK  16 active torsions:
REMARK  status: ('A' for Active; 'I' for Inactive)
REMARK    1  A    between atoms: O1_2  and  C2_3 
REMARK    2  A    between atoms: C2_3  and  C3_4 
REMARK    3  A    between atoms: C4_5  and  C5_6 
REMARK    4  A    between atoms: C10_11  and  C11_12 
REMARK    5  A    between atoms: C11_12  and  C12_13 
REMARK    6  A    between atoms: C13_14  and  C14_15 
REMARK    7  A    between atoms: C13_14  and  C25_34 
REMARK    8  A    between atoms: C15_16  and  C16_17 
REMARK    9  A    between atoms: C18_20  and  O3_21 
REMARK   10  A    between atoms: O3_21  and  C19_22 
REMARK   11  A    between atoms: C20_25  and  O4_26 
REMARK   12  A    between atoms: C22_28  and  O5_29 
REMARK   13  A    between atoms: C23_31  and  O6_32 
REMARK   14  A    between atoms: C25_34  and  O7_35 
REMARK   15  A    between atoms: C25_34  and  N2_37 
REMARK   16  A    between atoms: N2_37  and  C26_39 
ROOT
HETATM    1  C12 UNL     1      18.026  30.852  15.586  1.00  0.00    -0.007 C 
HETATM    2  C13 UNL     1      18.983  31.410  16.338  1.00  0.00     0.011 C 
ENDROOT
BRANCH   2   3
HETATM    3  C14 UNL     1      18.727  32.789  16.770  1.00  0.00     0.014 C 
HETATM    4  C15 UNL     1      17.764  33.422  17.286  1.00  0.00     0.008 C 
BRANCH   4   5
HETATM    5  C16 UNL     1      17.955  34.900  17.573  1.00  0.00     0.177 C 
HETATM    6  O2  UNL     1      17.630  35.064  18.903  1.00  0.00    -0.368 OA
HETATM    7  C17 UNL     1      16.819  36.148  19.043  1.00  0.00     0.194 C 
HETATM    8  C18 UNL     1      17.592  37.449  18.996  1.00  0.00     0.195 C 
HETATM    9  C22 UNL     1      16.234  36.494  17.706  1.00  0.00     0.143 C 
HETATM   10  C20 UNL     1      16.609  37.929  17.953  1.00  0.00     0.192 C 
HETATM   11  C23 UNL     1      17.062  35.737  16.729  1.00  0.00     0.193 C 
BRANCH   8  12
HETATM   12  O3  UNL     1      18.920  37.330  18.538  1.00  0.00    -0.319 OA
BRANCH  12  13
HETATM   13  C19 UNL     1      19.843  38.242  19.028  1.00  0.00     0.223 C 
HETATM   14  N1  UNL     1      19.478  39.472  19.634  1.00  0.00    -0.063 NA
HETATM   15  S1  UNL     1      21.433  37.850  18.886  1.00  0.00    -0.037 SA
ENDBRANCH  12  13
ENDBRANCH   8  12
BRANCH  10  16
HETATM   16  O4  UNL     1      17.140  38.607  16.880  1.00  0.00    -0.385 OA
HETATM   17  C21 UNL     1      16.795  39.960  17.006  1.00  0.00     0.202 C 
ENDBRANCH  10  16
BRANCH   9  18
HETATM   18  O5  UNL     1      14.857  36.358  17.598  1.00  0.00    -0.382 OA
ATOM     19  H5  UNL     1      14.443  36.886  16.925  1.00  0.00     0.211 HD
ENDBRANCH   9  18
BRANCH  11  20
HETATM   20  O6  UNL     1      16.308  34.893  15.916  1.00  0.00    -0.385 OA
HETATM   21  C24 UNL     1      16.592  35.087  14.565  1.00  0.00     0.202 C 
ENDBRANCH  11  20
ENDBRANCH   4   5
ENDBRANCH   2   3
BRANCH   2  22
HETATM   22  C25 UNL     1      20.145  30.685  16.692  1.00  0.00     0.146 C 
BRANCH  22  23
HETATM   23  O7  UNL     1      19.990  29.759  17.599  1.00  0.00    -0.346 OA
ATOM     24  H7  UNL     1      19.796  28.886  17.277  1.00  0.00     0.219 HD
ENDBRANCH  22  23
BRANCH  22  25
HETATM   25  N2  UNL     1      21.452  30.809  16.214  1.00  0.00    -0.366 N 
ATOM     26  H2  UNL     1      22.195  30.184  16.528  1.00  0.00     0.162 HD
BRANCH  25  27
HETATM   27  C26 UNL     1      21.715  31.897  15.224  1.00  0.00     0.083 A 
HETATM   28  C27 UNL     1      23.143  32.010  14.731  1.00  0.00     0.027 A 
HETATM   29  C28 UNL     1      22.049  31.436  13.876  1.00  0.00     0.027 A 
ENDBRANCH  25  27
ENDBRANCH  22  25
ENDBRANCH   2  22
BRANCH   1  30
HETATM   30  C11 UNL     1      17.879  29.550  14.965  1.00  0.00     0.058 C 
BRANCH  30  31
HETATM   31  C10 UNL     1      18.948  29.392  13.939  1.00  0.00     0.014 C 
HETATM   32  C2  UNL     1      18.779  29.162  12.681  1.00  0.00     0.064 C 
BRANCH  32  33
HETATM   33  O1  UNL     1      19.985  29.056  11.926  1.00  0.00    -0.356 OA
HETATM   34  C1  UNL     1      20.957  28.125  12.352  1.00  0.00     0.210 C 
ENDBRANCH  32  33
BRANCH  32  35
HETATM   35  C3  UNL     1      17.508  29.021  12.048  1.00  0.00     0.033 C 
HETATM   36  C4  UNL     1      17.015  28.050  11.352  1.00  0.00    -0.019 C 
BRANCH  36  37
HETATM   37  C5  UNL     1      17.651  26.795  11.018  1.00  0.00     0.008 C 
HETATM   38  C6  UNL     1      17.543  25.830  12.223  1.00  0.00     0.008 C 
HETATM   39  C7  UNL     1      17.427  24.450  11.636  1.00  0.00     0.001 C 
HETATM   40  C8  UNL     1      17.452  24.630  10.149  1.00  0.00     0.001 C 
HETATM   41  C9  UNL     1      16.822  25.999   9.983  1.00  0.00     0.008 C 
ENDBRANCH  36  37
ENDBRANCH  32  35
ENDBRANCH  30  31
ENDBRANCH   1  30
TORSDOF 16
ENDMDL
MODEL 4
REMARK VINA RESULT: -7.653120229      1.175      1.192
REMARK  16 active torsions:
REMARK  status: ('A' for Active; 'I' for Inactive)
REMARK    1  A    between atoms: O1_2  and  C2_3 
REMARK    2  A    between atoms: C2_3  and  C3_4 
REMARK    3  A    between atoms: C4_5  and  C5_6 
REMARK    4  A    between atoms: C10_11  and  C11_12 
REMARK    5  A    between atoms: C11_12  and  C12_13 
REMARK    6  A    between atoms: C13_14  and  C14_15 
REMARK    7  A    between atoms: C13_14  and  C25_34 
REMARK    8  A    between atoms: C15_16  and  C16_17 
REMARK    9  A    between atoms: C18_20  and  O3_21 
REMARK   10  A    between atoms: O3_21  and  C19_22 
REMARK   11  A    between atoms: C20_25  and  O4_26 
REMARK   12  A    between atoms: C22_28  and  O5_29 
REMARK   13  A    between atoms: C23_31  and  O6_32 
REMARK   14  A    between atoms: C25_34  and  O7_35 
REMARK   15  A    between atoms: C25_34  and  N2_37 
REMARK   16  A    between atoms: N2_37  and  C26_39 
ROOT
HETATM    1  C12 UNL     1      17.945  29.593  14.664  1.00  0.00    -0.007 C 
HETATM    2  C13 UNL     1      19.037  28.850  14.441  1.00  0.00     0.011 C 
ENDROOT
BRANCH   2   3
HETATM    3  C14 UNL     1      18.958  27.935  13.297  1.00  0.00     0.014 C 
HETATM    4  C15 UNL     1      19.733  27.546  12.380  1.00  0.00     0.008 C 
BRANCH   4   5
HETATM    5  C16 UNL     1      19.199  26.548  11.370  1.00  0.00     0.177 C 
HETATM    6  O2  UNL     1      17.987  26.125  11.873  1.00  0.00    -0.368 OA
HETATM    7  C17 UNL     1      17.906  24.769  11.783  1.00  0.00     0.194 C 
HETATM    8  C18 UNL     1      17.566  24.309  10.380  1.00  0.00     0.195 C 
HETATM    9  C22 UNL     1      19.284  24.211  11.590  1.00  0.00     0.143 C 
HETATM   10  C20 UNL     1      18.747  23.369  10.466  1.00  0.00     0.192 C 
HETATM   11  C23 UNL     1      20.114  25.387  11.217  1.00  0.00     0.193 C 
BRANCH   8  12
HETATM   12  O3  UNL     1      17.683  25.305   9.390  1.00  0.00    -0.319 OA
BRANCH  12  13
HETATM   13  C19 UNL     1      16.992  25.101   8.204  1.00  0.00     0.223 C 
HETATM   14  N1  UNL     1      15.840  24.278   8.103  1.00  0.00    -0.063 NA
HETATM   15  S1  UNL     1      17.558  25.867   6.864  1.00  0.00    -0.037 SA
ENDBRANCH  12  13
ENDBRANCH   8  12
BRANCH  10  16
HETATM   16  O4  UNL     1      19.539  23.281   9.345  1.00  0.00    -0.385 OA
HETATM   17  C21 UNL     1      19.227  22.086   8.682  1.00  0.00     0.202 C 
ENDBRANCH  10  16
BRANCH   9  18
HETATM   18  O5  UNL     1      19.758  23.410  12.619  1.00  0.00    -0.382 OA
ATOM     19  H5  UNL     1      20.674  23.163  12.561  1.00  0.00     0.211 HD
ENDBRANCH   9  18
BRANCH  11  20
HETATM   20  O6  UNL     1      21.205  25.573  12.064  1.00  0.00    -0.385 OA
HETATM   21  C24 UNL     1      22.412  25.305  11.419  1.00  0.00     0.202 C 
ENDBRANCH  11  20
ENDBRANCH   4   5
ENDBRANCH   2   3
BRANCH   2  22
HETATM   22  C25 UNL     1      20.183  28.978  15.260  1.00  0.00     0.146 C 
BRANCH  22  23
HETATM   23  O7  UNL     1      20.117  28.410  16.434  1.00  0.00    -0.346 OA
ATOM     24  H7  UNL     1      20.931  28.054  16.773  1.00  0.00     0.219 HD
ENDBRANCH  22  23
BRANCH  22  25
HETATM   25  N2  UNL     1      21.393  29.627  15.004  1.00  0.00    -0.366 N 
ATOM     26  H2  UNL     1      22.252  29.105  14.831  1.00  0.00     0.162 HD
BRANCH  25  27
HETATM   27  C26 UNL     1      21.374  31.122  14.994  1.00  0.00     0.083 A 
HETATM   28  C27 UNL     1      22.500  31.791  14.232  1.00  0.00     0.027 A 
HETATM   29  C28 UNL     1      21.101  31.726  13.690  1.00  0.00     0.027 A 
ENDBRANCH  25  27
ENDBRANCH  22  25
ENDBRANCH   2  22
BRANCH   1  30
HETATM   30  C11 UNL     1      17.607  30.594  15.658  1.00  0.00     0.058 C 
BRANCH  30  31
HETATM   31  C10 UNL     1      17.571  31.928  14.995  1.00  0.00     0.014 C 
HETATM   32  C2  UNL     1      17.835  33.066  15.542  1.00  0.00     0.064 C 
BRANCH  32  33
HETATM   33  O1  UNL     1      17.721  34.187  14.668  1.00  0.00    -0.356 OA
HETATM   34  C1  UNL     1      16.732  35.155  14.950  1.00  0.00     0.210 C 
ENDBRANCH  32  33
BRANCH  32  35
HETATM   35  C3  UNL     1      18.216  33.239  16.906  1.00  0.00     0.033 C 
HETATM   36  C4  UNL     1      19.305  33.702  17.424  1.00  0.00    -0.019 C 
BRANCH  36  37
HETATM   37  C5  UNL     1      20.476  34.188  16.727  1.00  0.00     0.008 C 
HETATM   38  C6  UNL     1      20.632  35.706  16.985  1.00  0.00     0.008 C 
HETATM   39  C7  UNL     1      22.112  35.971  16.995  1.00  0.00     0.001 C 
HETATM   40  C8  UNL     1      22.771  34.645  16.766  1.00  0.00     0.001 C 
HETATM   41  C9  UNL     1      21.779  33.684  17.390  1.00  0.00     0.008 C 
ENDBRANCH  36  37
ENDBRANCH  32  35
ENDBRANCH  30  31
ENDBRANCH   1  30
TORSDOF 16
ENDMDL
MODEL 5
REMARK VINA RESULT: -7.643744564      4.027     10.868
REMARK  16 active torsions:
REMARK  status: ('A' for Active; 'I' for Inactive)
REMARK    1  A    between atoms: O1_2  and  C2_3 
REMARK    2  A    between atoms: C2_3  and  C3_4 
REMARK    3  A    between atoms: C4_5  and  C5_6 
REMARK    4  A    between atoms: C10_11  and  C11_12 
REMARK    5  A    between atoms: C11_12  and  C12_13 
REMARK    6  A    between atoms: C13_14  and  C14_15 
REMARK    7  A    between atoms: C13_14  and  C25_34 
REMARK    8  A    between atoms: C15_16  and  C16_17 
REMARK    9  A    between atoms: C18_20  and  O3_21 
REMARK   10  A    between atoms: O3_21  and  C19_22 
REMARK   11  A    between atoms: C20_25  and  O4_26 
REMARK   12  A    between atoms: C22_28  and  O5_29 
REMARK   13  A    between atoms: C23_31  and  O6_32 
REMARK   14  A    between atoms: C25_34  and  O7_35 
REMARK   15  A    between atoms: C25_34  and  N2_37 
REMARK   16  A    between atoms: N2_37  and  C26_39 
ROOT
HETATM    1  C12 UNL     1      21.319  31.976  14.624  1.00  0.00    -0.007 C 
HETATM    2  C13 UNL     1      20.434  31.940  15.629  1.00  0.00     0.011 C 
ENDROOT
BRANCH   2   3
HETATM    3  C14 UNL     1      20.091  33.240  16.217  1.00  0.00     0.014 C 
HETATM    4  C15 UNL     1      19.328  33.657  17.133  1.00  0.00     0.008 C 
BRANCH   4   5
HETATM    5  C16 UNL     1      19.293  35.149  17.406  1.00  0.00     0.177 C 
HETATM    6  O2  UNL     1      19.713  35.297  18.712  1.00  0.00    -0.368 OA
HETATM    7  C17 UNL     1      18.881  36.154  19.363  1.00  0.00     0.194 C 
HETATM    8  C18 UNL     1      19.178  37.601  19.028  1.00  0.00     0.195 C 
HETATM    9  C22 UNL     1      17.604  36.278  18.587  1.00  0.00     0.143 C 
HETATM   10  C20 UNL     1      17.707  37.772  18.724  1.00  0.00     0.192 C 
HETATM   11  C23 UNL     1      17.920  35.698  17.254  1.00  0.00     0.193 C 
BRANCH   8  12
HETATM   12  O3  UNL     1      20.029  37.788  17.921  1.00  0.00    -0.319 OA
BRANCH  12  13
HETATM   13  C19 UNL     1      21.222  38.459  18.145  1.00  0.00     0.223 C 
HETATM   14  N1  UNL     1      21.674  38.837  19.437  1.00  0.00    -0.063 NA
HETATM   15  S1  UNL     1      22.138  38.823  16.830  1.00  0.00    -0.037 SA
ENDBRANCH  12  13
ENDBRANCH   8  12
BRANCH  10  16
HETATM   16  O4  UNL     1      17.397  38.504  17.602  1.00  0.00    -0.385 OA
HETATM   17  C21 UNL     1      16.434  39.459  17.956  1.00  0.00     0.202 C 
ENDBRANCH  10  16
BRANCH   9  18
HETATM   18  O5  UNL     1      16.465  35.804  19.222  1.00  0.00    -0.382 OA
ATOM     19  H5  UNL     1      15.737  36.411  19.269  1.00  0.00     0.211 HD
ENDBRANCH   9  18
BRANCH  11  20
HETATM   20  O6  UNL     1      17.068  34.655  16.899  1.00  0.00    -0.385 OA
HETATM   21  C24 UNL     1      16.396  34.919  15.706  1.00  0.00     0.202 C 
ENDBRANCH  11  20
ENDBRANCH   4   5
ENDBRANCH   2   3
BRANCH   2  22
HETATM   22  C25 UNL     1      19.870  30.716  16.058  1.00  0.00     0.146 C 
BRANCH  22  23
HETATM   23  O7  UNL     1      20.562  30.041  16.935  1.00  0.00    -0.346 OA
ATOM     24  H7  UNL     1      20.742  30.483  17.757  1.00  0.00     0.219 HD
ENDBRANCH  22  23
BRANCH  22  25
HETATM   25  N2  UNL     1      18.670  30.108  15.682  1.00  0.00    -0.366 N 
ATOM     26  H2  UNL     1      18.430  29.167  15.993  1.00  0.00     0.162 HD
BRANCH  25  27
HETATM   27  C26 UNL     1      17.752  30.898  14.806  1.00  0.00     0.083 A 
HETATM   28  C27 UNL     1      16.729  30.096  14.029  1.00  0.00     0.027 A 
HETATM   29  C28 UNL     1      16.353  30.912  15.233  1.00  0.00     0.027 A 
ENDBRANCH  25  27
ENDBRANCH  22  25
ENDBRANCH   2  22
BRANCH   1  30
HETATM   30  C11 UNL     1      21.919  30.954  13.788  1.00  0.00     0.058 C 
BRANCH  30  31
HETATM   31  C10 UNL     1      20.912  30.512  12.783  1.00  0.00     0.014 C 
HETATM   32  C2  UNL     1      20.442  29.319  12.637  1.00  0.00     0.064 C 
BRANCH  32  33
HETATM   33  O1  UNL     1      19.484  29.180  11.590  1.00  0.00    -0.356 OA
HETATM   34  C1  UNL     1      18.628  28.058  11.615  1.00  0.00     0.210 C 
ENDBRANCH  32  33
BRANCH  32  35
HETATM   35  C3  UNL     1      20.818  28.199  13.437  1.00  0.00     0.033 C 
HETATM   36  C4  UNL     1      21.676  27.259  13.221  1.00  0.00    -0.019 C 
BRANCH  36  37
HETATM   37  C5  UNL     1      22.521  27.087  12.060  1.00  0.00     0.008 C 
HETATM   38  C6  UNL     1      23.982  27.439  12.433  1.00  0.00     0.008 C 
HETATM   39  C7  UNL     1      24.849  26.535  11.601  1.00  0.00     0.001 C 
HETATM   40  C8  UNL     1      23.910  25.690  10.796  1.00  0.00     0.001 C 
HETATM   41  C9  UNL     1      22.705  25.592  11.710  1.00  0.00     0.008 C 
ENDBRANCH  36  37
ENDBRANCH  32  35
ENDBRANCH  30  31
ENDBRANCH   1  30
TORSDOF 16
ENDMDL
