MODEL 1
REMARK VINA RESULT: -7.674151763      0.000      0.000
REMARK  9 active torsions:
REMARK  status: ('A' for Active; 'I' for Inactive)
REMARK    1  A    between atoms: C2_2  and  C3_3 
REMARK    2  A    between atoms: C3_3  and  C4_4 
REMARK    3  A    between atoms: C4_4  and  C5_5 
REMARK    4  A    between atoms: C5_5  and  C6_6 
REMARK    5  A    between atoms: C6_6  and  C7_7 
REMARK    6  A    between atoms: C7_7  and  C8_8 
REMARK    7  A    between atoms: C10_10  and  C11_11 
REMARK    8  A    between atoms: C11_11  and  O1_12 
REMARK    9  A    between atoms: C15_17  and  O2_18 
ROOT
HETATM    1  C8  UNL     1      20.763   6.057  10.641  1.00  0.00    -0.024 A 
HETATM    2  C9  UNL     1      20.244   5.309   9.568  1.00  0.00     0.019 A 
HETATM    3  C10 UNL     1      20.042   5.830   8.316  1.00  0.00    -0.028 A 
HETATM    4  C12 UNL     1      20.346   7.135   8.049  1.00  0.00    -0.051 A 
HETATM    5  C13 UNL     1      20.142   7.733   6.710  1.00  0.00     0.049 C 
HETATM    6  C14 UNL     1      20.853   7.892   9.066  1.00  0.00     0.044 A 
HETATM    7  C15 UNL     1      21.060   7.355  10.351  1.00  0.00     0.075 A 
ENDROOT
BRANCH   1   8
HETATM    8  C7  UNL     1      20.900   5.401  11.959  1.00  0.00     0.041 C 
BRANCH   8   9
HETATM    9  C6  UNL     1      19.988   5.783  13.024  1.00  0.00     0.005 C 
BRANCH   9  10
HETATM   10  C5  UNL     1      20.369   6.245  14.346  1.00  0.00     0.001 C 
BRANCH  10  11
HETATM   11  C4  UNL     1      20.411   7.686  14.664  1.00  0.00     0.004 C 
BRANCH  11  12
HETATM   12  C3  UNL     1      21.857   8.195  14.814  1.00  0.00     0.026 C 
BRANCH  12  13
HETATM   13  C2  UNL     1      21.737   9.579  15.346  1.00  0.00    -0.037 C 
HETATM   14  C1  UNL     1      22.501  10.544  14.865  1.00  0.00     0.007 C 
ENDBRANCH  12  13
ENDBRANCH  11  12
ENDBRANCH  10  11
ENDBRANCH   9  10
ENDBRANCH   8   9
ENDBRANCH   1   8
BRANCH   7  15
HETATM   15  O2  UNL     1      21.582   8.180  11.329  1.00  0.00    -0.355 OA
HETATM   16  C16 UNL     1      21.162   9.520  11.421  1.00  0.00     0.210 C 
ENDBRANCH   7  15
BRANCH   3  17
HETATM   17  C11 UNL     1      19.488   4.937   7.267  1.00  0.00     0.203 C 
BRANCH  17  18
HETATM   18  O1  UNL     1      18.104   4.939   7.253  1.00  0.00    -0.396 OA
ATOM     19  H1  UNL     1      17.751   4.475   6.503  1.00  0.00     0.209 HD
ENDBRANCH  17  18
ENDBRANCH   3  17
TORSDOF 9
ENDMDL
MODEL 2
REMARK VINA RESULT: -7.654347896      1.203      3.240
REMARK  9 active torsions:
REMARK  status: ('A' for Active; 'I' for Inactive)
REMARK    1  A    between atoms: C2_2  and  C3_3 
REMARK    2  A    between atoms: C3_3  and  C4_4 
REMARK    3  A    between atoms: C4_4  and  C5_5 
REMARK    4  A    between atoms: C5_5  and  C6_6 
REMARK    5  A    between atoms: C6_6  and  C7_7 
REMARK    6  A    between atoms: C7_7  and  C8_8 
REMARK    7  A    between atoms: C10_10  and  C11_11 
REMARK    8  A    between atoms: C11_11  and  O1_12 
REMARK    9  A    between atoms: C15_17  and  O2_18 
ROOT
HETATM    1  C8  UNL     1      20.652   5.828  10.049  1.00  0.00    -0.024 A 
HETATM    2  C9  UNL     1      20.737   7.146  10.534  1.00  0.00     0.019 A 
HETATM    3  C10 UNL     1      20.664   8.252   9.726  1.00  0.00    -0.028 A 
HETATM    4  C12 UNL     1      20.499   8.116   8.377  1.00  0.00    -0.051 A 
HETATM    5  C13 UNL     1      20.416   9.286   7.472  1.00  0.00     0.049 C 
HETATM    6  C14 UNL     1      20.411   6.852   7.869  1.00  0.00     0.044 A 
HETATM    7  C15 UNL     1      20.486   5.718   8.700  1.00  0.00     0.075 A 
ENDROOT
BRANCH   1   8
HETATM    8  C7  UNL     1      20.784   4.712  11.009  1.00  0.00     0.041 C 
BRANCH   8   9
HETATM    9  C6  UNL     1      21.381   4.978  12.307  1.00  0.00     0.005 C 
BRANCH   9  10
HETATM   10  C5  UNL     1      20.682   5.461  13.483  1.00  0.00     0.001 C 
BRANCH  10  11
HETATM   11  C4  UNL     1      21.255   6.533  14.320  1.00  0.00     0.004 C 
BRANCH  11  12
HETATM   12  C3  UNL     1      20.428   7.830  14.231  1.00  0.00     0.026 C 
BRANCH  12  13
HETATM   13  C2  UNL     1      21.418   8.938  14.298  1.00  0.00    -0.037 C 
HETATM   14  C1  UNL     1      21.709   9.500  15.458  1.00  0.00     0.007 C 
ENDBRANCH  12  13
ENDBRANCH  11  12
ENDBRANCH  10  11
ENDBRANCH   9  10
ENDBRANCH   8   9
ENDBRANCH   1   8
BRANCH   7  15
HETATM   15  O2  UNL     1      20.383   4.469   8.116  1.00  0.00    -0.355 OA
HETATM   16  C16 UNL     1      19.385   4.219   7.155  1.00  0.00     0.210 C 
ENDBRANCH   7  15
BRANCH   3  17
HETATM   17  C11 UNL     1      20.768   9.591  10.360  1.00  0.00     0.203 C 
BRANCH  17  18
HETATM   18  O1  UNL     1      19.548  10.042  10.835  1.00  0.00    -0.396 OA
ATOM     19  H1  UNL     1      19.178  10.723  10.286  1.00  0.00     0.209 HD
ENDBRANCH  17  18
ENDBRANCH   3  17
TORSDOF 9
ENDMDL
MODEL 3
REMARK VINA RESULT: -7.532313361      3.021      4.681
REMARK  9 active torsions:
REMARK  status: ('A' for Active; 'I' for Inactive)
REMARK    1  A    between atoms: C2_2  and  C3_3 
REMARK    2  A    between atoms: C3_3  and  C4_4 
REMARK    3  A    between atoms: C4_4  and  C5_5 
REMARK    4  A    between atoms: C5_5  and  C6_6 
REMARK    5  A    between atoms: C6_6  and  C7_7 
REMARK    6  A    between atoms: C7_7  and  C8_8 
REMARK    7  A    between atoms: C10_10  and  C11_11 
REMARK    8  A    between atoms: C11_11  and  O1_12 
REMARK    9  A    between atoms: C15_17  and  O2_18 
ROOT
HETATM    1  C8  UNL     1      22.242   8.817  11.824  1.00  0.00    -0.024 A 
HETATM    2  C9  UNL     1      23.585   9.189  11.622  1.00  0.00     0.019 A 
HETATM    3  C10 UNL     1      23.958  10.353  11.002  1.00  0.00    -0.028 A 
HETATM    4  C12 UNL     1      23.016  11.229  10.542  1.00  0.00    -0.051 A 
HETATM    5  C13 UNL     1      23.380  12.496   9.868  1.00  0.00     0.049 C 
HETATM    6  C14 UNL     1      21.702  10.903  10.721  1.00  0.00     0.044 A 
HETATM    7  C15 UNL     1      21.320   9.706  11.358  1.00  0.00     0.075 A 
ENDROOT
BRANCH   1   8
HETATM    8  C7  UNL     1      21.958   7.518  12.468  1.00  0.00     0.041 C 
BRANCH   8   9
HETATM    9  C6  UNL     1      21.922   7.455  13.920  1.00  0.00     0.005 C 
BRANCH   9  10
HETATM   10  C5  UNL     1      21.126   8.301  14.790  1.00  0.00     0.001 C 
BRANCH  10  11
HETATM   11  C4  UNL     1      21.724   9.463  15.475  1.00  0.00     0.004 C 
BRANCH  11  12
HETATM   12  C3  UNL     1      23.262   9.371  15.516  1.00  0.00     0.026 C 
BRANCH  12  13
HETATM   13  C2  UNL     1      23.751  10.674  14.991  1.00  0.00    -0.037 C 
HETATM   14  C1  UNL     1      22.906  11.531  14.446  1.00  0.00     0.007 C 
ENDBRANCH  12  13
ENDBRANCH  11  12
ENDBRANCH  10  11
ENDBRANCH   9  10
ENDBRANCH   8   9
ENDBRANCH   1   8
BRANCH   7  15
HETATM   15  O2  UNL     1      19.971   9.446  11.509  1.00  0.00    -0.355 OA
HETATM   16  C16 UNL     1      19.244   8.856  10.458  1.00  0.00     0.210 C 
ENDBRANCH   7  15
BRANCH   3  17
HETATM   17  C11 UNL     1      25.409  10.632  10.850  1.00  0.00     0.203 C 
BRANCH  17  18
HETATM   18  O1  UNL     1      25.940  10.044   9.715  1.00  0.00    -0.396 OA
ATOM     19  H1  UNL     1      25.408   9.321   9.402  1.00  0.00     0.209 HD
ENDBRANCH  17  18
ENDBRANCH   3  17
TORSDOF 9
ENDMDL
MODEL 4
REMARK VINA RESULT: -7.520177812      1.358      3.856
REMARK  9 active torsions:
REMARK  status: ('A' for Active; 'I' for Inactive)
REMARK    1  A    between atoms: C2_2  and  C3_3 
REMARK    2  A    between atoms: C3_3  and  C4_4 
REMARK    3  A    between atoms: C4_4  and  C5_5 
REMARK    4  A    between atoms: C5_5  and  C6_6 
REMARK    5  A    between atoms: C6_6  and  C7_7 
REMARK    6  A    between atoms: C7_7  and  C8_8 
REMARK    7  A    between atoms: C10_10  and  C11_11 
REMARK    8  A    between atoms: C11_11  and  O1_12 
REMARK    9  A    between atoms: C15_17  and  O2_18 
ROOT
HETATM    1  C8  UNL     1      20.659   6.356   9.101  1.00  0.00    -0.024 A 
HETATM    2  C9  UNL     1      20.872   7.401  10.019  1.00  0.00     0.019 A 
HETATM    3  C10 UNL     1      20.845   8.727   9.670  1.00  0.00    -0.028 A 
HETATM    4  C12 UNL     1      20.600   9.100   8.379  1.00  0.00    -0.051 A 
HETATM    5  C13 UNL     1      20.562  10.521   7.963  1.00  0.00     0.049 C 
HETATM    6  C14 UNL     1      20.387   8.114   7.459  1.00  0.00     0.044 A 
HETATM    7  C15 UNL     1      20.415   6.752   7.819  1.00  0.00     0.075 A 
ENDROOT
BRANCH   1   8
HETATM    8  C7  UNL     1      20.752   4.962   9.583  1.00  0.00     0.041 C 
BRANCH   8   9
HETATM    9  C6  UNL     1      20.376   4.675  10.958  1.00  0.00     0.005 C 
BRANCH   9  10
HETATM   10  C5  UNL     1      21.283   4.572  12.086  1.00  0.00     0.001 C 
BRANCH  10  11
HETATM   11  C4  UNL     1      21.112   5.425  13.278  1.00  0.00     0.004 C 
BRANCH  11  12
HETATM   12  C3  UNL     1      19.752   6.148  13.272  1.00  0.00     0.026 C 
BRANCH  12  13
HETATM   13  C2  UNL     1      20.053   7.563  13.620  1.00  0.00    -0.037 C 
HETATM   14  C1  UNL     1      20.966   7.842  14.533  1.00  0.00     0.007 C 
ENDBRANCH  12  13
ENDBRANCH  11  12
ENDBRANCH  10  11
ENDBRANCH   9  10
ENDBRANCH   8   9
ENDBRANCH   1   8
BRANCH   7  15
HETATM   15  O2  UNL     1      20.185   5.809   6.836  1.00  0.00    -0.355 OA
HETATM   16  C16 UNL     1      18.881   5.335   6.603  1.00  0.00     0.210 C 
ENDBRANCH   7  15
BRANCH   3  17
HETATM   17  C11 UNL     1      21.085   9.736  10.733  1.00  0.00     0.203 C 
BRANCH  17  18
HETATM   18  O1  UNL     1      22.316   9.571  11.344  1.00  0.00    -0.396 OA
ATOM     19  H1  UNL     1      22.451  10.190  12.051  1.00  0.00     0.209 HD
ENDBRANCH  17  18
ENDBRANCH   3  17
TORSDOF 9
ENDMDL
MODEL 5
REMARK VINA RESULT: -7.511191170      1.784      3.107
REMARK  9 active torsions:
REMARK  status: ('A' for Active; 'I' for Inactive)
REMARK    1  A    between atoms: C2_2  and  C3_3 
REMARK    2  A    between atoms: C3_3  and  C4_4 
REMARK    3  A    between atoms: C4_4  and  C5_5 
REMARK    4  A    between atoms: C5_5  and  C6_6 
REMARK    5  A    between atoms: C6_6  and  C7_7 
REMARK    6  A    between atoms: C7_7  and  C8_8 
REMARK    7  A    between atoms: C10_10  and  C11_11 
REMARK    8  A    between atoms: C11_11  and  O1_12 
REMARK    9  A    between atoms: C15_17  and  O2_18 
ROOT
HETATM    1  C8  UNL     1      21.154   8.010  10.360  1.00  0.00    -0.024 A 
HETATM    2  C9  UNL     1      21.050   6.668  10.772  1.00  0.00     0.019 A 
HETATM    3  C10 UNL     1      20.689   5.648   9.931  1.00  0.00    -0.028 A 
HETATM    4  C12 UNL     1      20.408   5.897   8.618  1.00  0.00    -0.051 A 
HETATM    5  C13 UNL     1      20.015   4.821   7.678  1.00  0.00     0.049 C 
HETATM    6  C14 UNL     1      20.499   7.187   8.180  1.00  0.00     0.044 A 
HETATM    7  C15 UNL     1      20.870   8.234   9.045  1.00  0.00     0.075 A 
ENDROOT
BRANCH   1   8
HETATM    8  C7  UNL     1      21.512   9.033  11.365  1.00  0.00     0.041 C 
BRANCH   8   9
HETATM    9  C6  UNL     1      22.751   8.872  12.109  1.00  0.00     0.005 C 
BRANCH   9  10
HETATM   10  C5  UNL     1      22.947   9.181  13.513  1.00  0.00     0.001 C 
BRANCH  10  11
HETATM   11  C4  UNL     1      22.519   8.240  14.565  1.00  0.00     0.004 C 
BRANCH  11  12
HETATM   12  C3  UNL     1      21.109   8.573  15.091  1.00  0.00     0.026 C 
BRANCH  12  13
HETATM   13  C2  UNL     1      20.213   7.540  14.507  1.00  0.00    -0.037 C 
HETATM   14  C1  UNL     1      20.633   6.294  14.375  1.00  0.00     0.007 C 
ENDBRANCH  12  13
ENDBRANCH  11  12
ENDBRANCH  10  11
ENDBRANCH   9  10
ENDBRANCH   8   9
ENDBRANCH   1   8
BRANCH   7  15
HETATM   15  O2  UNL     1      20.946   9.514   8.530  1.00  0.00    -0.355 OA
HETATM   16  C16 UNL     1      19.770  10.240   8.266  1.00  0.00     0.210 C 
ENDBRANCH   7  15
BRANCH   3  17
HETATM   17  C11 UNL     1      20.616   4.273  10.488  1.00  0.00     0.203 C 
BRANCH  17  18
HETATM   18  O1  UNL     1      21.381   4.130  11.633  1.00  0.00    -0.396 OA
ATOM     19  H1  UNL     1      22.192   3.665  11.468  1.00  0.00     0.209 HD
ENDBRANCH  17  18
ENDBRANCH   3  17
TORSDOF 9
ENDMDL
