MODEL 1
REMARK VINA RESULT: -7.925217684      0.000      0.000
REMARK  7 active torsions:
REMARK  status: ('A' for Active; 'I' for Inactive)
REMARK    1  A    between atoms: C2_2  and  C3_3 
REMARK    2  A    between atoms: C3_3  and  C4_4 
REMARK    3  A    between atoms: C4_4  and  O1_6 
REMARK    4  A    between atoms: O1_6  and  C6_7 
REMARK    5  A    between atoms: C6_7  and  C7_8 
REMARK    6  A    between atoms: C11_12  and  O2_13 
REMARK    7  A    between atoms: C12_15  and  C13_16 
ROOT
HETATM    1  C7  UNL     1      20.877   7.885  10.422  1.00  0.00    -0.033 A 
HETATM    2  C8  UNL     1      21.062   6.953  11.421  1.00  0.00     0.019 A 
HETATM    3  C9  UNL     1      21.015   5.594  11.187  1.00  0.00    -0.028 A 
HETATM    4  C10 UNL     1      21.208   4.568  12.241  1.00  0.00     0.051 C 
HETATM    5  C11 UNL     1      20.770   5.173   9.891  1.00  0.00     0.078 A 
HETATM    6  C12 UNL     1      20.577   6.046   8.854  1.00  0.00    -0.021 A 
HETATM    7  C16 UNL     1      20.633   7.399   9.130  1.00  0.00     0.019 A 
ENDROOT
BRANCH   1   8
HETATM    8  C6  UNL     1      20.921   9.319  10.721  1.00  0.00     0.206 C 
BRANCH   8   9
HETATM    9  O1  UNL     1      20.947   9.693  12.026  1.00  0.00    -0.382 OA
BRANCH   9  10
HETATM   10  C4  UNL     1      22.195  10.097  12.525  1.00  0.00     0.117 C 
HETATM   11  C5  UNL     1      22.478  11.435  11.932  1.00  0.00     0.039 C 
BRANCH  10  12
HETATM   12  C3  UNL     1      22.098  10.098  14.007  1.00  0.00     0.031 C 
BRANCH  12  13
HETATM   13  C2  UNL     1      21.584   8.917  14.719  1.00  0.00    -0.002 C 
HETATM   14  C1  UNL     1      22.444   7.722  14.652  1.00  0.00     0.005 C 
ENDBRANCH  12  13
ENDBRANCH  10  12
ENDBRANCH   9  10
ENDBRANCH   8   9
ENDBRANCH   1   8
BRANCH   6  15
HETATM   15  C13 UNL     1      20.301   5.626   7.490  1.00  0.00     0.013 C 
HETATM   16  C14 UNL     1      20.618   6.730   6.477  1.00  0.00     0.015 C 
HETATM   17  C15 UNL     1      18.888   5.183   7.239  1.00  0.00     0.015 C 
ENDBRANCH   6  15
BRANCH   5  18
HETATM   18  O2  UNL     1      20.721   3.833   9.635  1.00  0.00    -0.360 OA
ATOM     19  H2  UNL     1      19.874   3.405   9.603  1.00  0.00     0.217 HD
ENDBRANCH   5  18
TORSDOF 7
ENDMDL
MODEL 2
REMARK VINA RESULT: -7.899503708      1.927      3.360
REMARK  7 active torsions:
REMARK  status: ('A' for Active; 'I' for Inactive)
REMARK    1  A    between atoms: C2_2  and  C3_3 
REMARK    2  A    between atoms: C3_3  and  C4_4 
REMARK    3  A    between atoms: C4_4  and  O1_6 
REMARK    4  A    between atoms: O1_6  and  C6_7 
REMARK    5  A    between atoms: C6_7  and  C7_8 
REMARK    6  A    between atoms: C11_12  and  O2_13 
REMARK    7  A    between atoms: C12_15  and  C13_16 
ROOT
HETATM    1  C7  UNL     1      20.925   7.604  10.620  1.00  0.00    -0.033 A 
HETATM    2  C8  UNL     1      20.934   8.853  10.036  1.00  0.00     0.019 A 
HETATM    3  C9  UNL     1      20.736   9.041   8.683  1.00  0.00    -0.028 A 
HETATM    4  C10 UNL     1      20.743  10.372   8.026  1.00  0.00     0.051 C 
HETATM    5  C11 UNL     1      20.524   7.919   7.902  1.00  0.00     0.078 A 
HETATM    6  C12 UNL     1      20.504   6.651   8.419  1.00  0.00    -0.021 A 
HETATM    7  C16 UNL     1      20.704   6.505   9.779  1.00  0.00     0.019 A 
ENDROOT
BRANCH   1   8
HETATM    8  C6  UNL     1      21.154   7.451  12.060  1.00  0.00     0.206 C 
BRANCH   8   9
HETATM    9  O1  UNL     1      20.167   7.852  12.903  1.00  0.00    -0.382 OA
BRANCH   9  10
HETATM   10  C4  UNL     1      20.326   7.488  14.250  1.00  0.00     0.117 C 
HETATM   11  C5  UNL     1      20.316   5.999  14.294  1.00  0.00     0.039 C 
BRANCH  10  12
HETATM   12  C3  UNL     1      21.592   8.101  14.726  1.00  0.00     0.031 C 
BRANCH  12  13
HETATM   13  C2  UNL     1      21.575   9.398  15.421  1.00  0.00    -0.002 C 
HETATM   14  C1  UNL     1      22.394  10.453  14.800  1.00  0.00     0.005 C 
ENDBRANCH  12  13
ENDBRANCH  10  12
ENDBRANCH   9  10
ENDBRANCH   8   9
ENDBRANCH   1   8
BRANCH   6  15
HETATM   15  C13 UNL     1      20.301   5.457   7.614  1.00  0.00     0.013 C 
HETATM   16  C14 UNL     1      18.865   5.361   7.090  1.00  0.00     0.015 C 
HETATM   17  C15 UNL     1      20.608   4.164   8.313  1.00  0.00     0.015 C 
ENDBRANCH   6  15
BRANCH   5  18
HETATM   18  O2  UNL     1      20.325   8.080   6.562  1.00  0.00    -0.360 OA
ATOM     19  H2  UNL     1      19.605   7.618   6.147  1.00  0.00     0.217 HD
ENDBRANCH   5  18
TORSDOF 7
ENDMDL
MODEL 3
REMARK VINA RESULT: -7.898192421      2.157      3.551
REMARK  7 active torsions:
REMARK  status: ('A' for Active; 'I' for Inactive)
REMARK    1  A    between atoms: C2_2  and  C3_3 
REMARK    2  A    between atoms: C3_3  and  C4_4 
REMARK    3  A    between atoms: C4_4  and  O1_6 
REMARK    4  A    between atoms: O1_6  and  C6_7 
REMARK    5  A    between atoms: C6_7  and  C7_8 
REMARK    6  A    between atoms: C11_12  and  O2_13 
REMARK    7  A    between atoms: C12_15  and  C13_16 
ROOT
HETATM    1  C7  UNL     1      19.578   7.740  10.467  1.00  0.00    -0.033 A 
HETATM    2  C8  UNL     1      19.877   8.951   9.881  1.00  0.00     0.019 A 
HETATM    3  C9  UNL     1      20.271   9.061   8.563  1.00  0.00    -0.028 A 
HETATM    4  C10 UNL     1      20.602  10.349   7.905  1.00  0.00     0.051 C 
HETATM    5  C11 UNL     1      20.362   7.897   7.820  1.00  0.00     0.078 A 
HETATM    6  C12 UNL     1      20.079   6.662   8.342  1.00  0.00    -0.021 A 
HETATM    7  C16 UNL     1      19.688   6.596   9.666  1.00  0.00     0.019 A 
ENDROOT
BRANCH   1   8
HETATM    8  C6  UNL     1      19.178   7.671  11.876  1.00  0.00     0.206 C 
BRANCH   8   9
HETATM    9  O1  UNL     1      19.119   6.444  12.457  1.00  0.00    -0.382 OA
BRANCH   9  10
HETATM   10  C4  UNL     1      19.980   6.239  13.546  1.00  0.00     0.117 C 
HETATM   11  C5  UNL     1      21.234   5.652  12.994  1.00  0.00     0.039 C 
BRANCH  10  12
HETATM   12  C3  UNL     1      20.168   7.552  14.214  1.00  0.00     0.031 C 
BRANCH  12  13
HETATM   13  C2  UNL     1      21.500   7.962  14.686  1.00  0.00    -0.002 C 
HETATM   14  C1  UNL     1      21.544   9.252  15.396  1.00  0.00     0.005 C 
ENDBRANCH  12  13
ENDBRANCH  10  12
ENDBRANCH   9  10
ENDBRANCH   8   9
ENDBRANCH   1   8
BRANCH   6  15
HETATM   15  C13 UNL     1      20.186   5.426   7.586  1.00  0.00     0.013 C 
HETATM   16  C14 UNL     1      18.886   5.096   6.844  1.00  0.00     0.015 C 
HETATM   17  C15 UNL     1      20.554   4.217   8.397  1.00  0.00     0.015 C 
ENDBRANCH   6  15
BRANCH   5  18
HETATM   18  O2  UNL     1      20.747   7.980   6.514  1.00  0.00    -0.360 OA
ATOM     19  H2  UNL     1      20.897   7.177   6.029  1.00  0.00     0.217 HD
ENDBRANCH   5  18
TORSDOF 7
ENDMDL
MODEL 4
REMARK VINA RESULT: -7.884627873      2.120      3.517
REMARK  7 active torsions:
REMARK  status: ('A' for Active; 'I' for Inactive)
REMARK    1  A    between atoms: C2_2  and  C3_3 
REMARK    2  A    between atoms: C3_3  and  C4_4 
REMARK    3  A    between atoms: C4_4  and  O1_6 
REMARK    4  A    between atoms: O1_6  and  C6_7 
REMARK    5  A    between atoms: C6_7  and  C7_8 
REMARK    6  A    between atoms: C11_12  and  O2_13 
REMARK    7  A    between atoms: C12_15  and  C13_16 
ROOT
HETATM    1  C7  UNL     1      19.589   7.798  10.491  1.00  0.00    -0.033 A 
HETATM    2  C8  UNL     1      19.890   9.002   9.891  1.00  0.00     0.019 A 
HETATM    3  C9  UNL     1      20.279   9.097   8.571  1.00  0.00    -0.028 A 
HETATM    4  C10 UNL     1      20.612  10.377   7.899  1.00  0.00     0.051 C 
HETATM    5  C11 UNL     1      20.365   7.925   7.840  1.00  0.00     0.078 A 
HETATM    6  C12 UNL     1      20.080   6.696   8.376  1.00  0.00    -0.021 A 
HETATM    7  C16 UNL     1      19.693   6.645   9.701  1.00  0.00     0.019 A 
ENDROOT
BRANCH   1   8
HETATM    8  C6  UNL     1      19.193   7.744  11.902  1.00  0.00     0.206 C 
BRANCH   8   9
HETATM    9  O1  UNL     1      19.937   8.447  12.795  1.00  0.00    -0.382 OA
BRANCH   9  10
HETATM   10  C4  UNL     1      20.853   7.701  13.553  1.00  0.00     0.117 C 
HETATM   11  C5  UNL     1      21.043   8.436  14.836  1.00  0.00     0.039 C 
BRANCH  10  12
HETATM   12  C3  UNL     1      20.284   6.338  13.714  1.00  0.00     0.031 C 
BRANCH  12  13
HETATM   13  C2  UNL     1      21.141   5.152  13.552  1.00  0.00    -0.002 C 
HETATM   14  C1  UNL     1      21.282   4.666  12.169  1.00  0.00     0.005 C 
ENDBRANCH  12  13
ENDBRANCH  10  12
ENDBRANCH   9  10
ENDBRANCH   8   9
ENDBRANCH   1   8
BRANCH   6  15
HETATM   15  C13 UNL     1      20.181   5.452   7.632  1.00  0.00     0.013 C 
HETATM   16  C14 UNL     1      18.898   5.148   6.851  1.00  0.00     0.015 C 
HETATM   17  C15 UNL     1      20.493   4.241   8.463  1.00  0.00     0.015 C 
ENDBRANCH   6  15
BRANCH   5  18
HETATM   18  O2  UNL     1      20.746   7.993   6.531  1.00  0.00    -0.360 OA
ATOM     19  H2  UNL     1      21.038   7.200   6.098  1.00  0.00     0.217 HD
ENDBRANCH   5  18
TORSDOF 7
ENDMDL
MODEL 5
REMARK VINA RESULT: -7.794536127      0.964      2.991
REMARK  7 active torsions:
REMARK  status: ('A' for Active; 'I' for Inactive)
REMARK    1  A    between atoms: C2_2  and  C3_3 
REMARK    2  A    between atoms: C3_3  and  C4_4 
REMARK    3  A    between atoms: C4_4  and  O1_6 
REMARK    4  A    between atoms: O1_6  and  C6_7 
REMARK    5  A    between atoms: C6_7  and  C7_8 
REMARK    6  A    between atoms: C11_12  and  O2_13 
REMARK    7  A    between atoms: C12_15  and  C13_16 
ROOT
HETATM    1  C7  UNL     1      20.913   8.295   9.776  1.00  0.00    -0.033 A 
HETATM    2  C8  UNL     1      20.700   7.827   8.497  1.00  0.00     0.019 A 
HETATM    3  C9  UNL     1      20.356   6.517   8.233  1.00  0.00    -0.028 A 
HETATM    4  C10 UNL     1      20.123   5.984   6.868  1.00  0.00     0.051 C 
HETATM    5  C11 UNL     1      20.226   5.657   9.310  1.00  0.00     0.078 A 
HETATM    6  C12 UNL     1      20.424   6.058  10.604  1.00  0.00    -0.021 A 
HETATM    7  C16 UNL     1      20.766   7.379  10.825  1.00  0.00     0.019 A 
ENDROOT
BRANCH   1   8
HETATM    8  C6  UNL     1      21.291   9.693  10.007  1.00  0.00     0.206 C 
BRANCH   8   9
HETATM    9  O1  UNL     1      21.199  10.172  11.274  1.00  0.00    -0.382 OA
BRANCH   9  10
HETATM   10  C4  UNL     1      22.406  10.567  11.871  1.00  0.00     0.117 C 
HETATM   11  C5  UNL     1      22.682  11.953  11.399  1.00  0.00     0.039 C 
BRANCH  10  12
HETATM   12  C3  UNL     1      22.231  10.450  13.341  1.00  0.00     0.031 C 
BRANCH  12  13
HETATM   13  C2  UNL     1      21.653   9.229  13.925  1.00  0.00    -0.002 C 
HETATM   14  C1  UNL     1      21.511   9.242  15.392  1.00  0.00     0.005 C 
ENDBRANCH  12  13
ENDBRANCH  10  12
ENDBRANCH   9  10
ENDBRANCH   8   9
ENDBRANCH   1   8
BRANCH   6  15
HETATM   15  C13 UNL     1      20.310   5.168  11.748  1.00  0.00     0.013 C 
HETATM   16  C14 UNL     1      20.009   5.934  13.040  1.00  0.00     0.015 C 
HETATM   17  C15 UNL     1      21.519   4.315  12.008  1.00  0.00     0.015 C 
ENDBRANCH   6  15
BRANCH   5  18
HETATM   18  O2  UNL     1      19.884   4.357   9.074  1.00  0.00    -0.360 OA
ATOM     19  H2  UNL     1      20.466   3.670   9.376  1.00  0.00     0.217 HD
ENDBRANCH   5  18
TORSDOF 7
ENDMDL
