MODEL 1
REMARK VINA RESULT: -7.759001391      0.000      0.000
REMARK  7 active torsions:
REMARK  status: ('A' for Active; 'I' for Inactive)
REMARK    1  A    between atoms: C2_2  and  C3_3 
REMARK    2  A    between atoms: C3_3  and  C4_4 
REMARK    3  A    between atoms: C4_4  and  C5_5 
REMARK    4  A    between atoms: C10_11  and  C11_12 
REMARK    5  A    between atoms: C11_12  and  C12_14 
REMARK    6  A    between atoms: C12_14  and  C13_15 
REMARK    7  A    between atoms: C13_15  and  C15_17 
ROOT
HETATM    1  C5  UNL     1      21.509   9.187  12.105  1.00  0.00    -0.012 A 
HETATM    2  C6  UNL     1      21.875  10.456  11.785  1.00  0.00     0.056 A 
HETATM    3  C7  UNL     1      22.739  11.366  12.564  1.00  0.00     0.077 C 
HETATM    4  O1  UNL     1      21.337  10.836  10.617  1.00  0.00    -0.319 OA
HETATM    5  C8  UNL     1      20.618   9.869  10.135  1.00  0.00     0.064 A 
HETATM    6  C9  UNL     1      19.842   9.884   8.840  1.00  0.00     0.077 C 
HETATM    7  C10 UNL     1      20.679   8.801  11.016  1.00  0.00     0.048 A 
ENDROOT
BRANCH   7   8
HETATM    8  C11 UNL     1      20.013   7.527  10.842  1.00  0.00     0.163 C 
HETATM    9  O2  UNL     1      18.844   7.413  11.249  1.00  0.00    -0.292 OA
BRANCH   8  10
HETATM   10  C12 UNL     1      20.731   6.428  10.194  1.00  0.00     0.088 C 
BRANCH  10  11
HETATM   11  C13 UNL     1      20.489   5.082  10.819  1.00  0.00    -0.012 C 
HETATM   12  C14 UNL     1      21.183   4.859  12.118  1.00  0.00     0.010 C 
BRANCH  11  13
HETATM   13  C15 UNL     1      20.667   3.940   9.840  1.00  0.00     0.000 C 
HETATM   14  C16 UNL     1      20.325   4.448   8.442  1.00  0.00     0.005 C 
ENDBRANCH  11  13
ENDBRANCH  10  11
ENDBRANCH   8  10
ENDBRANCH   7   8
BRANCH   1  15
HETATM   15  C4  UNL     1      21.796   8.289  13.211  1.00  0.00     0.042 C 
BRANCH  15  16
HETATM   16  C3  UNL     1      21.124   8.444  14.499  1.00  0.00     0.004 C 
BRANCH  16  17
HETATM   17  C2  UNL     1      21.675   9.367  15.538  1.00  0.00    -0.004 C 
HETATM   18  C1  UNL     1      23.188   9.389  15.580  1.00  0.00     0.005 C 
ENDBRANCH  16  17
ENDBRANCH  15  16
ENDBRANCH   1  15
TORSDOF 7
ENDMDL
MODEL 2
REMARK VINA RESULT: -7.624178863      1.130      1.667
REMARK  7 active torsions:
REMARK  status: ('A' for Active; 'I' for Inactive)
REMARK    1  A    between atoms: C2_2  and  C3_3 
REMARK    2  A    between atoms: C3_3  and  C4_4 
REMARK    3  A    between atoms: C4_4  and  C5_5 
REMARK    4  A    between atoms: C10_11  and  C11_12 
REMARK    5  A    between atoms: C11_12  and  C12_14 
REMARK    6  A    between atoms: C12_14  and  C13_15 
REMARK    7  A    between atoms: C13_15  and  C15_17 
ROOT
HETATM    1  C5  UNL     1      21.605   8.369  11.691  1.00  0.00    -0.012 A 
HETATM    2  C6  UNL     1      22.541   9.179  11.131  1.00  0.00     0.056 A 
HETATM    3  C7  UNL     1      23.778   9.691  11.756  1.00  0.00     0.077 C 
HETATM    4  O1  UNL     1      22.213   9.499   9.870  1.00  0.00    -0.319 OA
HETATM    5  C8  UNL     1      21.087   8.935   9.558  1.00  0.00     0.064 A 
HETATM    6  C9  UNL     1      20.366   9.039   8.235  1.00  0.00     0.077 C 
HETATM    7  C10 UNL     1      20.646   8.210  10.653  1.00  0.00     0.048 A 
ENDROOT
BRANCH   7   8
HETATM    8  C11 UNL     1      19.425   7.432  10.711  1.00  0.00     0.163 C 
HETATM    9  O2  UNL     1      18.341   8.033  10.635  1.00  0.00    -0.292 OA
BRANCH   8  10
HETATM   10  C12 UNL     1      19.512   5.977  10.850  1.00  0.00     0.088 C 
BRANCH  10  11
HETATM   11  C13 UNL     1      20.462   5.322   9.885  1.00  0.00    -0.012 C 
HETATM   12  C14 UNL     1      19.985   5.268   8.475  1.00  0.00     0.010 C 
BRANCH  11  13
HETATM   13  C15 UNL     1      20.991   3.996  10.392  1.00  0.00     0.000 C 
HETATM   14  C16 UNL     1      21.466   4.186  11.830  1.00  0.00     0.005 C 
ENDBRANCH  11  13
ENDBRANCH  10  11
ENDBRANCH   8  10
ENDBRANCH   7   8
BRANCH   1  15
HETATM   15  C4  UNL     1      21.454   7.724  12.985  1.00  0.00     0.042 C 
BRANCH  15  16
HETATM   16  C3  UNL     1      20.705   8.367  14.062  1.00  0.00     0.004 C 
BRANCH  16  17
HETATM   17  C2  UNL     1      21.408   8.887  15.274  1.00  0.00    -0.004 C 
HETATM   18  C1  UNL     1      22.168  10.172  15.022  1.00  0.00     0.005 C 
ENDBRANCH  16  17
ENDBRANCH  15  16
ENDBRANCH   1  15
TORSDOF 7
ENDMDL
MODEL 3
REMARK VINA RESULT: -7.599555812      1.821      4.478
REMARK  7 active torsions:
REMARK  status: ('A' for Active; 'I' for Inactive)
REMARK    1  A    between atoms: C2_2  and  C3_3 
REMARK    2  A    between atoms: C3_3  and  C4_4 
REMARK    3  A    between atoms: C4_4  and  C5_5 
REMARK    4  A    between atoms: C10_11  and  C11_12 
REMARK    5  A    between atoms: C11_12  and  C12_14 
REMARK    6  A    between atoms: C12_14  and  C13_15 
REMARK    7  A    between atoms: C13_15  and  C15_17 
ROOT
HETATM    1  C5  UNL     1      20.087   6.040  10.707  1.00  0.00    -0.012 A 
HETATM    2  C6  UNL     1      20.539   5.160   9.776  1.00  0.00     0.056 A 
HETATM    3  C7  UNL     1      20.838   3.725   9.966  1.00  0.00     0.077 C 
HETATM    4  O1  UNL     1      20.706   5.755   8.586  1.00  0.00    -0.319 OA
HETATM    5  C8  UNL     1      20.385   7.009   8.679  1.00  0.00     0.064 A 
HETATM    6  C9  UNL     1      20.429   8.033   7.570  1.00  0.00     0.077 C 
HETATM    7  C10 UNL     1      19.986   7.260   9.982  1.00  0.00     0.048 A 
ENDROOT
BRANCH   7   8
HETATM    8  C11 UNL     1      19.547   8.541  10.496  1.00  0.00     0.163 C 
HETATM    9  O2  UNL     1      18.444   8.977  10.126  1.00  0.00    -0.292 OA
BRANCH   8  10
HETATM   10  C12 UNL     1      20.409   9.269  11.429  1.00  0.00     0.088 C 
BRANCH  10  11
HETATM   11  C13 UNL     1      21.835   9.405  10.970  1.00  0.00    -0.012 C 
HETATM   12  C14 UNL     1      22.847   8.788  11.874  1.00  0.00     0.010 C 
BRANCH  11  13
HETATM   13  C15 UNL     1      22.185  10.819  10.554  1.00  0.00     0.000 C 
HETATM   14  C16 UNL     1      22.138  10.896   9.030  1.00  0.00     0.005 C 
ENDBRANCH  11  13
ENDBRANCH  10  11
ENDBRANCH   8  10
ENDBRANCH   7   8
BRANCH   1  15
HETATM   15  C4  UNL     1      19.730   5.948  12.113  1.00  0.00     0.042 C 
BRANCH  15  16
HETATM   16  C3  UNL     1      20.740   5.650  13.126  1.00  0.00     0.004 C 
BRANCH  16  17
HETATM   17  C2  UNL     1      20.580   6.143  14.528  1.00  0.00    -0.004 C 
HETATM   18  C1  UNL     1      20.379   7.641  14.618  1.00  0.00     0.005 C 
ENDBRANCH  16  17
ENDBRANCH  15  16
ENDBRANCH   1  15
TORSDOF 7
ENDMDL
MODEL 4
REMARK VINA RESULT: -7.569515045      1.652      3.130
REMARK  7 active torsions:
REMARK  status: ('A' for Active; 'I' for Inactive)
REMARK    1  A    between atoms: C2_2  and  C3_3 
REMARK    2  A    between atoms: C3_3  and  C4_4 
REMARK    3  A    between atoms: C4_4  and  C5_5 
REMARK    4  A    between atoms: C10_11  and  C11_12 
REMARK    5  A    between atoms: C11_12  and  C12_14 
REMARK    6  A    between atoms: C12_14  and  C13_15 
REMARK    7  A    between atoms: C13_15  and  C15_17 
ROOT
HETATM    1  C5  UNL     1      20.291   8.337  12.389  1.00  0.00    -0.012 A 
HETATM    2  C6  UNL     1      21.118   8.934  13.288  1.00  0.00     0.056 A 
HETATM    3  C7  UNL     1      21.204   8.676  14.739  1.00  0.00     0.077 C 
HETATM    4  O1  UNL     1      21.900   9.848  12.694  1.00  0.00    -0.319 OA
HETATM    5  C8  UNL     1      21.631   9.891  11.425  1.00  0.00     0.064 A 
HETATM    6  C9  UNL     1      22.284  10.784  10.398  1.00  0.00     0.077 C 
HETATM    7  C10 UNL     1      20.631   8.970  11.161  1.00  0.00     0.048 A 
ENDROOT
BRANCH   7   8
HETATM    8  C11 UNL     1      20.047   8.710   9.861  1.00  0.00     0.163 C 
HETATM    9  O2  UNL     1      18.929   9.190   9.611  1.00  0.00    -0.292 OA
BRANCH   8  10
HETATM   10  C12 UNL     1      20.792   7.902   8.893  1.00  0.00     0.088 C 
BRANCH  10  11
HETATM   11  C13 UNL     1      20.080   6.649   8.461  1.00  0.00    -0.012 C 
HETATM   12  C14 UNL     1      20.629   5.387   9.030  1.00  0.00     0.010 C 
BRANCH  11  13
HETATM   13  C15 UNL     1      19.860   6.587   6.963  1.00  0.00     0.000 C 
HETATM   14  C16 UNL     1      18.942   5.405   6.661  1.00  0.00     0.005 C 
ENDBRANCH  11  13
ENDBRANCH  10  11
ENDBRANCH   8  10
ENDBRANCH   7   8
BRANCH   1  15
HETATM   15  C4  UNL     1      19.276   7.300  12.467  1.00  0.00     0.042 C 
BRANCH  15  16
HETATM   16  C3  UNL     1      19.641   5.886  12.419  1.00  0.00     0.004 C 
BRANCH  16  17
HETATM   17  C2  UNL     1      20.970   5.426  12.925  1.00  0.00    -0.004 C 
HETATM   18  C1  UNL     1      21.536   4.257  12.147  1.00  0.00     0.005 C 
ENDBRANCH  16  17
ENDBRANCH  15  16
ENDBRANCH   1  15
TORSDOF 7
ENDMDL
MODEL 5
REMARK VINA RESULT: -7.565041579      1.561      5.005
REMARK  7 active torsions:
REMARK  status: ('A' for Active; 'I' for Inactive)
REMARK    1  A    between atoms: C2_2  and  C3_3 
REMARK    2  A    between atoms: C3_3  and  C4_4 
REMARK    3  A    between atoms: C4_4  and  C5_5 
REMARK    4  A    between atoms: C10_11  and  C11_12 
REMARK    5  A    between atoms: C11_12  and  C12_14 
REMARK    6  A    between atoms: C12_14  and  C13_15 
REMARK    7  A    between atoms: C13_15  and  C15_17 
ROOT
HETATM    1  C5  UNL     1      20.140   6.900   9.293  1.00  0.00    -0.012 A 
HETATM    2  C6  UNL     1      20.221   6.805   7.939  1.00  0.00     0.056 A 
HETATM    3  C7  UNL     1      20.078   5.589   7.114  1.00  0.00     0.077 C 
HETATM    4  O1  UNL     1      20.464   8.001   7.383  1.00  0.00    -0.319 OA
HETATM    5  C8  UNL     1      20.553   8.903   8.312  1.00  0.00     0.064 A 
HETATM    6  C9  UNL     1      20.819  10.376   8.113  1.00  0.00     0.077 C 
HETATM    7  C10 UNL     1      20.360   8.285   9.537  1.00  0.00     0.048 A 
ENDROOT
BRANCH   7   8
HETATM    8  C11 UNL     1      20.380   8.946  10.826  1.00  0.00     0.163 C 
HETATM    9  O2  UNL     1      19.368   9.574  11.181  1.00  0.00    -0.292 OA
BRANCH   8  10
HETATM   10  C12 UNL     1      21.580   8.848  11.659  1.00  0.00     0.088 C 
BRANCH  10  11
HETATM   11  C13 UNL     1      21.482   9.586  12.966  1.00  0.00    -0.012 C 
HETATM   12  C14 UNL     1      22.560  10.585  13.205  1.00  0.00     0.010 C 
BRANCH  11  13
HETATM   13  C15 UNL     1      21.248   8.662  14.144  1.00  0.00     0.000 C 
HETATM   14  C16 UNL     1      21.632   9.406  15.421  1.00  0.00     0.005 C 
ENDBRANCH  11  13
ENDBRANCH  10  11
ENDBRANCH   8  10
ENDBRANCH   7   8
BRANCH   1  15
HETATM   15  C4  UNL     1      19.889   5.958  10.370  1.00  0.00     0.042 C 
BRANCH  15  16
HETATM   16  C3  UNL     1      20.706   4.757  10.523  1.00  0.00     0.004 C 
BRANCH  16  17
HETATM   17  C2  UNL     1      21.347   4.434  11.834  1.00  0.00    -0.004 C 
HETATM   18  C1  UNL     1      20.909   5.348  12.958  1.00  0.00     0.005 C 
ENDBRANCH  16  17
ENDBRANCH  15  16
ENDBRANCH   1  15
TORSDOF 7
ENDMDL
