MODEL 1
REMARK VINA RESULT: -8.691688154      0.000      0.000
REMARK  22 active torsions:
REMARK  status: ('A' for Active; 'I' for Inactive)
REMARK    1  A    between atoms: N1_1  and  C1_5 
REMARK    2  A    between atoms: C3_10  and  O1_11 
REMARK    3  A    between atoms: O1_11  and  C4_12 
REMARK    4  A    between atoms: C5_14  and  C6_15 
REMARK    5  A    between atoms: C6_15  and  O3_16 
REMARK    6  A    between atoms: C7_18  and  O4_19 
REMARK    7  A    between atoms: O4_19  and  C8_20 
REMARK    8  A    between atoms: C10_23  and  O6_24 
REMARK    9  A    between atoms: C11_26  and  O7_27 
REMARK   10  A    between atoms: C12_29  and  O8_30 
REMARK   11  A    between atoms: C13_32  and  O9_33 
REMARK   12  A    between atoms: O9_33  and  C14_34 
REMARK   13  A    between atoms: C14_34  and  C15_35 
REMARK   14  A    between atoms: C15_35  and  C16_36 
REMARK   15  A    between atoms: C16_36  and  C17_37 
REMARK   16  A    between atoms: C18_40  and  O11_41 
REMARK   17  A    between atoms: C19_43  and  O12_44 
REMARK   18  A    between atoms: O12_44  and  C20_45 
REMARK   19  A    between atoms: C21_46  and  N3_47 
REMARK   20  A    between atoms: C23_52  and  O13_53 
REMARK   21  A    between atoms: C24_55  and  O14_56 
REMARK   22  A    between atoms: C25_58  and  O15_59 
ROOT
HETATM    1  C1  UNL     1      12.001  -0.288   2.439  1.00  0.00     0.240 C 
HETATM    2  C2  UNL     1      11.305   1.041   2.641  1.00  0.00     0.270 C 
HETATM    3  N2  UNL     1      10.212   1.194   1.695  1.00  0.00    -0.044 N 
ATOM      4  H21 UNL     1       9.786   2.117   1.776  1.00  0.00     0.280 HD
ATOM      5  H22 UNL     1       9.414   0.618   1.964  1.00  0.00     0.280 HD
HETATM    6  C3  UNL     1      10.599   0.931   0.354  1.00  0.00     0.356 C 
HETATM    7  C18 UNL     1      11.177  -0.427   0.184  1.00  0.00     0.205 C 
HETATM    8  C19 UNL     1      11.136  -1.175   1.501  1.00  0.00     0.187 C 
ENDROOT
BRANCH   6   9
HETATM    9  O1  UNL     1       9.612   1.258  -0.575  1.00  0.00    -0.303 OA
BRANCH   9  10
HETATM   10  C4  UNL     1       9.208   2.596  -0.493  1.00  0.00     0.418 C 
HETATM   11  O2  UNL     1       8.243   2.812  -1.430  1.00  0.00    -0.329 OA
HETATM   12  C5  UNL     1       8.613   3.088  -2.708  1.00  0.00     0.184 C 
HETATM   13  C7  UNL     1       9.843   3.926  -2.878  1.00  0.00     0.211 C 
HETATM   14  C13 UNL     1      10.345   4.361  -1.512  1.00  0.00     0.296 C 
HETATM   15  O10 UNL     1      10.363   3.340  -0.605  1.00  0.00    -0.305 OA
BRANCH  12  16
HETATM   16  C6  UNL     1       7.451   3.689  -3.511  1.00  0.00     0.199 C 
BRANCH  16  17
HETATM   17  O3  UNL     1       7.760   3.806  -4.860  1.00  0.00    -0.398 OA
ATOM     18  H3  UNL     1       7.006   3.631  -5.412  1.00  0.00     0.209 HD
ENDBRANCH  16  17
ENDBRANCH  12  16
BRANCH  13  19
HETATM   19  O4  UNL     1      10.841   3.274  -3.598  1.00  0.00    -0.346 OA
BRANCH  19  20
HETATM   20  C8  UNL     1      11.319   4.074  -4.610  1.00  0.00     0.291 C 
HETATM   21  O5  UNL     1      10.561   5.206  -4.865  1.00  0.00    -0.356 OA
HETATM   22  C9  UNL     1      11.405   6.105  -5.537  1.00  0.00     0.205 C 
HETATM   23  C10 UNL     1      11.618   5.595  -6.940  1.00  0.00     0.173 C 
HETATM   24  C11 UNL     1      12.192   4.211  -6.890  1.00  0.00     0.182 C 
HETATM   25  C12 UNL     1      11.418   3.335  -5.945  1.00  0.00     0.204 C 
BRANCH  23  26
HETATM   26  O6  UNL     1      12.514   6.461  -7.567  1.00  0.00    -0.391 OA
ATOM     27  H6  UNL     1      13.291   6.510  -7.023  1.00  0.00     0.210 HD
ENDBRANCH  23  26
BRANCH  24  28
HETATM   28  O7  UNL     1      12.181   3.598  -8.147  1.00  0.00    -0.390 OA
ATOM     29  H7  UNL     1      12.804   2.882  -8.197  1.00  0.00     0.210 HD
ENDBRANCH  24  28
BRANCH  25  30
HETATM   30  O8  UNL     1      10.137   3.107  -6.400  1.00  0.00    -0.388 OA
ATOM     31  H8  UNL     1      10.126   3.269  -7.337  1.00  0.00     0.210 HD
ENDBRANCH  25  30
ENDBRANCH  19  20
ENDBRANCH  13  19
BRANCH  14  32
HETATM   32  O9  UNL     1       9.598   5.454  -1.109  1.00  0.00    -0.358 OA
BRANCH  32  33
HETATM   33  C14 UNL     1      10.329   6.631  -1.482  1.00  0.00     0.171 C 
BRANCH  33  34
HETATM   34  C15 UNL     1      11.273   7.003  -0.406  1.00  0.00     0.029 C 
BRANCH  34  35
HETATM   35  C16 UNL     1      12.642   7.320  -0.880  1.00  0.00     0.033 C 
BRANCH  35  36
HETATM   36  C17 UNL     1      12.984   6.819  -2.234  1.00  0.00     0.222 C 
HETATM   37  F1  UNL     1      13.085   7.840  -3.133  1.00  0.00    -0.255 F 
ENDBRANCH  35  36
ENDBRANCH  34  35
ENDBRANCH  33  34
ENDBRANCH  32  33
ENDBRANCH  14  32
ENDBRANCH   9  10
ENDBRANCH   6   9
BRANCH   7  38
HETATM   38  O11 UNL     1      12.447  -0.418  -0.376  1.00  0.00    -0.389 OA
ATOM     39  H11 UNL     1      12.439  -0.359  -1.324  1.00  0.00     0.210 HD
ENDBRANCH   7  38
BRANCH   8  40
HETATM   40  O12 UNL     1      11.784  -2.334   1.382  1.00  0.00    -0.371 OA
BRANCH  40  41
HETATM   41  C20 UNL     1      11.267  -3.558   1.586  1.00  0.00     0.183 C 
HETATM   42  C21 UNL     1      11.648  -4.605   0.562  1.00  0.00     0.217 C 
HETATM   43  C22 UNL     1      12.867  -5.412   1.022  1.00  0.00     0.069 C 
HETATM   44  C23 UNL     1      12.417  -6.238   2.178  1.00  0.00     0.151 C 
HETATM   45  C24 UNL     1      11.144  -5.656   2.791  1.00  0.00     0.178 C 
HETATM   46  C25 UNL     1      11.405  -4.166   2.941  1.00  0.00     0.180 C 
BRANCH  42  47
HETATM   47  N3  UNL     1      11.852  -4.084  -0.766  1.00  0.00    -0.072 N 
ATOM     48  H33 UNL     1      10.958  -3.895  -1.217  1.00  0.00     0.274 HD
ATOM     49  H32 UNL     1      12.228  -3.137  -0.724  1.00  0.00     0.274 HD
ATOM     50  H31 UNL     1      12.434  -4.674  -1.361  1.00  0.00     0.274 HD
ENDBRANCH  42  47
BRANCH  44  51
HETATM   51  O13 UNL     1      12.070  -7.506   1.694  1.00  0.00    -0.393 OA
ATOM     52  H13 UNL     1      12.847  -8.052   1.721  1.00  0.00     0.210 HD
ENDBRANCH  44  51
BRANCH  45  53
HETATM   53  O14 UNL     1      11.089  -6.244   4.086  1.00  0.00    -0.390 OA
ATOM     54  H14 UNL     1      11.593  -5.649   4.628  1.00  0.00     0.210 HD
ENDBRANCH  45  53
BRANCH  46  55
HETATM   55  O15 UNL     1      12.672  -4.091   3.493  1.00  0.00    -0.390 OA
ATOM     56  H15 UNL     1      12.950  -4.863   3.971  1.00  0.00     0.210 HD
ENDBRANCH  46  55
ENDBRANCH  40  41
ENDBRANCH   8  40
BRANCH   1  57
HETATM   57  N1  UNL     1      12.125  -0.888   3.750  1.00  0.00    -0.071 N 
ATOM     58  H13 UNL     1      11.504  -0.474   4.445  1.00  0.00     0.274 HD
ATOM     59  H12 UNL     1      11.753  -1.837   3.798  1.00  0.00     0.274 HD
ATOM     60  H11 UNL     1      13.111  -0.828   4.002  1.00  0.00     0.274 HD
ENDBRANCH   1  57
TORSDOF 22
ENDMDL
MODEL 2
REMARK VINA RESULT: -8.596667129      3.346     10.028
REMARK  22 active torsions:
REMARK  status: ('A' for Active; 'I' for Inactive)
REMARK    1  A    between atoms: N1_1  and  C1_5 
REMARK    2  A    between atoms: C3_10  and  O1_11 
REMARK    3  A    between atoms: O1_11  and  C4_12 
REMARK    4  A    between atoms: C5_14  and  C6_15 
REMARK    5  A    between atoms: C6_15  and  O3_16 
REMARK    6  A    between atoms: C7_18  and  O4_19 
REMARK    7  A    between atoms: O4_19  and  C8_20 
REMARK    8  A    between atoms: C10_23  and  O6_24 
REMARK    9  A    between atoms: C11_26  and  O7_27 
REMARK   10  A    between atoms: C12_29  and  O8_30 
REMARK   11  A    between atoms: C13_32  and  O9_33 
REMARK   12  A    between atoms: O9_33  and  C14_34 
REMARK   13  A    between atoms: C14_34  and  C15_35 
REMARK   14  A    between atoms: C15_35  and  C16_36 
REMARK   15  A    between atoms: C16_36  and  C17_37 
REMARK   16  A    between atoms: C18_40  and  O11_41 
REMARK   17  A    between atoms: C19_43  and  O12_44 
REMARK   18  A    between atoms: O12_44  and  C20_45 
REMARK   19  A    between atoms: C21_46  and  N3_47 
REMARK   20  A    between atoms: C23_52  and  O13_53 
REMARK   21  A    between atoms: C24_55  and  O14_56 
REMARK   22  A    between atoms: C25_58  and  O15_59 
ROOT
HETATM    1  C1  UNL     1       8.074   4.886  -6.363  1.00  0.00     0.240 C 
HETATM    2  C2  UNL     1       6.952   4.914  -5.347  1.00  0.00     0.270 C 
HETATM    3  N2  UNL     1       7.471   4.696  -4.007  1.00  0.00    -0.044 N 
ATOM      4  H21 UNL     1       6.713   4.640  -3.327  1.00  0.00     0.280 HD
ATOM      5  H22 UNL     1       7.945   5.530  -3.660  1.00  0.00     0.280 HD
HETATM    6  C3  UNL     1       8.316   3.558  -3.919  1.00  0.00     0.356 C 
HETATM    7  C18 UNL     1       9.464   3.627  -4.860  1.00  0.00     0.205 C 
HETATM    8  C19 UNL     1       9.435   4.939  -5.617  1.00  0.00     0.187 C 
ENDROOT
BRANCH   6   9
HETATM    9  O1  UNL     1       8.663   3.234  -2.608  1.00  0.00    -0.303 OA
BRANCH   9  10
HETATM   10  C4  UNL     1       9.854   3.842  -2.194  1.00  0.00     0.418 C 
HETATM   11  O2  UNL     1      10.861   2.930  -2.297  1.00  0.00    -0.329 OA
HETATM   12  C5  UNL     1      11.057   2.044  -1.285  1.00  0.00     0.184 C 
HETATM   13  C7  UNL     1      10.824   2.558   0.102  1.00  0.00     0.211 C 
HETATM   14  C13 UNL     1      10.502   4.040   0.040  1.00  0.00     0.296 C 
HETATM   15  O10 UNL     1       9.595   4.345  -0.936  1.00  0.00    -0.305 OA
BRANCH  12  16
HETATM   16  C6  UNL     1      12.440   1.385  -1.378  1.00  0.00     0.199 C 
BRANCH  16  17
HETATM   17  O3  UNL     1      13.229   1.680  -0.273  1.00  0.00    -0.398 OA
ATOM     18  H3  UNL     1      13.296   0.941   0.321  1.00  0.00     0.209 HD
ENDBRANCH  16  17
ENDBRANCH  12  16
BRANCH  13  19
HETATM   19  O4  UNL     1       9.829   1.852   0.775  1.00  0.00    -0.346 OA
BRANCH  19  20
HETATM   20  C8  UNL     1      10.376   0.898   1.600  1.00  0.00     0.291 C 
HETATM   21  O5  UNL     1      10.444  -0.374   1.054  1.00  0.00    -0.356 OA
HETATM   22  C9  UNL     1      11.419  -1.069   1.788  1.00  0.00     0.205 C 
HETATM   23  C10 UNL     1      10.851  -1.384   3.149  1.00  0.00     0.173 C 
HETATM   24  C11 UNL     1      10.433  -0.113   3.826  1.00  0.00     0.182 C 
HETATM   25  C12 UNL     1       9.603   0.743   2.911  1.00  0.00     0.204 C 
BRANCH  23  26
HETATM   26  O6  UNL     1      11.857  -2.010   3.886  1.00  0.00    -0.391 OA
ATOM     27  H6  UNL     1      12.160  -1.389   4.538  1.00  0.00     0.210 HD
ENDBRANCH  23  26
BRANCH  24  28
HETATM   28  O7  UNL     1       9.680  -0.361   4.979  1.00  0.00    -0.390 OA
ATOM     29  H7  UNL     1      10.092   0.001   5.754  1.00  0.00     0.210 HD
ENDBRANCH  24  28
BRANCH  25  30
HETATM   30  O8  UNL     1       8.393   0.150   2.622  1.00  0.00    -0.388 OA
ATOM     31  H8  UNL     1       7.821   0.273   3.371  1.00  0.00     0.210 HD
ENDBRANCH  25  30
ENDBRANCH  19  20
ENDBRANCH  13  19
BRANCH  14  32
HETATM   32  O9  UNL     1      11.694   4.735  -0.068  1.00  0.00    -0.358 OA
BRANCH  32  33
HETATM   33  C14 UNL     1      11.376   6.134  -0.027  1.00  0.00     0.171 C 
BRANCH  33  34
HETATM   34  C15 UNL     1      12.393   6.906  -0.775  1.00  0.00     0.029 C 
BRANCH  34  35
HETATM   35  C16 UNL     1      12.614   6.435  -2.163  1.00  0.00     0.033 C 
BRANCH  35  36
HETATM   36  C17 UNL     1      12.177   7.366  -3.233  1.00  0.00     0.222 C 
HETATM   37  F1  UNL     1      13.237   8.027  -3.782  1.00  0.00    -0.255 F 
ENDBRANCH  35  36
ENDBRANCH  34  35
ENDBRANCH  33  34
ENDBRANCH  32  33
ENDBRANCH  14  32
ENDBRANCH   9  10
ENDBRANCH   6   9
BRANCH   7  38
HETATM   38  O11 UNL     1       9.546   2.532  -5.708  1.00  0.00    -0.389 OA
ATOM     39  H11 UNL     1       9.561   2.769  -6.628  1.00  0.00     0.210 HD
ENDBRANCH   7  38
BRANCH   8  40
HETATM   40  O12 UNL     1      10.377   4.938  -6.559  1.00  0.00    -0.371 OA
BRANCH  40  41
HETATM   41  C20 UNL     1      11.513   5.657  -6.548  1.00  0.00     0.183 C 
HETATM   42  C21 UNL     1      12.696   5.018  -7.242  1.00  0.00     0.217 C 
HETATM   43  C22 UNL     1      12.808   5.490  -8.695  1.00  0.00     0.069 C 
HETATM   44  C23 UNL     1      13.200   6.927  -8.645  1.00  0.00     0.151 C 
HETATM   45  C24 UNL     1      12.869   7.527  -7.279  1.00  0.00     0.178 C 
HETATM   46  C25 UNL     1      11.447   7.086  -6.971  1.00  0.00     0.180 C 
BRANCH  42  47
HETATM   47  N3  UNL     1      12.715   3.578  -7.170  1.00  0.00    -0.072 N 
ATOM     48  H33 UNL     1      13.476   3.260  -6.571  1.00  0.00     0.274 HD
ATOM     49  H32 UNL     1      11.918   3.237  -6.633  1.00  0.00     0.274 HD
ATOM     50  H31 UNL     1      12.758   3.116  -8.078  1.00  0.00     0.274 HD
ENDBRANCH  42  47
BRANCH  44  51
HETATM   51  O13 UNL     1      14.592   7.000  -8.774  1.00  0.00    -0.393 OA
ATOM     52  H13 UNL     1      14.957   7.173  -7.914  1.00  0.00     0.210 HD
ENDBRANCH  44  51
BRANCH  45  53
HETATM   53  O14 UNL     1      12.873   8.931  -7.512  1.00  0.00    -0.390 OA
ATOM     54  H14 UNL     1      13.354   9.283  -6.773  1.00  0.00     0.210 HD
ENDBRANCH  45  53
BRANCH  46  55
HETATM   55  O15 UNL     1      10.751   7.321  -8.144  1.00  0.00    -0.390 OA
ATOM     56  H15 UNL     1      10.119   8.029  -8.103  1.00  0.00     0.210 HD
ENDBRANCH  46  55
ENDBRANCH  40  41
ENDBRANCH   8  40
BRANCH   1  57
HETATM   57  N1  UNL     1       7.896   6.054  -7.200  1.00  0.00    -0.071 N 
ATOM     58  H13 UNL     1       7.751   6.913  -6.671  1.00  0.00     0.274 HD
ATOM     59  H12 UNL     1       8.750   6.344  -7.678  1.00  0.00     0.274 HD
ATOM     60  H11 UNL     1       7.131   5.838  -7.838  1.00  0.00     0.274 HD
ENDBRANCH   1  57
TORSDOF 22
ENDMDL
MODEL 3
REMARK VINA RESULT: -8.436723103      2.218      3.664
REMARK  22 active torsions:
REMARK  status: ('A' for Active; 'I' for Inactive)
REMARK    1  A    between atoms: N1_1  and  C1_5 
REMARK    2  A    between atoms: C3_10  and  O1_11 
REMARK    3  A    between atoms: O1_11  and  C4_12 
REMARK    4  A    between atoms: C5_14  and  C6_15 
REMARK    5  A    between atoms: C6_15  and  O3_16 
REMARK    6  A    between atoms: C7_18  and  O4_19 
REMARK    7  A    between atoms: O4_19  and  C8_20 
REMARK    8  A    between atoms: C10_23  and  O6_24 
REMARK    9  A    between atoms: C11_26  and  O7_27 
REMARK   10  A    between atoms: C12_29  and  O8_30 
REMARK   11  A    between atoms: C13_32  and  O9_33 
REMARK   12  A    between atoms: O9_33  and  C14_34 
REMARK   13  A    between atoms: C14_34  and  C15_35 
REMARK   14  A    between atoms: C15_35  and  C16_36 
REMARK   15  A    between atoms: C16_36  and  C17_37 
REMARK   16  A    between atoms: C18_40  and  O11_41 
REMARK   17  A    between atoms: C19_43  and  O12_44 
REMARK   18  A    between atoms: O12_44  and  C20_45 
REMARK   19  A    between atoms: C21_46  and  N3_47 
REMARK   20  A    between atoms: C23_52  and  O13_53 
REMARK   21  A    between atoms: C24_55  and  O14_56 
REMARK   22  A    between atoms: C25_58  and  O15_59 
ROOT
HETATM    1  C1  UNL     1      13.638  -2.145   3.317  1.00  0.00     0.240 C 
HETATM    2  C2  UNL     1      13.530  -1.191   4.489  1.00  0.00     0.270 C 
HETATM    3  N2  UNL     1      12.227  -0.546   4.503  1.00  0.00    -0.044 N 
ATOM      4  H21 UNL     1      12.173   0.151   5.245  1.00  0.00     0.280 HD
ATOM      5  H22 UNL     1      11.505  -1.190   4.826  1.00  0.00     0.280 HD
HETATM    6  C3  UNL     1      11.876   0.021   3.249  1.00  0.00     0.356 C 
HETATM    7  C18 UNL     1      11.892  -0.977   2.148  1.00  0.00     0.205 C 
HETATM    8  C19 UNL     1      12.229  -2.348   2.698  1.00  0.00     0.187 C 
ENDROOT
BRANCH   6   9
HETATM    9  O1  UNL     1      10.722   0.801   3.304  1.00  0.00    -0.303 OA
BRANCH   9  10
HETATM   10  C4  UNL     1      10.984   2.171   3.187  1.00  0.00     0.418 C 
HETATM   11  O2  UNL     1       9.831   2.853   3.440  1.00  0.00    -0.329 OA
HETATM   12  C5  UNL     1       8.930   3.022   2.437  1.00  0.00     0.184 C 
HETATM   13  C7  UNL     1       9.494   3.242   1.067  1.00  0.00     0.211 C 
HETATM   14  C13 UNL     1      11.008   3.319   1.155  1.00  0.00     0.296 C 
HETATM   15  O10 UNL     1      11.544   2.336   1.938  1.00  0.00    -0.305 OA
BRANCH  12  16
HETATM   16  C6  UNL     1       7.919   4.126   2.774  1.00  0.00     0.199 C 
BRANCH  16  17
HETATM   17  O3  UNL     1       8.182   4.711   4.007  1.00  0.00    -0.398 OA
ATOM     18  H3  UNL     1       8.033   4.105   4.724  1.00  0.00     0.209 HD
ENDBRANCH  16  17
ENDBRANCH  12  16
BRANCH  13  19
HETATM   19  O4  UNL     1       9.090   2.268   0.158  1.00  0.00    -0.346 OA
BRANCH  19  20
HETATM   20  C8  UNL     1       9.800   2.364  -1.015  1.00  0.00     0.291 C 
HETATM   21  O5  UNL     1       9.262   3.230  -1.953  1.00  0.00    -0.356 OA
HETATM   22  C9  UNL     1      10.308   3.568  -2.828  1.00  0.00     0.205 C 
HETATM   23  C10 UNL     1      10.602   2.371  -3.696  1.00  0.00     0.173 C 
HETATM   24  C11 UNL     1      10.945   1.195  -2.832  1.00  0.00     0.182 C 
HETATM   25  C12 UNL     1       9.940   1.018  -1.729  1.00  0.00     0.204 C 
BRANCH  23  26
HETATM   26  O6  UNL     1      11.688   2.701  -4.507  1.00  0.00    -0.391 OA
ATOM     27  H6  UNL     1      12.050   1.889  -4.843  1.00  0.00     0.210 HD
ENDBRANCH  23  26
BRANCH  24  28
HETATM   28  O7  UNL     1      10.987   0.005  -3.566  1.00  0.00    -0.390 OA
ATOM     29  H7  UNL     1      10.259  -0.568  -3.354  1.00  0.00     0.210 HD
ENDBRANCH  24  28
BRANCH  25  30
HETATM   30  O8  UNL     1       8.701   0.671  -2.224  1.00  0.00    -0.388 OA
ATOM     31  H8  UNL     1       8.142   0.454  -1.486  1.00  0.00     0.210 HD
ENDBRANCH  25  30
ENDBRANCH  19  20
ENDBRANCH  13  19
BRANCH  14  32
HETATM   32  O9  UNL     1      11.351   4.600   1.553  1.00  0.00    -0.358 OA
BRANCH  32  33
HETATM   33  C14 UNL     1      10.694   5.513   0.662  1.00  0.00     0.171 C 
BRANCH  33  34
HETATM   34  C15 UNL     1      11.658   6.031  -0.333  1.00  0.00     0.029 C 
BRANCH  34  35
HETATM   35  C16 UNL     1      11.643   7.506  -0.483  1.00  0.00     0.033 C 
BRANCH  35  36
HETATM   36  C17 UNL     1      12.348   8.037  -1.675  1.00  0.00     0.222 C 
HETATM   37  F1  UNL     1      13.203   7.113  -2.202  1.00  0.00    -0.255 F 
ENDBRANCH  35  36
ENDBRANCH  34  35
ENDBRANCH  33  34
ENDBRANCH  32  33
ENDBRANCH  14  32
ENDBRANCH   9  10
ENDBRANCH   6   9
BRANCH   7  38
HETATM   38  O11 UNL     1      12.716  -0.617   1.091  1.00  0.00    -0.389 OA
ATOM     39  H11 UNL     1      12.257  -0.550   0.262  1.00  0.00     0.210 HD
ENDBRANCH   7  38
BRANCH   8  40
HETATM   40  O12 UNL     1      12.384  -3.211   1.694  1.00  0.00    -0.371 OA
BRANCH  40  41
HETATM   41  C20 UNL     1      11.629  -4.298   1.456  1.00  0.00     0.183 C 
HETATM   42  C21 UNL     1      11.352  -4.592  -0.002  1.00  0.00     0.217 C 
HETATM   43  C22 UNL     1      12.368  -5.589  -0.569  1.00  0.00     0.069 C 
HETATM   44  C23 UNL     1      12.088  -6.899   0.084  1.00  0.00     0.151 C 
HETATM   45  C24 UNL     1      11.295  -6.696   1.375  1.00  0.00     0.178 C 
HETATM   46  C25 UNL     1      12.006  -5.578   2.122  1.00  0.00     0.180 C 
BRANCH  42  47
HETATM   47  N3  UNL     1      11.268  -3.419  -0.835  1.00  0.00    -0.072 N 
ATOM     48  H33 UNL     1      10.624  -2.739  -0.431  1.00  0.00     0.274 HD
ATOM     49  H32 UNL     1      12.135  -2.884  -0.788  1.00  0.00     0.274 HD
ATOM     50  H31 UNL     1      11.020  -3.613  -1.805  1.00  0.00     0.274 HD
ENDBRANCH  42  47
BRANCH  44  51
HETATM   51  O13 UNL     1      11.258  -7.638  -0.768  1.00  0.00    -0.393 OA
ATOM     52  H13 UNL     1      11.636  -8.505  -0.865  1.00  0.00     0.210 HD
ENDBRANCH  44  51
BRANCH  45  53
HETATM   53  O14 UNL     1      11.485  -7.914   2.087  1.00  0.00    -0.390 OA
ATOM     54  H14 UNL     1      11.115  -7.737   2.944  1.00  0.00     0.210 HD
ENDBRANCH  45  53
BRANCH  46  55
HETATM   55  O15 UNL     1      13.348  -5.909   2.043  1.00  0.00    -0.390 OA
ATOM     56  H15 UNL     1      13.807  -5.932   2.874  1.00  0.00     0.210 HD
ENDBRANCH  46  55
ENDBRANCH  40  41
ENDBRANCH   8  40
BRANCH   1  57
HETATM   57  N1  UNL     1      14.155  -3.388   3.849  1.00  0.00    -0.071 N 
ATOM     58  H13 UNL     1      14.070  -3.461   4.862  1.00  0.00     0.274 HD
ATOM     59  H12 UNL     1      13.581  -4.198   3.615  1.00  0.00     0.274 HD
ATOM     60  H11 UNL     1      15.116  -3.465   3.517  1.00  0.00     0.274 HD
ENDBRANCH   1  57
TORSDOF 22
ENDMDL
MODEL 4
REMARK VINA RESULT: -8.385614407      3.855     10.067
REMARK  22 active torsions:
REMARK  status: ('A' for Active; 'I' for Inactive)
REMARK    1  A    between atoms: N1_1  and  C1_5 
REMARK    2  A    between atoms: C3_10  and  O1_11 
REMARK    3  A    between atoms: O1_11  and  C4_12 
REMARK    4  A    between atoms: C5_14  and  C6_15 
REMARK    5  A    between atoms: C6_15  and  O3_16 
REMARK    6  A    between atoms: C7_18  and  O4_19 
REMARK    7  A    between atoms: O4_19  and  C8_20 
REMARK    8  A    between atoms: C10_23  and  O6_24 
REMARK    9  A    between atoms: C11_26  and  O7_27 
REMARK   10  A    between atoms: C12_29  and  O8_30 
REMARK   11  A    between atoms: C13_32  and  O9_33 
REMARK   12  A    between atoms: O9_33  and  C14_34 
REMARK   13  A    between atoms: C14_34  and  C15_35 
REMARK   14  A    between atoms: C15_35  and  C16_36 
REMARK   15  A    between atoms: C16_36  and  C17_37 
REMARK   16  A    between atoms: C18_40  and  O11_41 
REMARK   17  A    between atoms: C19_43  and  O12_44 
REMARK   18  A    between atoms: O12_44  and  C20_45 
REMARK   19  A    between atoms: C21_46  and  N3_47 
REMARK   20  A    between atoms: C23_52  and  O13_53 
REMARK   21  A    between atoms: C24_55  and  O14_56 
REMARK   22  A    between atoms: C25_58  and  O15_59 
ROOT
HETATM    1  C1  UNL     1       8.099   4.616  -6.439  1.00  0.00     0.240 C 
HETATM    2  C2  UNL     1       7.045   4.411  -5.371  1.00  0.00     0.270 C 
HETATM    3  N2  UNL     1       7.667   4.170  -4.079  1.00  0.00    -0.044 N 
ATOM      4  H21 UNL     1       6.965   3.959  -3.370  1.00  0.00     0.280 HD
ATOM      5  H22 UNL     1       8.043   5.034  -3.689  1.00  0.00     0.280 HD
HETATM    6  C3  UNL     1       8.662   3.158  -4.124  1.00  0.00     0.356 C 
HETATM    7  C18 UNL     1       9.733   3.456  -5.110  1.00  0.00     0.205 C 
HETATM    8  C19 UNL     1       9.482   4.803  -5.757  1.00  0.00     0.187 C 
ENDROOT
BRANCH   6   9
HETATM    9  O1  UNL     1       9.126   2.790  -2.862  1.00  0.00    -0.303 OA
BRANCH   9  10
HETATM   10  C4  UNL     1       8.722   3.673  -1.854  1.00  0.00     0.418 C 
HETATM   11  O2  UNL     1       9.538   4.765  -1.887  1.00  0.00    -0.329 OA
HETATM   12  C5  UNL     1      10.736   4.714  -1.249  1.00  0.00     0.184 C 
HETATM   13  C7  UNL     1      10.771   3.950   0.039  1.00  0.00     0.211 C 
HETATM   14  C13 UNL     1       9.369   3.477   0.380  1.00  0.00     0.296 C 
HETATM   15  O10 UNL     1       8.719   2.932  -0.691  1.00  0.00    -0.305 OA
BRANCH  12  16
HETATM   16  C6  UNL     1      11.323   6.118  -1.045  1.00  0.00     0.199 C 
BRANCH  16  17
HETATM   17  O3  UNL     1      12.356   6.117  -0.117  1.00  0.00    -0.398 OA
ATOM     18  H3  UNL     1      12.741   6.981  -0.016  1.00  0.00     0.209 HD
ENDBRANCH  16  17
ENDBRANCH  12  16
BRANCH  13  19
HETATM   19  O4  UNL     1      11.670   2.886   0.007  1.00  0.00    -0.346 OA
BRANCH  19  20
HETATM   20  C8  UNL     1      11.419   2.001   1.029  1.00  0.00     0.291 C 
HETATM   21  O5  UNL     1      12.360   2.004   2.047  1.00  0.00    -0.356 OA
HETATM   22  C9  UNL     1      11.731   1.444   3.170  1.00  0.00     0.205 C 
HETATM   23  C10 UNL     1      11.583  -0.039   2.938  1.00  0.00     0.173 C 
HETATM   24  C11 UNL     1      10.806  -0.276   1.678  1.00  0.00     0.182 C 
HETATM   25  C12 UNL     1      11.342   0.552   0.544  1.00  0.00     0.204 C 
BRANCH  23  26
HETATM   26  O6  UNL     1      10.894  -0.566   4.031  1.00  0.00    -0.391 OA
ATOM     27  H6  UNL     1      11.472  -0.517   4.782  1.00  0.00     0.210 HD
ENDBRANCH  23  26
BRANCH  24  28
HETATM   28  O7  UNL     1      10.848  -1.618   1.284  1.00  0.00    -0.390 OA
ATOM     29  H7  UNL     1      10.064  -1.873   0.813  1.00  0.00     0.210 HD
ENDBRANCH  24  28
BRANCH  25  30
HETATM   30  O8  UNL     1      12.614   0.157   0.186  1.00  0.00    -0.388 OA
ATOM     31  H8  UNL     1      12.537  -0.623  -0.352  1.00  0.00     0.210 HD
ENDBRANCH  25  30
ENDBRANCH  19  20
ENDBRANCH  13  19
BRANCH  14  32
HETATM   32  O9  UNL     1       8.692   4.531   0.968  1.00  0.00    -0.358 OA
BRANCH  32  33
HETATM   33  C14 UNL     1       8.811   4.373   2.389  1.00  0.00     0.171 C 
BRANCH  33  34
HETATM   34  C15 UNL     1       7.468   4.281   3.003  1.00  0.00     0.029 C 
BRANCH  34  35
HETATM   35  C16 UNL     1       7.371   3.298   4.108  1.00  0.00     0.033 C 
BRANCH  35  36
HETATM   36  C17 UNL     1       8.450   2.281   4.160  1.00  0.00     0.222 C 
HETATM   37  F1  UNL     1       8.274   1.317   3.211  1.00  0.00    -0.255 F 
ENDBRANCH  35  36
ENDBRANCH  34  35
ENDBRANCH  33  34
ENDBRANCH  32  33
ENDBRANCH  14  32
ENDBRANCH   9  10
ENDBRANCH   6   9
BRANCH   7  38
HETATM   38  O11 UNL     1       9.913   2.448  -6.048  1.00  0.00    -0.389 OA
ATOM     39  H11 UNL     1      10.800   2.109  -6.071  1.00  0.00     0.210 HD
ENDBRANCH   7  38
BRANCH   8  40
HETATM   40  O12 UNL     1      10.359   5.002  -6.740  1.00  0.00    -0.371 OA
BRANCH  40  41
HETATM   41  C20 UNL     1      11.498   5.711  -6.657  1.00  0.00     0.183 C 
HETATM   42  C21 UNL     1      12.715   5.064  -7.281  1.00  0.00     0.217 C 
HETATM   43  C22 UNL     1      12.919   5.541  -8.723  1.00  0.00     0.069 C 
HETATM   44  C23 UNL     1      13.320   6.974  -8.642  1.00  0.00     0.151 C 
HETATM   45  C24 UNL     1      12.913   7.571  -7.295  1.00  0.00     0.178 C 
HETATM   46  C25 UNL     1      11.471   7.142  -7.076  1.00  0.00     0.180 C 
BRANCH  42  47
HETATM   47  N3  UNL     1      12.716   3.624  -7.216  1.00  0.00    -0.072 N 
ATOM     48  H33 UNL     1      11.773   3.273  -7.050  1.00  0.00     0.274 HD
ATOM     49  H32 UNL     1      12.889   3.224  -8.138  1.00  0.00     0.274 HD
ATOM     50  H31 UNL     1      13.366   3.238  -6.531  1.00  0.00     0.274 HD
ENDBRANCH  42  47
BRANCH  44  51
HETATM   51  O13 UNL     1      14.718   7.035  -8.686  1.00  0.00    -0.393 OA
ATOM     52  H13 UNL     1      14.977   7.184  -9.588  1.00  0.00     0.210 HD
ENDBRANCH  44  51
BRANCH  45  53
HETATM   53  O14 UNL     1      12.944   8.976  -7.521  1.00  0.00    -0.390 OA
ATOM     54  H14 UNL     1      13.238   9.334  -6.692  1.00  0.00     0.210 HD
ENDBRANCH  45  53
BRANCH  46  55
HETATM   55  O15 UNL     1      10.849   7.389  -8.287  1.00  0.00    -0.390 OA
ATOM     56  H15 UNL     1      10.938   8.277  -8.613  1.00  0.00     0.210 HD
ENDBRANCH  46  55
ENDBRANCH  40  41
ENDBRANCH   8  40
BRANCH   1  57
HETATM   57  N1  UNL     1       7.716   5.805  -7.169  1.00  0.00    -0.071 N 
ATOM     58  H13 UNL     1       7.503   5.627  -8.150  1.00  0.00     0.274 HD
ATOM     59  H12 UNL     1       6.799   6.165  -6.904  1.00  0.00     0.274 HD
ATOM     60  H11 UNL     1       8.468   6.480  -7.035  1.00  0.00     0.274 HD
ENDBRANCH   1  57
TORSDOF 22
ENDMDL
MODEL 5
REMARK VINA RESULT: -8.299532438      3.361      9.885
REMARK  22 active torsions:
REMARK  status: ('A' for Active; 'I' for Inactive)
REMARK    1  A    between atoms: N1_1  and  C1_5 
REMARK    2  A    between atoms: C3_10  and  O1_11 
REMARK    3  A    between atoms: O1_11  and  C4_12 
REMARK    4  A    between atoms: C5_14  and  C6_15 
REMARK    5  A    between atoms: C6_15  and  O3_16 
REMARK    6  A    between atoms: C7_18  and  O4_19 
REMARK    7  A    between atoms: O4_19  and  C8_20 
REMARK    8  A    between atoms: C10_23  and  O6_24 
REMARK    9  A    between atoms: C11_26  and  O7_27 
REMARK   10  A    between atoms: C12_29  and  O8_30 
REMARK   11  A    between atoms: C13_32  and  O9_33 
REMARK   12  A    between atoms: O9_33  and  C14_34 
REMARK   13  A    between atoms: C14_34  and  C15_35 
REMARK   14  A    between atoms: C15_35  and  C16_36 
REMARK   15  A    between atoms: C16_36  and  C17_37 
REMARK   16  A    between atoms: C18_40  and  O11_41 
REMARK   17  A    between atoms: C19_43  and  O12_44 
REMARK   18  A    between atoms: O12_44  and  C20_45 
REMARK   19  A    between atoms: C21_46  and  N3_47 
REMARK   20  A    between atoms: C23_52  and  O13_53 
REMARK   21  A    between atoms: C24_55  and  O14_56 
REMARK   22  A    between atoms: C25_58  and  O15_59 
ROOT
HETATM    1  C1  UNL     1      11.100   1.649  -2.926  1.00  0.00     0.240 C 
HETATM    2  C2  UNL     1      10.793   0.171  -2.815  1.00  0.00     0.270 C 
HETATM    3  N2  UNL     1      10.868  -0.264  -1.429  1.00  0.00    -0.044 N 
ATOM      4  H21 UNL     1      10.735  -1.272  -1.356  1.00  0.00     0.280 HD
ATOM      5  H22 UNL     1      10.053   0.052  -0.904  1.00  0.00     0.280 HD
HETATM    6  C3  UNL     1      12.070   0.137  -0.788  1.00  0.00     0.356 C 
HETATM    7  C18 UNL     1      12.274   1.608  -0.828  1.00  0.00     0.205 C 
HETATM    8  C19 UNL     1      11.094   2.276  -1.505  1.00  0.00     0.187 C 
ENDROOT
BRANCH   6   9
HETATM    9  O1  UNL     1      12.234  -0.434   0.473  1.00  0.00    -0.303 OA
BRANCH   9  10
HETATM   10  C4  UNL     1      11.634   0.315   1.493  1.00  0.00     0.418 C 
HETATM   11  O2  UNL     1      12.269   0.031   2.665  1.00  0.00    -0.329 OA
HETATM   12  C5  UNL     1      11.896  -1.071   3.368  1.00  0.00     0.184 C 
HETATM   13  C7  UNL     1      10.436  -1.406   3.353  1.00  0.00     0.211 C 
HETATM   14  C13 UNL     1       9.681  -0.326   2.598  1.00  0.00     0.296 C 
HETATM   15  O10 UNL     1      10.289   0.023   1.425  1.00  0.00    -0.305 OA
BRANCH  12  16
HETATM   16  C6  UNL     1      12.409  -1.014   4.813  1.00  0.00     0.199 C 
BRANCH  16  17
HETATM   17  O3  UNL     1      11.472  -0.456   5.673  1.00  0.00    -0.398 OA
ATOM     18  H3  UNL     1      11.811  -0.367   6.557  1.00  0.00     0.209 HD
ENDBRANCH  16  17
ENDBRANCH  12  16
BRANCH  13  19
HETATM   19  O4  UNL     1      10.181  -2.667   2.821  1.00  0.00    -0.346 OA
BRANCH  19  20
HETATM   20  C8  UNL     1      11.346  -3.383   2.671  1.00  0.00     0.291 C 
HETATM   21  O5  UNL     1      11.338  -4.298   1.632  1.00  0.00    -0.356 OA
HETATM   22  C9  UNL     1      12.683  -4.564   1.326  1.00  0.00     0.205 C 
HETATM   23  C10 UNL     1      13.260  -5.410   2.433  1.00  0.00     0.173 C 
HETATM   24  C11 UNL     1      13.108  -4.697   3.743  1.00  0.00     0.182 C 
HETATM   25  C12 UNL     1      11.707  -4.184   3.924  1.00  0.00     0.204 C 
BRANCH  23  26
HETATM   26  O6  UNL     1      14.613  -5.603   2.149  1.00  0.00    -0.391 OA
ATOM     27  H6  UNL     1      15.111  -5.175   2.835  1.00  0.00     0.210 HD
ENDBRANCH  23  26
BRANCH  24  28
HETATM   28  O7  UNL     1      13.400  -5.532   4.827  1.00  0.00    -0.390 OA
ATOM     29  H7  UNL     1      13.633  -5.035   5.603  1.00  0.00     0.210 HD
ENDBRANCH  24  28
BRANCH  25  30
HETATM   30  O8  UNL     1      10.801  -5.216   4.042  1.00  0.00    -0.388 OA
ATOM     31  H8  UNL     1      11.247  -5.952   4.446  1.00  0.00     0.210 HD
ENDBRANCH  25  30
ENDBRANCH  19  20
ENDBRANCH  13  19
BRANCH  14  32
HETATM   32  O9  UNL     1       9.477   0.737   3.460  1.00  0.00    -0.358 OA
BRANCH  32  33
HETATM   33  C14 UNL     1       8.453   1.561   2.883  1.00  0.00     0.171 C 
BRANCH  33  34
HETATM   34  C15 UNL     1       8.881   2.977   2.885  1.00  0.00     0.029 C 
BRANCH  34  35
HETATM   35  C16 UNL     1       7.805   3.938   3.225  1.00  0.00     0.033 C 
BRANCH  35  36
HETATM   36  C17 UNL     1       6.778   3.440   4.173  1.00  0.00     0.222 C 
HETATM   37  F1  UNL     1       5.537   3.432   3.606  1.00  0.00    -0.255 F 
ENDBRANCH  35  36
ENDBRANCH  34  35
ENDBRANCH  33  34
ENDBRANCH  32  33
ENDBRANCH  14  32
ENDBRANCH   9  10
ENDBRANCH   6   9
BRANCH   7  38
HETATM   38  O11 UNL     1      13.485   1.980  -1.396  1.00  0.00    -0.389 OA
ATOM     39  H11 UNL     1      13.514   2.893  -1.656  1.00  0.00     0.210 HD
ENDBRANCH   7  38
BRANCH   8  40
HETATM   40  O12 UNL     1      11.345   3.575  -1.669  1.00  0.00    -0.371 OA
BRANCH  40  41
HETATM   41  C20 UNL     1      10.896   4.575  -0.891  1.00  0.00     0.183 C 
HETATM   42  C21 UNL     1      11.365   5.961  -1.277  1.00  0.00     0.217 C 
HETATM   43  C22 UNL     1      10.345   6.659  -2.182  1.00  0.00     0.069 C 
HETATM   44  C23 UNL     1       9.152   6.945  -1.336  1.00  0.00     0.151 C 
HETATM   45  C24 UNL     1       9.145   6.049  -0.098  1.00  0.00     0.178 C 
HETATM   46  C25 UNL     1       9.434   4.645  -0.605  1.00  0.00     0.180 C 
BRANCH  42  47
HETATM   47  N3  UNL     1      12.679   5.996  -1.866  1.00  0.00    -0.072 N 
ATOM     48  H33 UNL     1      13.182   5.131  -1.671  1.00  0.00     0.274 HD
ATOM     49  H32 UNL     1      12.617   5.934  -2.882  1.00  0.00     0.274 HD
ATOM     50  H31 UNL     1      13.239   6.804  -1.591  1.00  0.00     0.274 HD
ENDBRANCH  42  47
BRANCH  44  51
HETATM   51  O13 UNL     1       9.261   8.258  -0.864  1.00  0.00    -0.393 OA
ATOM     52  H13 UNL     1       8.487   8.449  -0.347  1.00  0.00     0.210 HD
ENDBRANCH  44  51
BRANCH  45  53
HETATM   53  O14 UNL     1       7.796   6.104   0.355  1.00  0.00    -0.390 OA
ATOM     54  H14 UNL     1       7.427   5.276   0.071  1.00  0.00     0.210 HD
ENDBRANCH  45  53
BRANCH  46  55
HETATM   55  O15 UNL     1       8.611   4.501  -1.709  1.00  0.00    -0.390 OA
ATOM     56  H15 UNL     1       8.010   3.767  -1.670  1.00  0.00     0.210 HD
ENDBRANCH  46  55
ENDBRANCH  40  41
ENDBRANCH   8  40
BRANCH   1  57
HETATM   57  N1  UNL     1      10.057   2.223  -3.749  1.00  0.00    -0.071 N 
ATOM     58  H13 UNL     1      10.262   2.186  -4.747  1.00  0.00     0.274 HD
ATOM     59  H12 UNL     1       9.206   1.661  -3.775  1.00  0.00     0.274 HD
ATOM     60  H11 UNL     1       9.904   3.170  -3.403  1.00  0.00     0.274 HD
ENDBRANCH   1  57
TORSDOF 22
ENDMDL
