MODEL 1
REMARK VINA RESULT: -7.794977775      0.000      0.000
REMARK  21 active torsions:
REMARK  status: ('A' for Active; 'I' for Inactive)
REMARK    1  A    between atoms: N1_1  and  C1_5 
REMARK    2  A    between atoms: C1_5  and  C2_6 
REMARK    3  A    between atoms: C2_6  and  O1_7 
REMARK    4  A    between atoms: O1_7  and  C3_8 
REMARK    5  A    between atoms: C4_9  and  O2_10 
REMARK    6  A    between atoms: O2_10  and  C5_11 
REMARK    7  A    between atoms: C6_12  and  N2_13 
REMARK    8  A    between atoms: C8_18  and  N3_19 
REMARK    9  A    between atoms: C9_23  and  O3_24 
REMARK   10  A    between atoms: C11_29  and  C12_30 
REMARK   11  A    between atoms: C12_30  and  O5_31 
REMARK   12  A    between atoms: C13_33  and  O6_34 
REMARK   13  A    between atoms: O6_34  and  C14_35 
REMARK   14  A    between atoms: C15_37  and  O8_38 
REMARK   15  A    between atoms: O8_38  and  C16_39 
REMARK   16  A    between atoms: C17_41  and  C18_42 
REMARK   17  A    between atoms: C18_42  and  N4_43 
REMARK   18  A    between atoms: C18_42  and  N5_47 
REMARK   19  A    between atoms: C19_51  and  O10_52 
REMARK   20  A    between atoms: C20_54  and  O11_55 
REMARK   21  A    between atoms: C21_57  and  N6_58 
ROOT
HETATM    1  C3  UNL     1       9.987   0.840   1.129  1.00  0.00     0.208 C 
HETATM    2  C4  UNL     1       9.634   2.269   0.630  1.00  0.00     0.292 C 
HETATM    3  O4  UNL     1      10.351   3.084   1.480  1.00  0.00    -0.348 OA
HETATM    4  C11 UNL     1      11.704   3.013   1.336  1.00  0.00     0.180 C 
HETATM    5  C13 UNL     1      12.291   1.739   0.843  1.00  0.00     0.194 C 
HETATM    6  C15 UNL     1      11.339   0.598   0.604  1.00  0.00     0.190 C 
ENDROOT
BRANCH   6   7
HETATM    7  O8  UNL     1      11.966  -0.586   0.885  1.00  0.00    -0.348 OA
BRANCH   7   8
HETATM    8  C16 UNL     1      11.260  -1.719   1.023  1.00  0.00     0.294 C 
HETATM    9  O9  UNL     1      11.678  -2.603   0.019  1.00  0.00    -0.347 OA
HETATM   10  C17 UNL     1      11.448  -3.937   0.319  1.00  0.00     0.213 C 
HETATM   11  C19 UNL     1      12.399  -4.451   1.377  1.00  0.00     0.182 C 
HETATM   12  C20 UNL     1      12.807  -3.237   2.202  1.00  0.00     0.184 C 
HETATM   13  C21 UNL     1      11.544  -2.404   2.326  1.00  0.00     0.269 C 
BRANCH  10  14
HETATM   14  C18 UNL     1      11.651  -4.771  -0.924  1.00  0.00     0.409 C 
BRANCH  14  15
HETATM   15  N4  UNL     1      11.256  -4.088  -2.132  1.00  0.00    -0.048 N 
ATOM     16  H43 UNL     1      10.244  -4.121  -2.254  1.00  0.00     0.276 HD
ATOM     17  H42 UNL     1      11.380  -3.080  -2.037  1.00  0.00     0.276 HD
ATOM     18  H41 UNL     1      11.734  -4.438  -2.962  1.00  0.00     0.276 HD
ENDBRANCH  14  15
BRANCH  14  19
HETATM   19  N5  UNL     1      10.787  -5.935  -0.794  1.00  0.00    -0.048 N 
ATOM     20  H53 UNL     1       9.865  -5.712  -0.419  1.00  0.00     0.276 HD
ATOM     21  H52 UNL     1      10.474  -6.307  -1.690  1.00  0.00     0.276 HD
ATOM     22  H51 UNL     1      11.296  -6.617  -0.230  1.00  0.00     0.276 HD
ENDBRANCH  14  19
ENDBRANCH  10  14
BRANCH  11  23
HETATM   23  O10 UNL     1      13.467  -5.145   0.880  1.00  0.00    -0.390 OA
ATOM     24  H10 UNL     1      13.417  -6.085   1.012  1.00  0.00     0.210 HD
ENDBRANCH  11  23
BRANCH  12  25
HETATM   25  O11 UNL     1      13.777  -2.475   1.599  1.00  0.00    -0.391 OA
ATOM     26  H11 UNL     1      13.863  -1.608   1.980  1.00  0.00     0.210 HD
ENDBRANCH  12  25
BRANCH  13  27
HETATM   27  N6  UNL     1      11.654  -1.423   3.374  1.00  0.00    -0.068 N 
ATOM     28  H63 UNL     1      11.753  -0.477   3.007  1.00  0.00     0.275 HD
ATOM     29  H62 UNL     1      10.774  -1.295   3.874  1.00  0.00     0.275 HD
ATOM     30  H61 UNL     1      12.419  -1.675   3.999  1.00  0.00     0.275 HD
ENDBRANCH  13  27
ENDBRANCH   7   8
ENDBRANCH   6   7
BRANCH   1  31
HETATM   31  O1  UNL     1       9.831   0.932   2.488  1.00  0.00    -0.377 OA
BRANCH  31  32
HETATM   32  C2  UNL     1       8.531   0.929   2.894  1.00  0.00     0.195 C 
BRANCH  32  33
HETATM   33  C1  UNL     1       8.496   1.696   4.226  1.00  0.00     0.255 C 
BRANCH  33  34
HETATM   34  N1  UNL     1       8.816   3.096   3.998  1.00  0.00    -0.077 N 
ATOM     35  H13 UNL     1       9.504   3.216   3.254  1.00  0.00     0.274 HD
ATOM     36  H12 UNL     1       8.041   3.600   3.567  1.00  0.00     0.274 HD
ATOM     37  H11 UNL     1       9.116   3.529   4.871  1.00  0.00     0.274 HD
ENDBRANCH  33  34
ENDBRANCH  32  33
ENDBRANCH  31  32
ENDBRANCH   1  31
BRANCH   5  38
HETATM   38  O6  UNL     1      12.935   2.046  -0.380  1.00  0.00    -0.318 OA
BRANCH  38  39
HETATM   39  C14 UNL     1      12.673   1.486  -1.581  1.00  0.00     0.398 C 
HETATM   40  O7  UNL     1      12.839   2.150  -2.632  1.00  0.00    -0.276 OA
ENDBRANCH  38  39
ENDBRANCH   5  38
BRANCH   2  41
HETATM   41  O2  UNL     1      10.079   2.454  -0.657  1.00  0.00    -0.350 OA
BRANCH  41  42
HETATM   42  C5  UNL     1       9.036   2.651  -1.562  1.00  0.00     0.172 C 
HETATM   43  C6  UNL     1       9.229   1.826  -2.794  1.00  0.00     0.215 C 
HETATM   44  C7  UNL     1       9.671   2.631  -3.990  1.00  0.00     0.070 C 
HETATM   45  C8  UNL     1       8.829   3.835  -4.264  1.00  0.00     0.215 C 
HETATM   46  C9  UNL     1       8.033   4.298  -3.058  1.00  0.00     0.165 C 
HETATM   47  C10 UNL     1       8.916   4.118  -1.836  1.00  0.00     0.119 C 
HETATM   48 BR1  UNL     1      10.609   4.997  -2.117  1.00  0.00    -0.086 Br
BRANCH  43  49
HETATM   49  N2  UNL     1       8.029   1.069  -3.136  1.00  0.00    -0.072 N 
ATOM     50  H23 UNL     1       7.376   1.034  -2.353  1.00  0.00     0.274 HD
ATOM     51  H22 UNL     1       7.449   1.575  -3.805  1.00  0.00     0.274 HD
ATOM     52  H21 UNL     1       8.252   0.132  -3.472  1.00  0.00     0.274 HD
ENDBRANCH  43  49
BRANCH  45  53
HETATM   53  N3  UNL     1       7.959   3.673  -5.390  1.00  0.00    -0.072 N 
ATOM     54  H33 UNL     1       8.464   3.829  -6.263  1.00  0.00     0.274 HD
ATOM     55  H32 UNL     1       7.707   2.693  -5.515  1.00  0.00     0.274 HD
ATOM     56  H31 UNL     1       7.126   4.259  -5.344  1.00  0.00     0.274 HD
ENDBRANCH  45  53
BRANCH  46  57
HETATM   57  O3  UNL     1       7.786   5.658  -3.208  1.00  0.00    -0.392 OA
ATOM     58  H3  UNL     1       7.590   6.014  -2.350  1.00  0.00     0.210 HD
ENDBRANCH  46  57
ENDBRANCH  41  42
ENDBRANCH   2  41
BRANCH   4  59
HETATM   59  C12 UNL     1      12.323   3.335   2.678  1.00  0.00     0.198 C 
BRANCH  59  60
HETATM   60  O5  UNL     1      11.794   2.571   3.696  1.00  0.00    -0.398 OA
ATOM     61  H5  UNL     1      12.152   2.803   4.546  1.00  0.00     0.209 HD
ENDBRANCH  59  60
ENDBRANCH   4  59
TORSDOF 21
ENDMDL
MODEL 2
REMARK VINA RESULT: -7.399776501      1.462      1.705
REMARK  21 active torsions:
REMARK  status: ('A' for Active; 'I' for Inactive)
REMARK    1  A    between atoms: N1_1  and  C1_5 
REMARK    2  A    between atoms: C1_5  and  C2_6 
REMARK    3  A    between atoms: C2_6  and  O1_7 
REMARK    4  A    between atoms: O1_7  and  C3_8 
REMARK    5  A    between atoms: C4_9  and  O2_10 
REMARK    6  A    between atoms: O2_10  and  C5_11 
REMARK    7  A    between atoms: C6_12  and  N2_13 
REMARK    8  A    between atoms: C8_18  and  N3_19 
REMARK    9  A    between atoms: C9_23  and  O3_24 
REMARK   10  A    between atoms: C11_29  and  C12_30 
REMARK   11  A    between atoms: C12_30  and  O5_31 
REMARK   12  A    between atoms: C13_33  and  O6_34 
REMARK   13  A    between atoms: O6_34  and  C14_35 
REMARK   14  A    between atoms: C15_37  and  O8_38 
REMARK   15  A    between atoms: O8_38  and  C16_39 
REMARK   16  A    between atoms: C17_41  and  C18_42 
REMARK   17  A    between atoms: C18_42  and  N4_43 
REMARK   18  A    between atoms: C18_42  and  N5_47 
REMARK   19  A    between atoms: C19_51  and  O10_52 
REMARK   20  A    between atoms: C20_54  and  O11_55 
REMARK   21  A    between atoms: C21_57  and  N6_58 
ROOT
HETATM    1  C3  UNL     1       9.800   1.320   1.934  1.00  0.00     0.208 C 
HETATM    2  C4  UNL     1       9.346   2.379   0.890  1.00  0.00     0.292 C 
HETATM    3  O4  UNL     1       9.866   3.553   1.389  1.00  0.00    -0.348 OA
HETATM    4  C11 UNL     1      11.226   3.633   1.365  1.00  0.00     0.180 C 
HETATM    5  C13 UNL     1      12.005   2.370   1.451  1.00  0.00     0.194 C 
HETATM    6  C15 UNL     1      11.221   1.097   1.628  1.00  0.00     0.190 C 
ENDROOT
BRANCH   6   7
HETATM    7  O8  UNL     1      11.942   0.219   2.390  1.00  0.00    -0.348 OA
BRANCH   7   8
HETATM    8  C16 UNL     1      11.477  -1.017   2.635  1.00  0.00     0.294 C 
HETATM    9  O9  UNL     1      12.354  -1.926   2.025  1.00  0.00    -0.347 OA
HETATM   10  C17 UNL     1      12.324  -3.192   2.590  1.00  0.00     0.213 C 
HETATM   11  C19 UNL     1      12.995  -3.222   3.946  1.00  0.00     0.182 C 
HETATM   12  C20 UNL     1      12.874  -1.811   4.508  1.00  0.00     0.184 C 
HETATM   13  C21 UNL     1      11.489  -1.344   4.098  1.00  0.00     0.269 C 
BRANCH  10  14
HETATM   14  C18 UNL     1      13.063  -4.156   1.692  1.00  0.00     0.409 C 
BRANCH  14  15
HETATM   15  N4  UNL     1      12.613  -4.109   0.322  1.00  0.00    -0.048 N 
ATOM     16  H43 UNL     1      11.656  -4.452   0.242  1.00  0.00     0.276 HD
ATOM     17  H42 UNL     1      12.470  -3.145   0.020  1.00  0.00     0.276 HD
ATOM     18  H41 UNL     1      13.233  -4.604  -0.318  1.00  0.00     0.276 HD
ENDBRANCH  14  15
BRANCH  14  19
HETATM   19  N5  UNL     1      12.773  -5.495   2.187  1.00  0.00    -0.048 N 
ATOM     20  H53 UNL     1      12.787  -5.559   3.205  1.00  0.00     0.276 HD
ATOM     21  H52 UNL     1      11.801  -5.771   2.054  1.00  0.00     0.276 HD
ATOM     22  H51 UNL     1      13.437  -6.125   1.735  1.00  0.00     0.276 HD
ENDBRANCH  14  19
ENDBRANCH  10  14
BRANCH  11  23
HETATM   23  O10 UNL     1      14.283  -3.681   3.923  1.00  0.00    -0.390 OA
ATOM     24  H10 UNL     1      14.573  -4.070   4.740  1.00  0.00     0.210 HD
ENDBRANCH  11  23
BRANCH  12  25
HETATM   25  O11 UNL     1      13.801  -0.941   3.989  1.00  0.00    -0.391 OA
ATOM     26  H11 UNL     1      13.538  -0.565   3.157  1.00  0.00     0.210 HD
ENDBRANCH  12  25
BRANCH  13  27
HETATM   27  N6  UNL     1      11.071  -0.192   4.853  1.00  0.00    -0.068 N 
ATOM     28  H63 UNL     1      10.493  -0.447   5.654  1.00  0.00     0.275 HD
ATOM     29  H62 UNL     1      11.844   0.236   5.362  1.00  0.00     0.275 HD
ATOM     30  H61 UNL     1      10.602   0.470   4.236  1.00  0.00     0.275 HD
ENDBRANCH  13  27
ENDBRANCH   7   8
ENDBRANCH   6   7
BRANCH   1  31
HETATM   31  O1  UNL     1       9.483   1.902   3.133  1.00  0.00    -0.377 OA
BRANCH  31  32
HETATM   32  C2  UNL     1       8.193   1.697   3.522  1.00  0.00     0.195 C 
BRANCH  32  33
HETATM   33  C1  UNL     1       7.853   2.834   4.499  1.00  0.00     0.255 C 
BRANCH  33  34
HETATM   34  N1  UNL     1       8.294   4.106   3.949  1.00  0.00    -0.077 N 
ATOM     35  H13 UNL     1       8.093   4.183   2.953  1.00  0.00     0.274 HD
ATOM     36  H12 UNL     1       7.722   4.883   4.278  1.00  0.00     0.274 HD
ATOM     37  H11 UNL     1       9.284   4.246   4.152  1.00  0.00     0.274 HD
ENDBRANCH  33  34
ENDBRANCH  32  33
ENDBRANCH  31  32
ENDBRANCH   1  31
BRANCH   5  38
HETATM   38  O6  UNL     1      12.743   2.275   0.248  1.00  0.00    -0.318 OA
BRANCH  38  39
HETATM   39  C14 UNL     1      12.602   1.324  -0.702  1.00  0.00     0.398 C 
HETATM   40  O7  UNL     1      13.057   1.516  -1.854  1.00  0.00    -0.276 OA
ENDBRANCH  38  39
ENDBRANCH   5  38
BRANCH   2  41
HETATM   41  O2  UNL     1       9.909   2.118  -0.336  1.00  0.00    -0.350 OA
BRANCH  41  42
HETATM   42  C5  UNL     1       8.997   2.249  -1.384  1.00  0.00     0.172 C 
HETATM   43  C6  UNL     1       9.305   1.289  -2.488  1.00  0.00     0.215 C 
HETATM   44  C7  UNL     1       9.928   1.946  -3.694  1.00  0.00     0.070 C 
HETATM   45  C8  UNL     1       9.181   3.139  -4.198  1.00  0.00     0.215 C 
HETATM   46  C9  UNL     1       8.263   3.754  -3.159  1.00  0.00     0.165 C 
HETATM   47  C10 UNL     1       8.977   3.681  -1.822  1.00  0.00     0.119 C 
HETATM   48 BR1  UNL     1      10.730   4.470  -1.971  1.00  0.00    -0.086 Br
BRANCH  43  49
HETATM   49  N2  UNL     1       8.124   0.537  -2.901  1.00  0.00    -0.072 N 
ATOM     50  H23 UNL     1       7.722   0.019  -2.121  1.00  0.00     0.274 HD
ATOM     51  H22 UNL     1       7.341   1.159  -3.102  1.00  0.00     0.274 HD
ATOM     52  H21 UNL     1       8.321  -0.077  -3.691  1.00  0.00     0.274 HD
ENDBRANCH  43  49
BRANCH  45  53
HETATM   53  N3  UNL     1       8.453   2.883  -5.404  1.00  0.00    -0.072 N 
ATOM     54  H33 UNL     1       7.916   2.019  -5.327  1.00  0.00     0.274 HD
ATOM     55  H32 UNL     1       7.687   3.549  -5.512  1.00  0.00     0.274 HD
ATOM     56  H31 UNL     1       9.042   2.870  -6.236  1.00  0.00     0.274 HD
ENDBRANCH  45  53
BRANCH  46  57
HETATM   57  O3  UNL     1       8.098   5.097  -3.479  1.00  0.00    -0.392 OA
ATOM     58  H3  UNL     1       7.232   5.202  -3.856  1.00  0.00     0.210 HD
ENDBRANCH  46  57
ENDBRANCH  41  42
ENDBRANCH   2  41
BRANCH   4  59
HETATM   59  C12 UNL     1      11.650   4.533   2.504  1.00  0.00     0.198 C 
BRANCH  59  60
HETATM   60  O5  UNL     1      12.598   3.944   3.313  1.00  0.00    -0.398 OA
ATOM     61  H5  UNL     1      13.415   4.429   3.326  1.00  0.00     0.209 HD
ENDBRANCH  59  60
ENDBRANCH   4  59
TORSDOF 21
ENDMDL
MODEL 3
REMARK VINA RESULT: -7.375202743      1.591      2.747
REMARK  21 active torsions:
REMARK  status: ('A' for Active; 'I' for Inactive)
REMARK    1  A    between atoms: N1_1  and  C1_5 
REMARK    2  A    between atoms: C1_5  and  C2_6 
REMARK    3  A    between atoms: C2_6  and  O1_7 
REMARK    4  A    between atoms: O1_7  and  C3_8 
REMARK    5  A    between atoms: C4_9  and  O2_10 
REMARK    6  A    between atoms: O2_10  and  C5_11 
REMARK    7  A    between atoms: C6_12  and  N2_13 
REMARK    8  A    between atoms: C8_18  and  N3_19 
REMARK    9  A    between atoms: C9_23  and  O3_24 
REMARK   10  A    between atoms: C11_29  and  C12_30 
REMARK   11  A    between atoms: C12_30  and  O5_31 
REMARK   12  A    between atoms: C13_33  and  O6_34 
REMARK   13  A    between atoms: O6_34  and  C14_35 
REMARK   14  A    between atoms: C15_37  and  O8_38 
REMARK   15  A    between atoms: O8_38  and  C16_39 
REMARK   16  A    between atoms: C17_41  and  C18_42 
REMARK   17  A    between atoms: C18_42  and  N4_43 
REMARK   18  A    between atoms: C18_42  and  N5_47 
REMARK   19  A    between atoms: C19_51  and  O10_52 
REMARK   20  A    between atoms: C20_54  and  O11_55 
REMARK   21  A    between atoms: C21_57  and  N6_58 
ROOT
HETATM    1  C3  UNL     1       9.289   1.845   0.699  1.00  0.00     0.208 C 
HETATM    2  C4  UNL     1       9.546   3.308   0.244  1.00  0.00     0.292 C 
HETATM    3  O4  UNL     1      10.368   3.805   1.232  1.00  0.00    -0.348 OA
HETATM    4  C11 UNL     1      11.612   3.252   1.274  1.00  0.00     0.180 C 
HETATM    5  C13 UNL     1      11.777   1.856   0.791  1.00  0.00     0.194 C 
HETATM    6  C15 UNL     1      10.530   1.136   0.354  1.00  0.00     0.190 C 
ENDROOT
BRANCH   6   7
HETATM    7  O8  UNL     1      10.646  -0.196   0.647  1.00  0.00    -0.348 OA
BRANCH   7   8
HETATM    8  C16 UNL     1      11.812  -0.704   1.074  1.00  0.00     0.294 C 
HETATM    9  O9  UNL     1      11.819  -0.628   2.474  1.00  0.00    -0.347 OA
HETATM   10  C17 UNL     1      12.672  -1.540   3.078  1.00  0.00     0.213 C 
HETATM   11  C19 UNL     1      12.131  -2.952   3.007  1.00  0.00     0.182 C 
HETATM   12  C20 UNL     1      11.233  -2.998   1.777  1.00  0.00     0.184 C 
HETATM   13  C21 UNL     1      11.951  -2.159   0.736  1.00  0.00     0.269 C 
BRANCH  10  14
HETATM   14  C18 UNL     1      12.832  -1.183   4.537  1.00  0.00     0.409 C 
BRANCH  14  15
HETATM   15  N4  UNL     1      11.650  -0.580   5.103  1.00  0.00    -0.048 N 
ATOM     16  H43 UNL     1      11.896   0.072   5.847  1.00  0.00     0.276 HD
ATOM     17  H42 UNL     1      11.223   0.072   4.444  1.00  0.00     0.276 HD
ATOM     18  H41 UNL     1      10.970  -1.266   5.429  1.00  0.00     0.276 HD
ENDBRANCH  14  15
BRANCH  14  19
HETATM   19  N5  UNL     1      13.892  -0.188   4.611  1.00  0.00    -0.048 N 
ATOM     20  H53 UNL     1      14.759  -0.552   5.007  1.00  0.00     0.276 HD
ATOM     21  H52 UNL     1      14.267   0.069   3.698  1.00  0.00     0.276 HD
ATOM     22  H51 UNL     1      13.514   0.605   5.129  1.00  0.00     0.276 HD
ENDBRANCH  14  19
ENDBRANCH  10  14
BRANCH  11  23
HETATM   23  O10 UNL     1      11.501  -3.367   4.147  1.00  0.00    -0.390 OA
ATOM     24  H10 UNL     1      11.283  -2.665   4.749  1.00  0.00     0.210 HD
ENDBRANCH  11  23
BRANCH  12  25
HETATM   25  O11 UNL     1       9.990  -2.457   1.995  1.00  0.00    -0.391 OA
ATOM     26  H11 UNL     1       9.280  -3.058   1.799  1.00  0.00     0.210 HD
ENDBRANCH  12  25
BRANCH  13  27
HETATM   27  N6  UNL     1      11.436  -2.398  -0.587  1.00  0.00    -0.068 N 
ATOM     28  H63 UNL     1      11.441  -1.555  -1.160  1.00  0.00     0.275 HD
ATOM     29  H62 UNL     1      12.072  -2.962  -1.151  1.00  0.00     0.275 HD
ATOM     30  H61 UNL     1      10.508  -2.814  -0.523  1.00  0.00     0.275 HD
ENDBRANCH  13  27
ENDBRANCH   7   8
ENDBRANCH   6   7
BRANCH   1  31
HETATM   31  O1  UNL     1       8.972   1.978   2.026  1.00  0.00    -0.377 OA
BRANCH  31  32
HETATM   32  C2  UNL     1       8.660   0.801   2.638  1.00  0.00     0.195 C 
BRANCH  32  33
HETATM   33  C1  UNL     1       8.972   0.999   4.131  1.00  0.00     0.255 C 
BRANCH  33  34
HETATM   34  N1  UNL     1       9.307   2.390   4.386  1.00  0.00    -0.077 N 
ATOM     35  H13 UNL     1       9.559   2.886   3.531  1.00  0.00     0.274 HD
ATOM     36  H12 UNL     1       8.488   2.941   4.642  1.00  0.00     0.274 HD
ATOM     37  H11 UNL     1      10.042   2.446   5.091  1.00  0.00     0.274 HD
ENDBRANCH  33  34
ENDBRANCH  32  33
ENDBRANCH  31  32
ENDBRANCH   1  31
BRANCH   5  38
HETATM   38  O6  UNL     1      12.665   1.918  -0.309  1.00  0.00    -0.318 OA
BRANCH  38  39
HETATM   39  C14 UNL     1      12.435   1.431  -1.548  1.00  0.00     0.398 C 
HETATM   40  O7  UNL     1      12.992   1.955  -2.541  1.00  0.00    -0.276 OA
ENDBRANCH  38  39
ENDBRANCH   5  38
BRANCH   2  41
HETATM   41  O2  UNL     1      10.217   3.329  -0.956  1.00  0.00    -0.350 OA
BRANCH  41  42
HETATM   42  C5  UNL     1       9.373   3.572  -2.039  1.00  0.00     0.172 C 
HETATM   43  C6  UNL     1       9.478   2.483  -3.058  1.00  0.00     0.215 C 
HETATM   44  C7  UNL     1      10.250   2.889  -4.289  1.00  0.00     0.070 C 
HETATM   45  C8  UNL     1       9.793   4.172  -4.904  1.00  0.00     0.215 C 
HETATM   46  C9  UNL     1       9.017   5.055  -3.944  1.00  0.00     0.165 C 
HETATM   47  C10 UNL     1       9.677   4.934  -2.582  1.00  0.00     0.119 C 
HETATM   48 BR1  UNL     1      11.562   5.306  -2.733  1.00  0.00    -0.086 Br
BRANCH  43  49
HETATM   49  N2  UNL     1       8.167   1.978  -3.453  1.00  0.00    -0.072 N 
ATOM     50  H23 UNL     1       8.204   1.521  -4.364  1.00  0.00     0.274 HD
ATOM     51  H22 UNL     1       7.893   1.177  -2.884  1.00  0.00     0.274 HD
ATOM     52  H21 UNL     1       7.456   2.708  -3.433  1.00  0.00     0.274 HD
ENDBRANCH  43  49
BRANCH  45  53
HETATM   53  N3  UNL     1       9.044   3.987  -6.111  1.00  0.00    -0.072 N 
ATOM     54  H33 UNL     1       8.460   4.801  -6.303  1.00  0.00     0.274 HD
ATOM     55  H32 UNL     1       9.657   4.024  -6.925  1.00  0.00     0.274 HD
ATOM     56  H31 UNL     1       8.488   3.133  -6.114  1.00  0.00     0.274 HD
ENDBRANCH  45  53
BRANCH  46  57
HETATM   57  O3  UNL     1       9.157   6.372  -4.369  1.00  0.00    -0.392 OA
ATOM     58  H3  UNL     1       8.962   6.937  -3.631  1.00  0.00     0.210 HD
ENDBRANCH  46  57
ENDBRANCH  41  42
ENDBRANCH   2  41
BRANCH   4  59
HETATM   59  C12 UNL     1      12.095   3.321   2.706  1.00  0.00     0.198 C 
BRANCH  59  60
HETATM   60  O5  UNL     1      12.276   2.071   3.259  1.00  0.00    -0.398 OA
ATOM     61  H5  UNL     1      12.637   2.113   4.137  1.00  0.00     0.209 HD
ENDBRANCH  59  60
ENDBRANCH   4  59
TORSDOF 21
ENDMDL
MODEL 4
REMARK VINA RESULT: -7.002381328      3.874      8.584
REMARK  21 active torsions:
REMARK  status: ('A' for Active; 'I' for Inactive)
REMARK    1  A    between atoms: N1_1  and  C1_5 
REMARK    2  A    between atoms: C1_5  and  C2_6 
REMARK    3  A    between atoms: C2_6  and  O1_7 
REMARK    4  A    between atoms: O1_7  and  C3_8 
REMARK    5  A    between atoms: C4_9  and  O2_10 
REMARK    6  A    between atoms: O2_10  and  C5_11 
REMARK    7  A    between atoms: C6_12  and  N2_13 
REMARK    8  A    between atoms: C8_18  and  N3_19 
REMARK    9  A    between atoms: C9_23  and  O3_24 
REMARK   10  A    between atoms: C11_29  and  C12_30 
REMARK   11  A    between atoms: C12_30  and  O5_31 
REMARK   12  A    between atoms: C13_33  and  O6_34 
REMARK   13  A    between atoms: O6_34  and  C14_35 
REMARK   14  A    between atoms: C15_37  and  O8_38 
REMARK   15  A    between atoms: O8_38  and  C16_39 
REMARK   16  A    between atoms: C17_41  and  C18_42 
REMARK   17  A    between atoms: C18_42  and  N4_43 
REMARK   18  A    between atoms: C18_42  and  N5_47 
REMARK   19  A    between atoms: C19_51  and  O10_52 
REMARK   20  A    between atoms: C20_54  and  O11_55 
REMARK   21  A    between atoms: C21_57  and  N6_58 
ROOT
HETATM    1  C3  UNL     1       9.044   4.440  -1.729  1.00  0.00     0.208 C 
HETATM    2  C4  UNL     1       8.998   2.934  -1.350  1.00  0.00     0.292 C 
HETATM    3  O4  UNL     1       9.277   2.301  -2.542  1.00  0.00    -0.348 OA
HETATM    4  C11 UNL     1      10.546   2.482  -3.003  1.00  0.00     0.180 C 
HETATM    5  C13 UNL     1      11.254   3.736  -2.633  1.00  0.00     0.194 C 
HETATM    6  C15 UNL     1      10.479   4.743  -1.827  1.00  0.00     0.190 C 
ENDROOT
BRANCH   6   7
HETATM    7  O8  UNL     1      10.877   6.007  -2.172  1.00  0.00    -0.348 OA
BRANCH   7   8
HETATM    8  C16 UNL     1      11.754   6.200  -3.169  1.00  0.00     0.294 C 
HETATM    9  O9  UNL     1      11.042   6.144  -4.376  1.00  0.00    -0.347 OA
HETATM   10  C17 UNL     1      11.663   6.812  -5.421  1.00  0.00     0.213 C 
HETATM   11  C19 UNL     1      11.575   8.314  -5.264  1.00  0.00     0.182 C 
HETATM   12  C20 UNL     1      11.451   8.575  -3.768  1.00  0.00     0.184 C 
HETATM   13  C21 UNL     1      12.376   7.564  -3.116  1.00  0.00     0.269 C 
BRANCH  10  14
HETATM   14  C18 UNL     1      10.985   6.446  -6.720  1.00  0.00     0.409 C 
BRANCH  14  15
HETATM   15  N4  UNL     1       9.576   6.178  -6.564  1.00  0.00    -0.048 N 
ATOM     16  H43 UNL     1       9.292   5.382  -7.135  1.00  0.00     0.276 HD
ATOM     17  H42 UNL     1       9.378   5.799  -5.638  1.00  0.00     0.276 HD
ATOM     18  H41 UNL     1       8.992   6.992  -6.758  1.00  0.00     0.276 HD
ENDBRANCH  14  15
BRANCH  14  19
HETATM   19  N5  UNL     1      11.603   5.211  -7.181  1.00  0.00    -0.048 N 
ATOM     20  H53 UNL     1      12.473   5.362  -7.691  1.00  0.00     0.276 HD
ATOM     21  H52 UNL     1      11.993   4.649  -6.425  1.00  0.00     0.276 HD
ATOM     22  H51 UNL     1      10.897   4.717  -7.728  1.00  0.00     0.276 HD
ENDBRANCH  14  19
ENDBRANCH  10  14
BRANCH  11  23
HETATM   23  O10 UNL     1      10.575   8.895  -5.994  1.00  0.00    -0.390 OA
ATOM     24  H10 UNL     1      10.133   9.610  -5.550  1.00  0.00     0.210 HD
ENDBRANCH  11  23
BRANCH  12  25
HETATM   25  O11 UNL     1      10.179   8.379  -3.288  1.00  0.00    -0.391 OA
ATOM     26  H11 UNL     1      10.125   7.682  -2.644  1.00  0.00     0.210 HD
ENDBRANCH  12  25
BRANCH  13  27
HETATM   27  N6  UNL     1      12.663   7.910  -1.748  1.00  0.00    -0.068 N 
ATOM     28  H63 UNL     1      11.819   8.132  -1.222  1.00  0.00     0.275 HD
ATOM     29  H62 UNL     1      12.967   7.104  -1.203  1.00  0.00     0.275 HD
ATOM     30  H61 UNL     1      13.343   8.670  -1.724  1.00  0.00     0.275 HD
ENDBRANCH  13  27
ENDBRANCH   7   8
ENDBRANCH   6   7
BRANCH   1  31
HETATM   31  O1  UNL     1       8.294   4.501  -2.874  1.00  0.00    -0.377 OA
BRANCH  31  32
HETATM   32  C2  UNL     1       7.645   5.687  -3.045  1.00  0.00     0.195 C 
BRANCH  32  33
HETATM   33  C1  UNL     1       6.721   5.499  -4.259  1.00  0.00     0.255 C 
BRANCH  33  34
HETATM   34  N1  UNL     1       6.938   4.188  -4.847  1.00  0.00    -0.077 N 
ATOM     35  H13 UNL     1       7.689   3.678  -4.381  1.00  0.00     0.274 HD
ATOM     36  H12 UNL     1       6.173   3.545  -4.642  1.00  0.00     0.274 HD
ATOM     37  H11 UNL     1       7.103   4.280  -5.849  1.00  0.00     0.274 HD
ENDBRANCH  33  34
ENDBRANCH  32  33
ENDBRANCH  31  32
ENDBRANCH   1  31
BRANCH   5  38
HETATM   38  O6  UNL     1      12.390   3.344  -1.885  1.00  0.00    -0.318 OA
BRANCH  38  39
HETATM   39  C14 UNL     1      12.880   2.090  -1.777  1.00  0.00     0.398 C 
HETATM   40  O7  UNL     1      13.602   1.781  -0.800  1.00  0.00    -0.276 OA
ENDBRANCH  38  39
ENDBRANCH   5  38
BRANCH   2  41
HETATM   41  O2  UNL     1       9.981   2.635  -0.437  1.00  0.00    -0.350 OA
BRANCH  41  42
HETATM   42  C5  UNL     1       9.508   2.610   0.874  1.00  0.00     0.172 C 
HETATM   43  C6  UNL     1      10.380   3.421   1.778  1.00  0.00     0.215 C 
HETATM   44  C7  UNL     1      11.257   2.582   2.673  1.00  0.00     0.070 C 
HETATM   45  C8  UNL     1      10.525   1.520   3.428  1.00  0.00     0.215 C 
HETATM   46  C9  UNL     1       9.189   1.156   2.808  1.00  0.00     0.165 C 
HETATM   47  C10 UNL     1       9.366   1.182   1.301  1.00  0.00     0.119 C 
HETATM   48 BR1  UNL     1      10.859   0.070   0.798  1.00  0.00    -0.086 Br
BRANCH  43  49
HETATM   49  N2  UNL     1       9.605   4.352   2.592  1.00  0.00    -0.072 N 
ATOM     50  H23 UNL     1      10.033   5.277   2.606  1.00  0.00     0.274 HD
ATOM     51  H22 UNL     1       8.722   4.591   2.141  1.00  0.00     0.274 HD
ATOM     52  H21 UNL     1       9.456   3.998   3.537  1.00  0.00     0.274 HD
ENDBRANCH  43  49
BRANCH  45  53
HETATM   53  N3  UNL     1      10.353   1.828   4.816  1.00  0.00    -0.072 N 
ATOM     54  H33 UNL     1      10.819   1.136   5.401  1.00  0.00     0.274 HD
ATOM     55  H32 UNL     1      10.890   2.656   5.072  1.00  0.00     0.274 HD
ATOM     56  H31 UNL     1       9.375   1.932   5.087  1.00  0.00     0.274 HD
ENDBRANCH  45  53
BRANCH  46  57
HETATM   57  O3  UNL     1       8.890  -0.150   3.179  1.00  0.00    -0.392 OA
ATOM     58  H3  UNL     1       8.029  -0.359   2.836  1.00  0.00     0.210 HD
ENDBRANCH  46  57
ENDBRANCH  41  42
ENDBRANCH   2  41
BRANCH   4  59
HETATM   59  C12 UNL     1      10.500   2.388  -4.512  1.00  0.00     0.198 C 
BRANCH  59  60
HETATM   60  O5  UNL     1       9.933   3.504  -5.091  1.00  0.00    -0.398 OA
ATOM     61  H5  UNL     1      10.471   3.863  -5.787  1.00  0.00     0.209 HD
ENDBRANCH  59  60
ENDBRANCH   4  59
TORSDOF 21
ENDMDL
MODEL 5
REMARK VINA RESULT: -6.979654283      2.866      5.570
REMARK  21 active torsions:
REMARK  status: ('A' for Active; 'I' for Inactive)
REMARK    1  A    between atoms: N1_1  and  C1_5 
REMARK    2  A    between atoms: C1_5  and  C2_6 
REMARK    3  A    between atoms: C2_6  and  O1_7 
REMARK    4  A    between atoms: O1_7  and  C3_8 
REMARK    5  A    between atoms: C4_9  and  O2_10 
REMARK    6  A    between atoms: O2_10  and  C5_11 
REMARK    7  A    between atoms: C6_12  and  N2_13 
REMARK    8  A    between atoms: C8_18  and  N3_19 
REMARK    9  A    between atoms: C9_23  and  O3_24 
REMARK   10  A    between atoms: C11_29  and  C12_30 
REMARK   11  A    between atoms: C12_30  and  O5_31 
REMARK   12  A    between atoms: C13_33  and  O6_34 
REMARK   13  A    between atoms: O6_34  and  C14_35 
REMARK   14  A    between atoms: C15_37  and  O8_38 
REMARK   15  A    between atoms: O8_38  and  C16_39 
REMARK   16  A    between atoms: C17_41  and  C18_42 
REMARK   17  A    between atoms: C18_42  and  N4_43 
REMARK   18  A    between atoms: C18_42  and  N5_47 
REMARK   19  A    between atoms: C19_51  and  O10_52 
REMARK   20  A    between atoms: C20_54  and  O11_55 
REMARK   21  A    between atoms: C21_57  and  N6_58 
ROOT
HETATM    1  C3  UNL     1      11.462   2.070  -2.782  1.00  0.00     0.208 C 
HETATM    2  C4  UNL     1      10.889   2.574  -4.136  1.00  0.00     0.292 C 
HETATM    3  O4  UNL     1       9.535   2.350  -4.007  1.00  0.00    -0.348 OA
HETATM    4  C11 UNL     1       8.912   3.129  -3.079  1.00  0.00     0.180 C 
HETATM    5  C13 UNL     1       9.709   3.612  -1.920  1.00  0.00     0.194 C 
HETATM    6  C15 UNL     1      11.135   3.142  -1.831  1.00  0.00     0.190 C 
ENDROOT
BRANCH   6   7
HETATM    7  O8  UNL     1      11.489   3.003  -0.516  1.00  0.00    -0.348 OA
BRANCH   7   8
HETATM    8  C16 UNL     1      10.749   2.252   0.316  1.00  0.00     0.294 C 
HETATM    9  O9  UNL     1      11.504   1.117   0.643  1.00  0.00    -0.347 OA
HETATM   10  C17 UNL     1      11.130   0.526   1.841  1.00  0.00     0.213 C 
HETATM   11  C19 UNL     1      11.567   1.345   3.036  1.00  0.00     0.182 C 
HETATM   12  C20 UNL     1      11.653   2.786   2.550  1.00  0.00     0.184 C 
HETATM   13  C21 UNL     1      10.472   2.954   1.611  1.00  0.00     0.269 C 
BRANCH  10  14
HETATM   14  C18 UNL     1      11.784  -0.832   1.953  1.00  0.00     0.409 C 
BRANCH  14  15
HETATM   15  N4  UNL     1      11.854  -1.530   0.692  1.00  0.00    -0.048 N 
ATOM     16  H43 UNL     1      11.727  -2.533   0.824  1.00  0.00     0.276 HD
ATOM     17  H42 UNL     1      11.032  -1.332   0.121  1.00  0.00     0.276 HD
ATOM     18  H41 UNL     1      12.712  -1.335   0.176  1.00  0.00     0.276 HD
ENDBRANCH  14  15
BRANCH  14  19
HETATM   19  N5  UNL     1      10.943  -1.631   2.833  1.00  0.00    -0.048 N 
ATOM     20  H53 UNL     1      10.729  -2.554   2.456  1.00  0.00     0.276 HD
ATOM     21  H52 UNL     1      11.425  -1.944   3.675  1.00  0.00     0.276 HD
ATOM     22  H51 UNL     1      10.111  -1.074   3.028  1.00  0.00     0.276 HD
ENDBRANCH  14  19
ENDBRANCH  10  14
BRANCH  11  23
HETATM   23  O10 UNL     1      12.722   0.907   3.623  1.00  0.00    -0.390 OA
ATOM     24  H10 UNL     1      12.822   1.171   4.530  1.00  0.00     0.210 HD
ENDBRANCH  11  23
BRANCH  12  25
HETATM   25  O11 UNL     1      12.806   3.055   1.855  1.00  0.00    -0.391 OA
ATOM     26  H11 UNL     1      12.651   3.506   1.033  1.00  0.00     0.210 HD
ENDBRANCH  12  25
BRANCH  13  27
HETATM   27  N6  UNL     1      10.187   4.342   1.357  1.00  0.00    -0.068 N 
ATOM     28  H63 UNL     1      10.836   4.963   1.841  1.00  0.00     0.275 HD
ATOM     29  H62 UNL     1      10.414   4.613   0.400  1.00  0.00     0.275 HD
ATOM     30  H61 UNL     1       9.216   4.541   1.593  1.00  0.00     0.275 HD
ENDBRANCH  13  27
ENDBRANCH   7   8
ENDBRANCH   6   7
BRANCH   1  31
HETATM   31  O1  UNL     1      10.853   0.853  -2.615  1.00  0.00    -0.377 OA
BRANCH  31  32
HETATM   32  C2  UNL     1      11.709  -0.205  -2.685  1.00  0.00     0.195 C 
BRANCH  32  33
HETATM   33  C1  UNL     1      10.945  -1.327  -3.406  1.00  0.00     0.255 C 
BRANCH  33  34
HETATM   34  N1  UNL     1      11.602  -1.644  -4.663  1.00  0.00    -0.077 N 
ATOM     35  H13 UNL     1      11.556  -2.640  -4.879  1.00  0.00     0.274 HD
ATOM     36  H12 UNL     1      11.081  -1.293  -5.466  1.00  0.00     0.274 HD
ATOM     37  H11 UNL     1      12.562  -1.300  -4.648  1.00  0.00     0.274 HD
ENDBRANCH  33  34
ENDBRANCH  32  33
ENDBRANCH  31  32
ENDBRANCH   1  31
BRANCH   5  38
HETATM   38  O6  UNL     1       9.709   5.026  -2.001  1.00  0.00    -0.318 OA
BRANCH  38  39
HETATM   39  C14 UNL     1       8.709   5.847  -1.614  1.00  0.00     0.398 C 
HETATM   40  O7  UNL     1       8.230   5.752  -0.460  1.00  0.00    -0.276 OA
ENDBRANCH  38  39
ENDBRANCH   5  38
BRANCH   2  41
HETATM   41  O2  UNL     1      11.114   3.922  -4.283  1.00  0.00    -0.350 OA
BRANCH  41  42
HETATM   42  C5  UNL     1      10.809   4.380  -5.564  1.00  0.00     0.172 C 
HETATM   43  C6  UNL     1      11.977   4.224  -6.484  1.00  0.00     0.215 C 
HETATM   44  C7  UNL     1      12.673   5.526  -6.793  1.00  0.00     0.070 C 
HETATM   45  C8  UNL     1      11.760   6.617  -7.249  1.00  0.00     0.215 C 
HETATM   46  C9  UNL     1      10.313   6.394  -6.852  1.00  0.00     0.165 C 
HETATM   47  C10 UNL     1      10.313   5.790  -5.459  1.00  0.00     0.119 C 
HETATM   48 BR1  UNL     1      11.354   6.892  -4.268  1.00  0.00    -0.086 Br
BRANCH  43  49
HETATM   49  N2  UNL     1      11.603   3.567  -7.733  1.00  0.00    -0.072 N 
ATOM     50  H23 UNL     1      10.992   2.768  -7.563  1.00  0.00     0.274 HD
ATOM     51  H22 UNL     1      10.964   4.144  -8.278  1.00  0.00     0.274 HD
ATOM     52  H21 UNL     1      12.420   3.298  -8.281  1.00  0.00     0.274 HD
ENDBRANCH  43  49
BRANCH  45  53
HETATM   53  N3  UNL     1      11.846   6.878  -8.654  1.00  0.00    -0.072 N 
ATOM     54  H33 UNL     1      11.765   7.877  -8.843  1.00  0.00     0.274 HD
ATOM     55  H32 UNL     1      12.795   6.718  -8.994  1.00  0.00     0.274 HD
ATOM     56  H31 UNL     1      11.170   6.350  -9.205  1.00  0.00     0.274 HD
ENDBRANCH  45  53
BRANCH  46  57
HETATM   57  O3  UNL     1       9.696   7.638  -6.775  1.00  0.00    -0.392 OA
ATOM     58  H3  UNL     1       9.862   8.095  -7.591  1.00  0.00     0.210 HD
ENDBRANCH  46  57
ENDBRANCH  41  42
ENDBRANCH   2  41
BRANCH   4  59
HETATM   59  C12 UNL     1       7.728   2.351  -2.551  1.00  0.00     0.198 C 
BRANCH  59  60
HETATM   60  O5  UNL     1       7.783   1.016  -2.892  1.00  0.00    -0.398 OA
ATOM     61  H5  UNL     1       8.206   0.490  -2.223  1.00  0.00     0.209 HD
ENDBRANCH  59  60
ENDBRANCH   4  59
TORSDOF 21
ENDMDL
