MODEL 1
REMARK VINA RESULT: -8.937636424      0.000      0.000
REMARK  20 active torsions:
REMARK  status: ('A' for Active; 'I' for Inactive)
REMARK    1  A    between atoms: O1_2  and  C2_3 
REMARK    2  A    between atoms: C4_10  and  N4_11 
REMARK    3  A    between atoms: N4_11  and  C5_13 
REMARK    4  A    between atoms: C5_13  and  C6_14 
REMARK    5  A    between atoms: C6_14  and  O2_15 
REMARK    6  A    between atoms: O2_15  and  C7_16 
REMARK    7  A    between atoms: C8_18  and  O4_19 
REMARK    8  A    between atoms: O4_19  and  C9_20 
REMARK    9  A    between atoms: C10_21  and  N5_22 
REMARK   10  A    between atoms: C12_27  and  N6_28 
REMARK   11  A    between atoms: C13_32  and  C14_33 
REMARK   12  A    between atoms: C13_32  and  O6_36 
REMARK   13  A    between atoms: C14_33  and  O5_34 
REMARK   14  A    between atoms: C16_38  and  O7_39 
REMARK   15  A    between atoms: C17_41  and  O8_42 
REMARK   16  A    between atoms: C19_46  and  O9_47 
REMARK   17  A    between atoms: O9_47  and  C20_48 
REMARK   18  A    between atoms: C21_49  and  N7_50 
REMARK   19  A    between atoms: C23_55  and  N8_56 
REMARK   20  A    between atoms: C25_61  and  N9_62 
ROOT
HETATM    1  C5  UNL     1      12.057   1.017  -1.580  1.00  0.00     0.083 C 
ENDROOT
BRANCH   1   2
HETATM    2  N4  UNL     1      12.682   2.238  -1.813  1.00  0.00    -0.377 N 
ATOM      3  H4  UNL     1      13.695   2.254  -1.938  1.00  0.00     0.160 HD
BRANCH   2   4
HETATM    4  C4  UNL     1      11.970   3.459  -1.884  1.00  0.00     0.216 C 
HETATM    5  N3  UNL     1      11.732   4.113  -0.639  1.00  0.00    -0.341 N 
HETATM    6  C3  UNL     1      10.682   4.758  -0.346  1.00  0.00     0.187 C 
ATOM      7  H3  UNL     1      12.462   4.057   0.070  1.00  0.00     0.164 HD
HETATM    8  N1  UNL     1       9.651   4.846  -1.318  1.00  0.00    -0.336 N 
HETATM    9  N2  UNL     1      10.494   5.420   0.914  1.00  0.00    -0.064 NA
HETATM   10  C2  UNL     1       9.455   3.682  -2.168  1.00  0.00     0.255 C 
ATOM     11  H1  UNL     1       9.077   5.682  -1.415  1.00  0.00     0.164 HD
HETATM   12  C19 UNL     1      10.762   3.298  -2.779  1.00  0.00     0.213 C 
BRANCH  10  13
HETATM   13  O1  UNL     1       8.989   2.644  -1.359  1.00  0.00    -0.369 OA
HETATM   14  C1  UNL     1       8.384   1.667  -2.139  1.00  0.00     0.204 C 
ENDBRANCH  10  13
BRANCH  12  15
HETATM   15  O9  UNL     1      11.024   4.047  -3.955  1.00  0.00    -0.368 OA
BRANCH  15  16
HETATM   16  C20 UNL     1       9.832   4.397  -4.526  1.00  0.00     0.183 C 
HETATM   17  C21 UNL     1       9.525   3.502  -5.742  1.00  0.00     0.216 C 
HETATM   18  C22 UNL     1       8.070   3.676  -6.064  1.00  0.00     0.068 C 
HETATM   19  C23 UNL     1       7.681   5.103  -6.292  1.00  0.00     0.187 C 
HETATM   20  C24 UNL     1       8.204   6.041  -5.239  1.00  0.00     0.068 C 
HETATM   21  C25 UNL     1       9.708   5.800  -5.029  1.00  0.00     0.216 C 
BRANCH  17  22
HETATM   22  N7  UNL     1      10.408   3.824  -6.825  1.00  0.00    -0.072 N 
ATOM     23  H73 UNL     1       9.951   4.401  -7.531  1.00  0.00     0.274 HD
ATOM     24  H72 UNL     1      11.135   4.482  -6.543  1.00  0.00     0.274 HD
ATOM     25  H71 UNL     1      10.799   2.970  -7.224  1.00  0.00     0.274 HD
ENDBRANCH  17  22
BRANCH  19  26
HETATM   26  N8  UNL     1       6.218   5.162  -6.243  1.00  0.00    -0.075 N 
ATOM     27  H83 UNL     1       5.772   4.289  -6.523  1.00  0.00     0.274 HD
ATOM     28  H82 UNL     1       5.850   5.196  -5.292  1.00  0.00     0.274 HD
ATOM     29  H81 UNL     1       5.931   5.959  -6.812  1.00  0.00     0.274 HD
ENDBRANCH  19  26
BRANCH  21  30
HETATM   30  N9  UNL     1      10.221   6.821  -4.171  1.00  0.00    -0.072 N 
ATOM     31  H93 UNL     1       9.642   6.893  -3.334  1.00  0.00     0.274 HD
ATOM     32  H92 UNL     1      11.102   6.516  -3.759  1.00  0.00     0.274 HD
ATOM     33  H91 UNL     1      10.337   7.743  -4.592  1.00  0.00     0.274 HD
ENDBRANCH  21  30
ENDBRANCH  15  16
ENDBRANCH  12  15
ENDBRANCH   2   4
ENDBRANCH   1   2
BRANCH   1  34
HETATM   34  C6  UNL     1      12.075   0.485  -0.173  1.00  0.00     0.215 C 
BRANCH  34  35
HETATM   35  O2  UNL     1      11.810   1.383   0.809  1.00  0.00    -0.353 OA
BRANCH  35  36
HETATM   36  C7  UNL     1      10.547   1.354   1.361  1.00  0.00     0.299 C 
HETATM   37  O3  UNL     1      10.277   0.085   1.761  1.00  0.00    -0.326 OA
HETATM   38  C8  UNL     1       9.601   0.079   2.978  1.00  0.00     0.295 C 
HETATM   39  C17 UNL     1       9.786   1.440   3.591  1.00  0.00     0.212 C 
HETATM   40  C18 UNL     1      10.388   2.286   2.526  1.00  0.00     0.258 C 
HETATM   41  F1  UNL     1      11.566   2.817   2.966  1.00  0.00    -0.241 F 
BRANCH  38  42
HETATM   42  O4  UNL     1      10.197  -0.831   3.761  1.00  0.00    -0.348 OA
BRANCH  42  43
HETATM   43  C9  UNL     1      11.275  -1.531   3.436  1.00  0.00     0.187 C 
HETATM   44  C10 UNL     1      12.236  -1.502   4.613  1.00  0.00     0.217 C 
HETATM   45  C11 UNL     1      12.802  -2.848   4.957  1.00  0.00     0.071 C 
HETATM   46  C12 UNL     1      13.338  -3.645   3.829  1.00  0.00     0.224 C 
HETATM   47  C13 UNL     1      12.386  -3.611   2.679  1.00  0.00     0.137 C 
HETATM   48  C16 UNL     1      11.060  -2.969   3.031  1.00  0.00     0.188 C 
BRANCH  44  49
HETATM   49  N5  UNL     1      13.262  -0.477   4.449  1.00  0.00    -0.072 N 
ATOM     50  H53 UNL     1      14.197  -0.858   4.596  1.00  0.00     0.274 HD
ATOM     51  H52 UNL     1      13.356  -0.197   3.472  1.00  0.00     0.274 HD
ATOM     52  H51 UNL     1      13.090   0.329   5.051  1.00  0.00     0.274 HD
ENDBRANCH  44  49
BRANCH  46  53
HETATM   53  N6  UNL     1      14.678  -3.176   3.430  1.00  0.00    -0.072 N 
ATOM     54  H63 UNL     1      14.996  -3.635   2.576  1.00  0.00     0.274 HD
ATOM     55  H62 UNL     1      14.652  -2.214   3.090  1.00  0.00     0.274 HD
ATOM     56  H61 UNL     1      15.350  -3.286   4.188  1.00  0.00     0.274 HD
ENDBRANCH  46  53
BRANCH  47  57
HETATM   57  C14 UNL     1      13.038  -2.875   1.491  1.00  0.00     0.207 C 
BRANCH  57  58
HETATM   58  O5  UNL     1      13.891  -3.685   0.779  1.00  0.00    -0.398 OA
ATOM     59  H5  UNL     1      13.900  -3.474  -0.147  1.00  0.00     0.209 HD
ENDBRANCH  57  58
ENDBRANCH  47  57
BRANCH  47  60
HETATM   60  O6  UNL     1      12.136  -4.876   2.186  1.00  0.00    -0.378 OA
HETATM   61  C15 UNL     1      12.073  -5.900   3.074  1.00  0.00     0.202 C 
ENDBRANCH  47  60
BRANCH  48  62
HETATM   62  O7  UNL     1      10.291  -3.067   1.875  1.00  0.00    -0.390 OA
ATOM     63  H7  UNL     1      10.512  -3.842   1.372  1.00  0.00     0.210 HD
ENDBRANCH  48  62
ENDBRANCH  42  43
ENDBRANCH  38  42
BRANCH  39  64
HETATM   64  O8  UNL     1      10.663   1.357   4.689  1.00  0.00    -0.388 OA
ATOM     65  H8  UNL     1      11.074   2.201   4.839  1.00  0.00     0.210 HD
ENDBRANCH  39  64
ENDBRANCH  35  36
ENDBRANCH  34  35
ENDBRANCH   1  34
TORSDOF 20
ENDMDL
MODEL 2
REMARK VINA RESULT: -8.859594968      2.084      3.022
REMARK  20 active torsions:
REMARK  status: ('A' for Active; 'I' for Inactive)
REMARK    1  A    between atoms: O1_2  and  C2_3 
REMARK    2  A    between atoms: C4_10  and  N4_11 
REMARK    3  A    between atoms: N4_11  and  C5_13 
REMARK    4  A    between atoms: C5_13  and  C6_14 
REMARK    5  A    between atoms: C6_14  and  O2_15 
REMARK    6  A    between atoms: O2_15  and  C7_16 
REMARK    7  A    between atoms: C8_18  and  O4_19 
REMARK    8  A    between atoms: O4_19  and  C9_20 
REMARK    9  A    between atoms: C10_21  and  N5_22 
REMARK   10  A    between atoms: C12_27  and  N6_28 
REMARK   11  A    between atoms: C13_32  and  C14_33 
REMARK   12  A    between atoms: C13_32  and  O6_36 
REMARK   13  A    between atoms: C14_33  and  O5_34 
REMARK   14  A    between atoms: C16_38  and  O7_39 
REMARK   15  A    between atoms: C17_41  and  O8_42 
REMARK   16  A    between atoms: C19_46  and  O9_47 
REMARK   17  A    between atoms: O9_47  and  C20_48 
REMARK   18  A    between atoms: C21_49  and  N7_50 
REMARK   19  A    between atoms: C23_55  and  N8_56 
REMARK   20  A    between atoms: C25_61  and  N9_62 
ROOT
HETATM    1  C5  UNL     1       8.405   1.722  -1.585  1.00  0.00     0.083 C 
ENDROOT
BRANCH   1   2
HETATM    2  N4  UNL     1       9.137   1.053  -2.560  1.00  0.00    -0.377 N 
ATOM      3  H4  UNL     1       8.715   0.250  -3.025  1.00  0.00     0.160 HD
BRANCH   2   4
HETATM    4  C4  UNL     1      10.447   1.443  -2.932  1.00  0.00     0.216 C 
HETATM    5  N3  UNL     1      11.464   1.211  -1.960  1.00  0.00    -0.341 N 
HETATM    6  C3  UNL     1      12.455   1.972  -1.750  1.00  0.00     0.187 C 
ATOM      7  H3  UNL     1      11.388   0.369  -1.390  1.00  0.00     0.164 HD
HETATM    8  N1  UNL     1      12.577   3.152  -2.529  1.00  0.00    -0.336 N 
HETATM    9  N2  UNL     1      13.468   1.688  -0.773  1.00  0.00    -0.064 NA
HETATM   10  C2  UNL     1      11.340   3.821  -2.897  1.00  0.00     0.255 C 
ATOM     11  H1  UNL     1      13.487   3.512  -2.816  1.00  0.00     0.164 HD
HETATM   12  C19 UNL     1      10.418   2.831  -3.530  1.00  0.00     0.213 C 
BRANCH  10  13
HETATM   13  O1  UNL     1      10.766   4.319  -1.727  1.00  0.00    -0.369 OA
HETATM   14  C1  UNL     1       9.772   5.238  -2.035  1.00  0.00     0.204 C 
ENDBRANCH  10  13
BRANCH  12  15
HETATM   15  O9  UNL     1      10.688   2.684  -4.915  1.00  0.00    -0.368 OA
BRANCH  15  16
HETATM   16  C20 UNL     1      10.912   3.921  -5.453  1.00  0.00     0.183 C 
HETATM   17  C21 UNL     1       9.581   4.658  -5.696  1.00  0.00     0.216 C 
HETATM   18  C22 UNL     1       9.910   6.107  -5.907  1.00  0.00     0.068 C 
HETATM   19  C23 UNL     1      10.900   6.336  -7.006  1.00  0.00     0.187 C 
HETATM   20  C24 UNL     1      12.097   5.428  -6.931  1.00  0.00     0.068 C 
HETATM   21  C25 UNL     1      11.635   3.971  -6.760  1.00  0.00     0.216 C 
BRANCH  17  22
HETATM   22  N7  UNL     1       8.876   4.052  -6.788  1.00  0.00    -0.072 N 
ATOM     23  H73 UNL     1       9.510   3.717  -7.513  1.00  0.00     0.274 HD
ATOM     24  H72 UNL     1       8.462   3.157  -6.526  1.00  0.00     0.274 HD
ATOM     25  H71 UNL     1       8.181   4.701  -7.158  1.00  0.00     0.274 HD
ENDBRANCH  17  22
BRANCH  19  26
HETATM   26  N8  UNL     1      11.385   7.711  -6.869  1.00  0.00    -0.075 N 
ATOM     27  H83 UNL     1      10.645   8.407  -6.959  1.00  0.00     0.274 HD
ATOM     28  H82 UNL     1      11.666   7.943  -5.916  1.00  0.00     0.274 HD
ATOM     29  H81 UNL     1      12.136   7.834  -7.549  1.00  0.00     0.274 HD
ENDBRANCH  19  26
BRANCH  21  30
HETATM   30  N9  UNL     1      12.771   3.112  -6.882  1.00  0.00    -0.072 N 
ATOM     31  H93 UNL     1      13.542   3.475  -6.320  1.00  0.00     0.274 HD
ATOM     32  H92 UNL     1      12.592   2.231  -6.401  1.00  0.00     0.274 HD
ATOM     33  H91 UNL     1      13.093   2.928  -7.832  1.00  0.00     0.274 HD
ENDBRANCH  21  30
ENDBRANCH  15  16
ENDBRANCH  12  15
ENDBRANCH   2   4
ENDBRANCH   1   2
BRANCH   1  34
HETATM   34  C6  UNL     1       8.922   1.675  -0.173  1.00  0.00     0.215 C 
BRANCH  34  35
HETATM   35  O2  UNL     1       8.976   2.862   0.484  1.00  0.00    -0.353 OA
BRANCH  35  36
HETATM   36  C7  UNL     1       9.420   2.837   1.788  1.00  0.00     0.299 C 
HETATM   37  O3  UNL     1       9.915   1.602   2.055  1.00  0.00    -0.326 OA
HETATM   38  C8  UNL     1      11.067   1.684   2.834  1.00  0.00     0.295 C 
HETATM   39  C17 UNL     1      11.560   3.102   2.742  1.00  0.00     0.212 C 
HETATM   40  C18 UNL     1      10.473   3.866   2.074  1.00  0.00     0.258 C 
HETATM   41  F1  UNL     1      10.958   4.479   0.955  1.00  0.00    -0.241 F 
BRANCH  38  42
HETATM   42  O4  UNL     1      11.979   0.873   2.283  1.00  0.00    -0.348 OA
BRANCH  42  43
HETATM   43  C9  UNL     1      11.979  -0.450   2.370  1.00  0.00     0.187 C 
HETATM   44  C10 UNL     1      10.913  -0.863   3.372  1.00  0.00     0.217 C 
HETATM   45  C11 UNL     1      10.041  -1.984   2.890  1.00  0.00     0.071 C 
HETATM   46  C12 UNL     1      10.736  -3.158   2.311  1.00  0.00     0.224 C 
HETATM   47  C13 UNL     1      11.803  -2.708   1.368  1.00  0.00     0.137 C 
HETATM   48  C16 UNL     1      11.756  -1.220   1.092  1.00  0.00     0.188 C 
BRANCH  44  49
HETATM   49  N5  UNL     1      11.480  -1.110   4.694  1.00  0.00    -0.072 N 
ATOM     50  H53 UNL     1      11.456  -2.102   4.931  1.00  0.00     0.274 HD
ATOM     51  H52 UNL     1      12.490  -0.969   4.698  1.00  0.00     0.274 HD
ATOM     52  H51 UNL     1      11.024  -0.545   5.412  1.00  0.00     0.274 HD
ENDBRANCH  44  49
BRANCH  46  53
HETATM   53  N6  UNL     1      11.285  -4.030   3.366  1.00  0.00    -0.072 N 
ATOM     54  H63 UNL     1      11.289  -5.008   3.078  1.00  0.00     0.274 HD
ATOM     55  H62 UNL     1      12.290  -3.895   3.478  1.00  0.00     0.274 HD
ATOM     56  H61 UNL     1      10.790  -3.901   4.248  1.00  0.00     0.274 HD
ENDBRANCH  46  53
BRANCH  47  57
HETATM   57  C14 UNL     1      13.185  -3.105   1.926  1.00  0.00     0.207 C 
BRANCH  57  58
HETATM   58  O5  UNL     1      14.129  -3.241   0.935  1.00  0.00    -0.398 OA
ATOM     59  H5  UNL     1      14.317  -4.151   0.738  1.00  0.00     0.209 HD
ENDBRANCH  57  58
ENDBRANCH  47  57
BRANCH  47  60
HETATM   60  O6  UNL     1      11.731  -3.375   0.162  1.00  0.00    -0.378 OA
HETATM   61  C15 UNL     1      11.142  -4.597   0.148  1.00  0.00     0.202 C 
ENDBRANCH  47  60
BRANCH  48  62
HETATM   62  O7  UNL     1      12.773  -0.990   0.170  1.00  0.00    -0.390 OA
ATOM     63  H7  UNL     1      12.581  -1.389  -0.671  1.00  0.00     0.210 HD
ENDBRANCH  48  62
ENDBRANCH  42  43
ENDBRANCH  38  42
BRANCH  39  64
HETATM   64  O8  UNL     1      12.730   3.153   1.962  1.00  0.00    -0.388 OA
ATOM     65  H8  UNL     1      12.610   2.649   1.165  1.00  0.00     0.210 HD
ENDBRANCH  39  64
ENDBRANCH  35  36
ENDBRANCH  34  35
ENDBRANCH   1  34
TORSDOF 20
ENDMDL
MODEL 3
REMARK VINA RESULT: -8.769885829      1.801      2.985
REMARK  20 active torsions:
REMARK  status: ('A' for Active; 'I' for Inactive)
REMARK    1  A    between atoms: O1_2  and  C2_3 
REMARK    2  A    between atoms: C4_10  and  N4_11 
REMARK    3  A    between atoms: N4_11  and  C5_13 
REMARK    4  A    between atoms: C5_13  and  C6_14 
REMARK    5  A    between atoms: C6_14  and  O2_15 
REMARK    6  A    between atoms: O2_15  and  C7_16 
REMARK    7  A    between atoms: C8_18  and  O4_19 
REMARK    8  A    between atoms: O4_19  and  C9_20 
REMARK    9  A    between atoms: C10_21  and  N5_22 
REMARK   10  A    between atoms: C12_27  and  N6_28 
REMARK   11  A    between atoms: C13_32  and  C14_33 
REMARK   12  A    between atoms: C13_32  and  O6_36 
REMARK   13  A    between atoms: C14_33  and  O5_34 
REMARK   14  A    between atoms: C16_38  and  O7_39 
REMARK   15  A    between atoms: C17_41  and  O8_42 
REMARK   16  A    between atoms: C19_46  and  O9_47 
REMARK   17  A    between atoms: O9_47  and  C20_48 
REMARK   18  A    between atoms: C21_49  and  N7_50 
REMARK   19  A    between atoms: C23_55  and  N8_56 
REMARK   20  A    between atoms: C25_61  and  N9_62 
ROOT
HETATM    1  C5  UNL     1      12.540   1.641  -1.428  1.00  0.00     0.083 C 
ENDROOT
BRANCH   1   2
HETATM    2  N4  UNL     1      11.935   2.875  -1.640  1.00  0.00    -0.377 N 
ATOM      3  H4  UNL     1      12.489   3.721  -1.507  1.00  0.00     0.160 HD
BRANCH   2   4
HETATM    4  C4  UNL     1      10.581   3.004  -2.034  1.00  0.00     0.216 C 
HETATM    5  N3  UNL     1       9.818   1.798  -2.036  1.00  0.00    -0.341 N 
HETATM    6  C3  UNL     1       8.916   1.511  -2.878  1.00  0.00     0.187 C 
ATOM      7  H3  UNL     1      10.014   1.115  -1.305  1.00  0.00     0.164 HD
HETATM    8  N1  UNL     1       8.631   2.446  -3.907  1.00  0.00    -0.336 N 
HETATM    9  N2  UNL     1       8.158   0.293  -2.829  1.00  0.00    -0.064 NA
HETATM   10  C2  UNL     1       9.757   3.206  -4.428  1.00  0.00     0.255 C 
ATOM     11  H1  UNL     1       7.685   2.579  -4.262  1.00  0.00     0.164 HD
HETATM   12  C19 UNL     1      10.489   3.838  -3.290  1.00  0.00     0.213 C 
BRANCH  10  13
HETATM   13  O1  UNL     1      10.598   2.310  -5.091  1.00  0.00    -0.369 OA
HETATM   14  C1  UNL     1      11.042   2.866  -6.283  1.00  0.00     0.204 C 
ENDBRANCH  10  13
BRANCH  12  15
HETATM   15  O9  UNL     1       9.897   5.073  -2.917  1.00  0.00    -0.368 OA
BRANCH  15  16
HETATM   16  C20 UNL     1      10.690   6.092  -3.364  1.00  0.00     0.183 C 
HETATM   17  C21 UNL     1      11.558   6.651  -2.220  1.00  0.00     0.216 C 
HETATM   18  C22 UNL     1      12.649   7.467  -2.849  1.00  0.00     0.068 C 
HETATM   19  C23 UNL     1      12.136   8.543  -3.755  1.00  0.00     0.187 C 
HETATM   20  C24 UNL     1      11.081   8.063  -4.715  1.00  0.00     0.068 C 
HETATM   21  C25 UNL     1      10.000   7.281  -3.952  1.00  0.00     0.216 C 
BRANCH  17  22
HETATM   22  N7  UNL     1      10.740   7.380  -1.294  1.00  0.00    -0.072 N 
ATOM     23  H73 UNL     1      11.078   7.293  -0.336  1.00  0.00     0.274 HD
ATOM     24  H72 UNL     1      10.849   8.389  -1.400  1.00  0.00     0.274 HD
ATOM     25  H71 UNL     1       9.766   7.089  -1.385  1.00  0.00     0.274 HD
ENDBRANCH  17  22
BRANCH  19  26
HETATM   26  N8  UNL     1      13.272   9.011  -4.552  1.00  0.00    -0.075 N 
ATOM     27  H83 UNL     1      13.921   9.593  -4.021  1.00  0.00     0.274 HD
ATOM     28  H82 UNL     1      13.928   8.267  -4.789  1.00  0.00     0.274 HD
ATOM     29  H81 UNL     1      12.889   9.484  -5.371  1.00  0.00     0.274 HD
ENDBRANCH  19  26
BRANCH  21  30
HETATM   30  N9  UNL     1       8.920   7.000  -4.845  1.00  0.00    -0.072 N 
ATOM     31  H93 UNL     1       8.042   7.328  -4.441  1.00  0.00     0.274 HD
ATOM     32  H92 UNL     1       8.982   7.604  -5.664  1.00  0.00     0.274 HD
ATOM     33  H91 UNL     1       8.824   6.028  -5.138  1.00  0.00     0.274 HD
ENDBRANCH  21  30
ENDBRANCH  15  16
ENDBRANCH  12  15
ENDBRANCH   2   4
ENDBRANCH   1   2
BRANCH   1  34
HETATM   34  C6  UNL     1      12.219   0.920  -0.147  1.00  0.00     0.215 C 
BRANCH  34  35
HETATM   35  O2  UNL     1      11.985   1.704   0.937  1.00  0.00    -0.353 OA
BRANCH  35  36
HETATM   36  C7  UNL     1      10.709   1.688   1.458  1.00  0.00     0.299 C 
HETATM   37  O3  UNL     1      10.405   0.417   1.823  1.00  0.00    -0.326 OA
HETATM   38  C8  UNL     1       9.701   0.397   3.024  1.00  0.00     0.295 C 
HETATM   39  C17 UNL     1       9.898   1.740   3.671  1.00  0.00     0.212 C 
HETATM   40  C18 UNL     1      10.542   2.597   2.640  1.00  0.00     0.258 C 
HETATM   41  F1  UNL     1      11.719   3.094   3.119  1.00  0.00    -0.241 F 
BRANCH  38  42
HETATM   42  O4  UNL     1      10.259  -0.542   3.798  1.00  0.00    -0.348 OA
BRANCH  42  43
HETATM   43  C9  UNL     1      11.299  -1.292   3.462  1.00  0.00     0.187 C 
HETATM   44  C10 UNL     1      12.298  -1.266   4.608  1.00  0.00     0.217 C 
HETATM   45  C11 UNL     1      12.824  -2.621   4.975  1.00  0.00     0.071 C 
HETATM   46  C12 UNL     1      13.294  -3.471   3.855  1.00  0.00     0.224 C 
HETATM   47  C13 UNL     1      12.307  -3.434   2.735  1.00  0.00     0.137 C 
HETATM   48  C16 UNL     1      11.019  -2.732   3.108  1.00  0.00     0.188 C 
BRANCH  44  49
HETATM   49  N5  UNL     1      13.356  -0.285   4.382  1.00  0.00    -0.072 N 
ATOM     50  H53 UNL     1      13.426  -0.036   3.395  1.00  0.00     0.274 HD
ATOM     51  H52 UNL     1      13.104   0.628   4.760  1.00  0.00     0.274 HD
ATOM     52  H51 UNL     1      14.252  -0.605   4.749  1.00  0.00     0.274 HD
ENDBRANCH  44  49
BRANCH  46  53
HETATM   53  N6  UNL     1      14.637  -3.065   3.402  1.00  0.00    -0.072 N 
ATOM     54  H63 UNL     1      14.606  -2.640   2.475  1.00  0.00     0.274 HD
ATOM     55  H62 UNL     1      14.984  -2.264   3.929  1.00  0.00     0.274 HD
ATOM     56  H61 UNL     1      15.291  -3.846   3.434  1.00  0.00     0.274 HD
ENDBRANCH  46  53
BRANCH  47  57
HETATM   57  C14 UNL     1      12.948  -2.758   1.505  1.00  0.00     0.207 C 
BRANCH  57  58
HETATM   58  O5  UNL     1      13.754  -3.618   0.797  1.00  0.00    -0.398 OA
ATOM     59  H5  UNL     1      13.344  -4.464   0.657  1.00  0.00     0.209 HD
ENDBRANCH  57  58
ENDBRANCH  47  57
BRANCH  47  60
HETATM   60  O6  UNL     1      11.996  -4.702   2.288  1.00  0.00    -0.378 OA
HETATM   61  C15 UNL     1      12.094  -5.726   3.172  1.00  0.00     0.202 C 
ENDBRANCH  47  60
BRANCH  48  62
HETATM   62  O7  UNL     1      10.210  -2.834   1.979  1.00  0.00    -0.390 OA
ATOM     63  H7  UNL     1       9.988  -3.737   1.788  1.00  0.00     0.210 HD
ENDBRANCH  48  62
ENDBRANCH  42  43
ENDBRANCH  38  42
BRANCH  39  64
HETATM   64  O8  UNL     1      10.747   1.614   4.787  1.00  0.00    -0.388 OA
ATOM     65  H8  UNL     1      10.394   2.106   5.519  1.00  0.00     0.210 HD
ENDBRANCH  39  64
ENDBRANCH  35  36
ENDBRANCH  34  35
ENDBRANCH   1  34
TORSDOF 20
ENDMDL
MODEL 4
REMARK VINA RESULT: -8.745433891      1.730      2.846
REMARK  20 active torsions:
REMARK  status: ('A' for Active; 'I' for Inactive)
REMARK    1  A    between atoms: O1_2  and  C2_3 
REMARK    2  A    between atoms: C4_10  and  N4_11 
REMARK    3  A    between atoms: N4_11  and  C5_13 
REMARK    4  A    between atoms: C5_13  and  C6_14 
REMARK    5  A    between atoms: C6_14  and  O2_15 
REMARK    6  A    between atoms: O2_15  and  C7_16 
REMARK    7  A    between atoms: C8_18  and  O4_19 
REMARK    8  A    between atoms: O4_19  and  C9_20 
REMARK    9  A    between atoms: C10_21  and  N5_22 
REMARK   10  A    between atoms: C12_27  and  N6_28 
REMARK   11  A    between atoms: C13_32  and  C14_33 
REMARK   12  A    between atoms: C13_32  and  O6_36 
REMARK   13  A    between atoms: C14_33  and  O5_34 
REMARK   14  A    between atoms: C16_38  and  O7_39 
REMARK   15  A    between atoms: C17_41  and  O8_42 
REMARK   16  A    between atoms: C19_46  and  O9_47 
REMARK   17  A    between atoms: O9_47  and  C20_48 
REMARK   18  A    between atoms: C21_49  and  N7_50 
REMARK   19  A    between atoms: C23_55  and  N8_56 
REMARK   20  A    between atoms: C25_61  and  N9_62 
ROOT
HETATM    1  C5  UNL     1       9.364   3.571   0.409  1.00  0.00     0.083 C 
ENDROOT
BRANCH   1   2
HETATM    2  N4  UNL     1       8.776   2.803  -0.591  1.00  0.00    -0.377 N 
ATOM      3  H4  UNL     1       7.765   2.847  -0.712  1.00  0.00     0.160 HD
BRANCH   2   4
HETATM    4  C4  UNL     1       9.528   1.964  -1.449  1.00  0.00     0.216 C 
HETATM    5  N3  UNL     1      10.431   1.066  -0.805  1.00  0.00    -0.341 N 
HETATM    6  C3  UNL     1      11.569   0.736  -1.252  1.00  0.00     0.187 C 
ATOM      7  H3  UNL     1      10.138   0.659   0.083  1.00  0.00     0.164 HD
HETATM    8  N1  UNL     1      11.997   1.294  -2.485  1.00  0.00    -0.336 N 
HETATM    9  N2  UNL     1      12.437  -0.189  -0.580  1.00  0.00    -0.064 NA
HETATM   10  C2  UNL     1      11.589   2.663  -2.758  1.00  0.00     0.255 C 
ATOM     11  H1  UNL     1      12.563   0.762  -3.146  1.00  0.00     0.164 HD
HETATM   12  C19 UNL     1      10.111   2.777  -2.581  1.00  0.00     0.213 C 
BRANCH  10  13
HETATM   13  O1  UNL     1      12.239   3.488  -1.838  1.00  0.00    -0.369 OA
HETATM   14  C1  UNL     1      11.873   4.811  -2.041  1.00  0.00     0.204 C 
ENDBRANCH  10  13
BRANCH  12  15
HETATM   15  O9  UNL     1       9.418   2.392  -3.758  1.00  0.00    -0.368 OA
BRANCH  15  16
HETATM   16  C20 UNL     1       9.013   3.519  -4.418  1.00  0.00     0.183 C 
HETATM   17  C21 UNL     1       7.950   4.277  -3.600  1.00  0.00     0.216 C 
HETATM   18  C22 UNL     1       7.847   5.658  -4.178  1.00  0.00     0.068 C 
HETATM   19  C23 UNL     1       7.553   5.666  -5.646  1.00  0.00     0.187 C 
HETATM   20  C24 UNL     1       8.419   4.720  -6.434  1.00  0.00     0.068 C 
HETATM   21  C25 UNL     1       8.409   3.333  -5.773  1.00  0.00     0.216 C 
BRANCH  17  22
HETATM   22  N7  UNL     1       6.715   3.548  -3.604  1.00  0.00    -0.072 N 
ATOM     23  H73 UNL     1       6.175   3.706  -2.754  1.00  0.00     0.274 HD
ATOM     24  H72 UNL     1       6.048   3.928  -4.277  1.00  0.00     0.274 HD
ATOM     25  H71 UNL     1       6.895   2.556  -3.764  1.00  0.00     0.274 HD
ENDBRANCH  17  22
BRANCH  19  26
HETATM   26  N8  UNL     1       7.828   7.020  -6.132  1.00  0.00    -0.075 N 
ATOM     27  H83 UNL     1       7.303   7.738  -5.635  1.00  0.00     0.274 HD
ATOM     28  H82 UNL     1       8.762   7.350  -5.891  1.00  0.00     0.274 HD
ATOM     29  H81 UNL     1       7.652   7.018  -7.137  1.00  0.00     0.274 HD
ENDBRANCH  19  26
BRANCH  21  30
HETATM   30  N9  UNL     1       9.078   2.409  -6.635  1.00  0.00    -0.072 N 
ATOM     31  H93 UNL     1       9.996   2.181  -6.253  1.00  0.00     0.274 HD
ATOM     32  H92 UNL     1       8.625   1.497  -6.582  1.00  0.00     0.274 HD
ATOM     33  H91 UNL     1       9.169   2.694  -7.610  1.00  0.00     0.274 HD
ENDBRANCH  21  30
ENDBRANCH  15  16
ENDBRANCH  12  15
ENDBRANCH   2   4
ENDBRANCH   1   2
BRANCH   1  34
HETATM   34  C6  UNL     1       9.253   3.071   1.824  1.00  0.00     0.215 C 
BRANCH  34  35
HETATM   35  O2  UNL     1      10.143   2.113   2.190  1.00  0.00    -0.353 OA
BRANCH  35  36
HETATM   36  C7  UNL     1       9.629   0.945   2.710  1.00  0.00     0.299 C 
HETATM   37  O3  UNL     1      10.378  -0.096   2.267  1.00  0.00    -0.326 OA
HETATM   38  C8  UNL     1      10.570  -1.037   3.274  1.00  0.00     0.295 C 
HETATM   39  C17 UNL     1      10.232  -0.364   4.576  1.00  0.00     0.212 C 
HETATM   40  C18 UNL     1       9.596   0.930   4.210  1.00  0.00     0.258 C 
HETATM   41  F1  UNL     1      10.281   1.962   4.783  1.00  0.00    -0.241 F 
BRANCH  38  42
HETATM   42  O4  UNL     1      11.871  -1.358   3.278  1.00  0.00    -0.348 OA
BRANCH  42  43
HETATM   43  C9  UNL     1      12.376  -2.506   2.850  1.00  0.00     0.187 C 
HETATM   44  C10 UNL     1      13.323  -3.038   3.913  1.00  0.00     0.217 C 
HETATM   45  C11 UNL     1      13.125  -4.494   4.217  1.00  0.00     0.071 C 
HETATM   46  C12 UNL     1      13.040  -5.404   3.051  1.00  0.00     0.224 C 
HETATM   47  C13 UNL     1      12.136  -4.825   2.013  1.00  0.00     0.137 C 
HETATM   48  C16 UNL     1      11.395  -3.597   2.496  1.00  0.00     0.188 C 
BRANCH  44  49
HETATM   49  N5  UNL     1      14.712  -2.701   3.619  1.00  0.00    -0.072 N 
ATOM     50  H53 UNL     1      15.353  -3.178   4.254  1.00  0.00     0.274 HD
ATOM     51  H52 UNL     1      15.018  -3.118   2.740  1.00  0.00     0.274 HD
ATOM     52  H51 UNL     1      14.866  -1.692   3.624  1.00  0.00     0.274 HD
ENDBRANCH  44  49
BRANCH  46  53
HETATM   53  N6  UNL     1      14.376  -5.695   2.499  1.00  0.00    -0.072 N 
ATOM     54  H63 UNL     1      14.657  -4.995   1.812  1.00  0.00     0.274 HD
ATOM     55  H62 UNL     1      15.109  -5.538   3.191  1.00  0.00     0.274 HD
ATOM     56  H61 UNL     1      14.420  -6.637   2.114  1.00  0.00     0.274 HD
ENDBRANCH  46  53
BRANCH  47  57
HETATM   57  C14 UNL     1      12.953  -4.492   0.747  1.00  0.00     0.207 C 
BRANCH  57  58
HETATM   58  O5  UNL     1      12.184  -4.520  -0.393  1.00  0.00    -0.398 OA
ATOM     59  H5  UNL     1      11.786  -3.677  -0.580  1.00  0.00     0.209 HD
ENDBRANCH  57  58
ENDBRANCH  47  57
BRANCH  47  60
HETATM   60  O6  UNL     1      11.208  -5.747   1.573  1.00  0.00    -0.378 OA
HETATM   61  C15 UNL     1      11.245  -6.990   2.113  1.00  0.00     0.202 C 
ENDBRANCH  47  60
BRANCH  48  62
HETATM   62  O7  UNL     1      10.576  -3.225   1.434  1.00  0.00    -0.390 OA
ATOM     63  H7  UNL     1       9.963  -2.544   1.685  1.00  0.00     0.210 HD
ENDBRANCH  48  62
ENDBRANCH  42  43
ENDBRANCH  38  42
BRANCH  39  64
HETATM   64  O8  UNL     1      11.409  -0.127   5.312  1.00  0.00    -0.388 OA
ATOM     65  H8  UNL     1      11.848   0.647   4.979  1.00  0.00     0.210 HD
ENDBRANCH  39  64
ENDBRANCH  35  36
ENDBRANCH  34  35
ENDBRANCH   1  34
TORSDOF 20
ENDMDL
MODEL 5
REMARK VINA RESULT: -8.556825063      1.584      3.631
REMARK  20 active torsions:
REMARK  status: ('A' for Active; 'I' for Inactive)
REMARK    1  A    between atoms: O1_2  and  C2_3 
REMARK    2  A    between atoms: C4_10  and  N4_11 
REMARK    3  A    between atoms: N4_11  and  C5_13 
REMARK    4  A    between atoms: C5_13  and  C6_14 
REMARK    5  A    between atoms: C6_14  and  O2_15 
REMARK    6  A    between atoms: O2_15  and  C7_16 
REMARK    7  A    between atoms: C8_18  and  O4_19 
REMARK    8  A    between atoms: O4_19  and  C9_20 
REMARK    9  A    between atoms: C10_21  and  N5_22 
REMARK   10  A    between atoms: C12_27  and  N6_28 
REMARK   11  A    between atoms: C13_32  and  C14_33 
REMARK   12  A    between atoms: C13_32  and  O6_36 
REMARK   13  A    between atoms: C14_33  and  O5_34 
REMARK   14  A    between atoms: C16_38  and  O7_39 
REMARK   15  A    between atoms: C17_41  and  O8_42 
REMARK   16  A    between atoms: C19_46  and  O9_47 
REMARK   17  A    between atoms: O9_47  and  C20_48 
REMARK   18  A    between atoms: C21_49  and  N7_50 
REMARK   19  A    between atoms: C23_55  and  N8_56 
REMARK   20  A    between atoms: C25_61  and  N9_62 
ROOT
HETATM    1  C5  UNL     1      12.478   2.006  -1.751  1.00  0.00     0.083 C 
ENDROOT
BRANCH   1   2
HETATM    2  N4  UNL     1      11.904   2.022  -3.018  1.00  0.00    -0.377 N 
ATOM      3  H4  UNL     1      12.369   1.518  -3.772  1.00  0.00     0.160 HD
BRANCH   2   4
HETATM    4  C4  UNL     1      10.700   2.711  -3.302  1.00  0.00     0.216 C 
HETATM    5  N3  UNL     1      10.036   2.331  -4.506  1.00  0.00    -0.341 N 
HETATM    6  C3  UNL     1       9.411   3.122  -5.272  1.00  0.00     0.187 C 
ATOM      7  H3  UNL     1      10.067   1.346  -4.771  1.00  0.00     0.164 HD
HETATM    8  N1  UNL     1       9.360   4.497  -4.924  1.00  0.00    -0.336 N 
HETATM    9  N2  UNL     1       8.739   2.691  -6.465  1.00  0.00    -0.064 NA
HETATM   10  C2  UNL     1      10.538   5.051  -4.277  1.00  0.00     0.255 C 
ATOM     11  H1  UNL     1       8.538   5.068  -5.119  1.00  0.00     0.164 HD
HETATM   12  C19 UNL     1      10.900   4.196  -3.108  1.00  0.00     0.213 C 
BRANCH  10  13
HETATM   13  O1  UNL     1      11.576   5.039  -5.210  1.00  0.00    -0.369 OA
HETATM   14  C1  UNL     1      11.377   6.032  -6.159  1.00  0.00     0.204 C 
ENDBRANCH  10  13
BRANCH  12  15
HETATM   15  O9  UNL     1      10.161   4.559  -1.952  1.00  0.00    -0.368 OA
BRANCH  15  16
HETATM   16  C20 UNL     1      10.468   5.849  -1.621  1.00  0.00     0.183 C 
HETATM   17  C21 UNL     1      11.796   5.911  -0.842  1.00  0.00     0.216 C 
HETATM   18  C22 UNL     1      12.254   7.340  -0.859  1.00  0.00     0.068 C 
HETATM   19  C23 UNL     1      11.233   8.295  -0.325  1.00  0.00     0.187 C 
HETATM   20  C24 UNL     1       9.855   8.073  -0.888  1.00  0.00     0.068 C 
HETATM   21  C25 UNL     1       9.481   6.587  -0.775  1.00  0.00     0.216 C 
BRANCH  17  22
HETATM   22  N7  UNL     1      11.619   5.368   0.473  1.00  0.00    -0.072 N 
ATOM     23  H73 UNL     1      12.403   4.777   0.751  1.00  0.00     0.274 HD
ATOM     24  H72 UNL     1      11.708   6.082   1.197  1.00  0.00     0.274 HD
ATOM     25  H71 UNL     1      10.728   4.874   0.531  1.00  0.00     0.274 HD
ENDBRANCH  17  22
BRANCH  19  26
HETATM   26  N8  UNL     1      11.656   9.641  -0.720  1.00  0.00    -0.075 N 
ATOM     27  H83 UNL     1      11.875   9.716  -1.713  1.00  0.00     0.274 HD
ATOM     28  H82 UNL     1      10.895  10.321  -0.702  1.00  0.00     0.274 HD
ATOM     29  H81 UNL     1      12.437   9.899  -0.116  1.00  0.00     0.274 HD
ENDBRANCH  19  26
BRANCH  21  30
HETATM   30  N9  UNL     1       8.107   6.431  -1.137  1.00  0.00    -0.072 N 
ATOM     31  H93 UNL     1       8.036   5.916  -2.015  1.00  0.00     0.274 HD
ATOM     32  H92 UNL     1       7.654   5.775  -0.501  1.00  0.00     0.274 HD
ATOM     33  H91 UNL     1       7.560   7.291  -1.194  1.00  0.00     0.274 HD
ENDBRANCH  21  30
ENDBRANCH  15  16
ENDBRANCH  12  15
ENDBRANCH   2   4
ENDBRANCH   1   2
BRANCH   1  34
HETATM   34  C6  UNL     1      11.978   0.977  -0.774  1.00  0.00     0.215 C 
BRANCH  34  35
HETATM   35  O2  UNL     1      11.893   1.374   0.521  1.00  0.00    -0.353 OA
BRANCH  35  36
HETATM   36  C7  UNL     1      10.634   1.418   1.081  1.00  0.00     0.299 C 
HETATM   37  O3  UNL     1      10.332   0.189   1.570  1.00  0.00    -0.326 OA
HETATM   38  C8  UNL     1       9.666   0.285   2.788  1.00  0.00     0.295 C 
HETATM   39  C17 UNL     1       9.894   1.679   3.305  1.00  0.00     0.212 C 
HETATM   40  C18 UNL     1      10.512   2.432   2.180  1.00  0.00     0.258 C 
HETATM   41  F1  UNL     1      11.707   2.958   2.576  1.00  0.00    -0.241 F 
BRANCH  38  42
HETATM   42  O4  UNL     1      10.242  -0.586   3.628  1.00  0.00    -0.348 OA
BRANCH  42  43
HETATM   43  C9  UNL     1      11.298  -1.336   3.346  1.00  0.00     0.187 C 
HETATM   44  C10 UNL     1      12.254  -1.278   4.526  1.00  0.00     0.217 C 
HETATM   45  C11 UNL     1      12.774  -2.622   4.942  1.00  0.00     0.071 C 
HETATM   46  C12 UNL     1      13.289  -3.493   3.859  1.00  0.00     0.224 C 
HETATM   47  C13 UNL     1      12.344  -3.487   2.703  1.00  0.00     0.137 C 
HETATM   48  C16 UNL     1      11.039  -2.785   3.013  1.00  0.00     0.188 C 
BRANCH  44  49
HETATM   49  N5  UNL     1      13.314  -0.296   4.317  1.00  0.00    -0.072 N 
ATOM     50  H53 UNL     1      13.261   0.459   5.001  1.00  0.00     0.274 HD
ATOM     51  H52 UNL     1      14.227  -0.675   4.567  1.00  0.00     0.274 HD
ATOM     52  H51 UNL     1      13.310   0.065   3.363  1.00  0.00     0.274 HD
ENDBRANCH  44  49
BRANCH  46  53
HETATM   53  N6  UNL     1      14.645  -3.088   3.445  1.00  0.00    -0.072 N 
ATOM     54  H63 UNL     1      14.628  -2.235   2.886  1.00  0.00     0.274 HD
ATOM     55  H62 UNL     1      15.191  -2.746   4.236  1.00  0.00     0.274 HD
ATOM     56  H61 UNL     1      15.126  -3.845   2.959  1.00  0.00     0.274 HD
ENDBRANCH  46  53
BRANCH  47  57
HETATM   57  C14 UNL     1      13.025  -2.834   1.483  1.00  0.00     0.207 C 
BRANCH  57  58
HETATM   58  O5  UNL     1      13.833  -3.714   0.802  1.00  0.00    -0.398 OA
ATOM     59  H5  UNL     1      13.732  -4.608   1.109  1.00  0.00     0.209 HD
ENDBRANCH  57  58
ENDBRANCH  47  57
BRANCH  47  60
HETATM   60  O6  UNL     1      12.056  -4.767   2.273  1.00  0.00    -0.378 OA
HETATM   61  C15 UNL     1      12.126  -5.770   3.183  1.00  0.00     0.202 C 
ENDBRANCH  47  60
BRANCH  48  62
HETATM   62  O7  UNL     1      10.272  -2.917   1.859  1.00  0.00    -0.390 OA
ATOM     63  H7  UNL     1      10.243  -3.817   1.558  1.00  0.00     0.210 HD
ENDBRANCH  48  62
ENDBRANCH  42  43
ENDBRANCH  38  42
BRANCH  39  64
HETATM   64  O8  UNL     1      10.777   1.646   4.400  1.00  0.00    -0.388 OA
ATOM     65  H8  UNL     1      11.675   1.617   4.091  1.00  0.00     0.210 HD
ENDBRANCH  39  64
ENDBRANCH  35  36
ENDBRANCH  34  35
ENDBRANCH   1  34
TORSDOF 20
ENDMDL
