MODEL 1
REMARK VINA RESULT: -9.347767279      0.000      0.000
REMARK  22 active torsions:
REMARK  status: ('A' for Active; 'I' for Inactive)
REMARK    1  A    between atoms: O1_1  and  C1_3 
REMARK    2  A    between atoms: C1_3  and  C2_4 
REMARK    3  A    between atoms: C4_7  and  O3_8 
REMARK    4  A    between atoms: O3_8  and  C5_9 
REMARK    5  A    between atoms: C6_10  and  C7_11 
REMARK    6  A    between atoms: C7_11  and  O4_12 
REMARK    7  A    between atoms: C8_15  and  O6_16 
REMARK    8  A    between atoms: O6_16  and  C9_17 
REMARK    9  A    between atoms: C10_18  and  C11_19 
REMARK   10  A    between atoms: C11_19  and  O7_20 
REMARK   11  A    between atoms: C12_23  and  C13_24 
REMARK   12  A    between atoms: C13_24  and  C14_25 
REMARK   13  A    between atoms: C15_27  and  O9_28 
REMARK   14  A    between atoms: O9_28  and  C16_29 
REMARK   15  A    between atoms: C17_31  and  C18_32 
REMARK   16  A    between atoms: C18_32  and  O11_33 
REMARK   17  A    between atoms: C19_35  and  O12_36 
REMARK   18  A    between atoms: C20_38  and  O13_39 
REMARK   19  A    between atoms: C21_41  and  O14_42 
REMARK   20  A    between atoms: C22_44  and  O15_45 
REMARK   21  A    between atoms: C23_47  and  O16_48 
REMARK   22  A    between atoms: C24_50  and  O17_51 
ROOT
HETATM    1  C9  UNL     1      10.902   0.280   0.802  1.00  0.00     0.187 C 
HETATM    2  C10 UNL     1      10.544   0.581   2.238  1.00  0.00     0.177 C 
HETATM    3  O8  UNL     1      10.249  -0.472   2.995  1.00  0.00    -0.373 OA
HETATM    4  C12 UNL     1      10.634  -1.721   2.749  1.00  0.00     0.156 C 
HETATM    5  C15 UNL     1      11.405  -2.088   1.542  1.00  0.00     0.185 C 
HETATM    6  C22 UNL     1      11.734  -0.943   0.658  1.00  0.00     0.181 C 
ENDROOT
BRANCH   1   7
HETATM    7  O6  UNL     1      11.557   1.425   0.343  1.00  0.00    -0.348 OA
BRANCH   7   8
HETATM    8  C8  UNL     1      10.953   2.001  -0.769  1.00  0.00     0.292 C 
HETATM    9  O5  UNL     1       9.731   1.425  -1.066  1.00  0.00    -0.348 OA
HETATM   10  C6  UNL     1       9.321   1.858  -2.302  1.00  0.00     0.180 C 
HETATM   11  C5  UNL     1       9.313   3.319  -2.542  1.00  0.00     0.187 C 
HETATM   12  C24 UNL     1      10.204   4.131  -1.644  1.00  0.00     0.183 C 
HETATM   13  C23 UNL     1      10.626   3.445  -0.390  1.00  0.00     0.204 C 
BRANCH  10  14
HETATM   14  C7  UNL     1       7.905   1.326  -2.570  1.00  0.00     0.198 C 
BRANCH  14  15
HETATM   15  O4  UNL     1       6.979   2.368  -2.632  1.00  0.00    -0.398 OA
ATOM     16  H4  UNL     1       6.389   2.346  -1.888  1.00  0.00     0.209 HD
ENDBRANCH  14  15
ENDBRANCH  10  14
BRANCH  11  17
HETATM   17  O3  UNL     1       9.665   3.521  -3.900  1.00  0.00    -0.349 OA
BRANCH  17  18
HETATM   18  C4  UNL     1       8.772   4.274  -4.598  1.00  0.00     0.284 C 
HETATM   19  O2  UNL     1       9.177   5.624  -4.429  1.00  0.00    -0.356 OA
HETATM   20  C3  UNL     1       8.098   6.390  -4.835  1.00  0.00     0.205 C 
HETATM   21  C2  UNL     1       7.535   6.050  -6.169  1.00  0.00     0.169 C 
HETATM   22  O18 UNL     1       7.625   4.743  -6.559  1.00  0.00    -0.377 OA
HETATM   23  C25 UNL     1       8.741   4.061  -6.081  1.00  0.00     0.229 C 
BRANCH  21  24
HETATM   24  C1  UNL     1       6.038   6.395  -6.109  1.00  0.00     0.198 C 
BRANCH  24  25
HETATM   25  O1  UNL     1       5.251   5.247  -6.163  1.00  0.00    -0.398 OA
ATOM     26  H1  UNL     1       4.744   5.214  -6.966  1.00  0.00     0.209 HD
ENDBRANCH  24  25
ENDBRANCH  21  24
ENDBRANCH  17  18
ENDBRANCH  11  17
BRANCH  12  27
HETATM   27  O17 UNL     1       9.587   5.330  -1.292  1.00  0.00    -0.390 OA
ATOM     28  H17 UNL     1      10.130   5.822  -0.686  1.00  0.00     0.210 HD
ENDBRANCH  12  27
BRANCH  13  29
HETATM   29  O16 UNL     1      11.705   4.104   0.154  1.00  0.00    -0.388 OA
ATOM     30  H16 UNL     1      12.002   4.825  -0.388  1.00  0.00     0.210 HD
ENDBRANCH  13  29
ENDBRANCH   7   8
ENDBRANCH   1   7
BRANCH   2  31
HETATM   31  C11 UNL     1      11.644   1.404   2.912  1.00  0.00     0.198 C 
BRANCH  31  32
HETATM   32  O7  UNL     1      11.294   2.732   3.013  1.00  0.00    -0.398 OA
ATOM     33  H7  UNL     1      11.853   3.196   3.625  1.00  0.00     0.209 HD
ENDBRANCH  31  32
ENDBRANCH   2  31
BRANCH   6  34
HETATM   34  O15 UNL     1      13.089  -0.555   0.758  1.00  0.00    -0.390 OA
ATOM     35  H15 UNL     1      13.616  -1.346   0.771  1.00  0.00     0.210 HD
ENDBRANCH   6  34
BRANCH   5  36
HETATM   36  O9  UNL     1      10.649  -3.074   0.872  1.00  0.00    -0.348 OA
BRANCH  36  37
HETATM   37  C16 UNL     1      11.462  -4.009   0.241  1.00  0.00     0.292 C 
HETATM   38  O10 UNL     1      10.626  -5.040  -0.170  1.00  0.00    -0.348 OA
HETATM   39  C17 UNL     1      11.243  -6.185  -0.579  1.00  0.00     0.179 C 
HETATM   40  C19 UNL     1      12.407  -6.637   0.246  1.00  0.00     0.180 C 
HETATM   41  C20 UNL     1      12.391  -5.925   1.581  1.00  0.00     0.183 C 
HETATM   42  C21 UNL     1      12.474  -4.447   1.283  1.00  0.00     0.204 C 
BRANCH  39  43
HETATM   43  C18 UNL     1      11.574  -6.196  -2.074  1.00  0.00     0.198 C 
BRANCH  43  44
HETATM   44  O11 UNL     1      10.506  -6.664  -2.835  1.00  0.00    -0.398 OA
ATOM     45  H11 UNL     1      10.518  -7.610  -2.914  1.00  0.00     0.209 HD
ENDBRANCH  43  44
ENDBRANCH  39  43
BRANCH  40  46
HETATM   46  O12 UNL     1      12.392  -8.007   0.503  1.00  0.00    -0.390 OA
ATOM     47  H12 UNL     1      11.586  -8.298   0.912  1.00  0.00     0.210 HD
ENDBRANCH  40  46
BRANCH  41  48
HETATM   48  O13 UNL     1      11.283  -6.226   2.342  1.00  0.00    -0.390 OA
ATOM     49  H13 UNL     1      11.399  -6.033   3.265  1.00  0.00     0.210 HD
ENDBRANCH  41  48
BRANCH  42  50
HETATM   50  O14 UNL     1      13.788  -4.192   0.882  1.00  0.00    -0.388 OA
ATOM     51  H14 UNL     1      14.414  -4.756   1.321  1.00  0.00     0.210 HD
ENDBRANCH  42  50
ENDBRANCH  36  37
ENDBRANCH   5  36
BRANCH   4  52
HETATM   52  C13 UNL     1      11.491  -2.160   3.970  1.00  0.00     0.066 C 
BRANCH  52  53
HETATM   53  C14 UNL     1      12.948  -1.953   3.680  1.00  0.00     0.224 C 
HETATM   54  F1  UNL     1      13.465  -0.906   4.411  1.00  0.00    -0.255 F 
ENDBRANCH  52  53
ENDBRANCH   4  52
TORSDOF 22
ENDMDL
MODEL 2
REMARK VINA RESULT: -9.346945511      1.915      2.321
REMARK  22 active torsions:
REMARK  status: ('A' for Active; 'I' for Inactive)
REMARK    1  A    between atoms: O1_1  and  C1_3 
REMARK    2  A    between atoms: C1_3  and  C2_4 
REMARK    3  A    between atoms: C4_7  and  O3_8 
REMARK    4  A    between atoms: O3_8  and  C5_9 
REMARK    5  A    between atoms: C6_10  and  C7_11 
REMARK    6  A    between atoms: C7_11  and  O4_12 
REMARK    7  A    between atoms: C8_15  and  O6_16 
REMARK    8  A    between atoms: O6_16  and  C9_17 
REMARK    9  A    between atoms: C10_18  and  C11_19 
REMARK   10  A    between atoms: C11_19  and  O7_20 
REMARK   11  A    between atoms: C12_23  and  C13_24 
REMARK   12  A    between atoms: C13_24  and  C14_25 
REMARK   13  A    between atoms: C15_27  and  O9_28 
REMARK   14  A    between atoms: O9_28  and  C16_29 
REMARK   15  A    between atoms: C17_31  and  C18_32 
REMARK   16  A    between atoms: C18_32  and  O11_33 
REMARK   17  A    between atoms: C19_35  and  O12_36 
REMARK   18  A    between atoms: C20_38  and  O13_39 
REMARK   19  A    between atoms: C21_41  and  O14_42 
REMARK   20  A    between atoms: C22_44  and  O15_45 
REMARK   21  A    between atoms: C23_47  and  O16_48 
REMARK   22  A    between atoms: C24_50  and  O17_51 
ROOT
HETATM    1  C9  UNL     1      10.041  -0.040   2.084  1.00  0.00     0.187 C 
HETATM    2  C10 UNL     1      10.110  -0.128   3.590  1.00  0.00     0.177 C 
HETATM    3  O8  UNL     1      10.302  -1.343   4.092  1.00  0.00    -0.373 OA
HETATM    4  C12 UNL     1      10.840  -2.366   3.431  1.00  0.00     0.156 C 
HETATM    5  C15 UNL     1      11.238  -2.268   2.011  1.00  0.00     0.185 C 
HETATM    6  C22 UNL     1      11.017  -0.932   1.407  1.00  0.00     0.181 C 
ENDROOT
BRANCH   1   7
HETATM    7  O6  UNL     1      10.257   1.307   1.787  1.00  0.00    -0.348 OA
BRANCH   7   8
HETATM    8  C8  UNL     1      10.402   1.560   0.428  1.00  0.00     0.292 C 
HETATM    9  O5  UNL     1       9.189   1.767  -0.205  1.00  0.00    -0.348 OA
HETATM   10  C6  UNL     1       9.385   1.753  -1.563  1.00  0.00     0.180 C 
HETATM   11  C5  UNL     1      10.445   2.633  -2.105  1.00  0.00     0.187 C 
HETATM   12  C24 UNL     1      11.510   3.047  -1.129  1.00  0.00     0.183 C 
HETATM   13  C23 UNL     1      11.142   2.892   0.306  1.00  0.00     0.204 C 
BRANCH  10  14
HETATM   14  C7  UNL     1       8.065   2.117  -2.259  1.00  0.00     0.198 C 
BRANCH  14  15
HETATM   15  O4  UNL     1       7.980   1.526  -3.520  1.00  0.00    -0.398 OA
ATOM     16  H4  UNL     1       7.198   0.992  -3.596  1.00  0.00     0.209 HD
ENDBRANCH  14  15
ENDBRANCH  10  14
BRANCH  11  17
HETATM   17  O3  UNL     1      11.023   1.957  -3.209  1.00  0.00    -0.349 OA
BRANCH  17  18
HETATM   18  C4  UNL     1      11.249   2.753  -4.290  1.00  0.00     0.284 C 
HETATM   19  O2  UNL     1      10.493   2.196  -5.355  1.00  0.00    -0.356 OA
HETATM   20  C3  UNL     1      10.986   2.783  -6.508  1.00  0.00     0.205 C 
HETATM   21  C2  UNL     1      11.071   4.267  -6.488  1.00  0.00     0.169 C 
HETATM   22  O18 UNL     1      11.305   4.853  -5.274  1.00  0.00    -0.377 OA
HETATM   23  C25 UNL     1      10.779   4.171  -4.180  1.00  0.00     0.229 C 
BRANCH  21  24
HETATM   24  C1  UNL     1      12.248   4.647  -7.400  1.00  0.00     0.198 C 
BRANCH  24  25
HETATM   25  O1  UNL     1      12.481   3.667  -8.362  1.00  0.00    -0.398 OA
ATOM     26  H1  UNL     1      12.997   4.007  -9.084  1.00  0.00     0.209 HD
ENDBRANCH  24  25
ENDBRANCH  21  24
ENDBRANCH  17  18
ENDBRANCH  11  17
BRANCH  12  27
HETATM   27  O17 UNL     1      11.879   4.375  -1.337  1.00  0.00    -0.390 OA
ATOM     28  H17 UNL     1      12.015   4.820  -0.508  1.00  0.00     0.210 HD
ENDBRANCH  12  27
BRANCH  13  29
HETATM   29  O16 UNL     1      12.279   2.935   1.080  1.00  0.00    -0.388 OA
ATOM     30  H16 UNL     1      12.286   3.675   1.675  1.00  0.00     0.210 HD
ENDBRANCH  13  29
ENDBRANCH   7   8
ENDBRANCH   1   7
BRANCH   2  31
HETATM   31  C11 UNL     1      11.172   0.827   4.142  1.00  0.00     0.198 C 
BRANCH  31  32
HETATM   32  O7  UNL     1      10.652   2.080   4.380  1.00  0.00    -0.398 OA
ATOM     33  H7  UNL     1       9.901   2.042   4.962  1.00  0.00     0.209 HD
ENDBRANCH  31  32
ENDBRANCH   2  31
BRANCH   6  34
HETATM   34  O15 UNL     1      12.220  -0.208   1.243  1.00  0.00    -0.390 OA
ATOM     35  H15 UNL     1      12.338  -0.051   0.313  1.00  0.00     0.210 HD
ENDBRANCH   6  34
BRANCH   5  36
HETATM   36  O9  UNL     1      10.530  -3.282   1.330  1.00  0.00    -0.348 OA
BRANCH  36  37
HETATM   37  C16 UNL     1      11.363  -4.032   0.507  1.00  0.00     0.292 C 
HETATM   38  O10 UNL     1      10.560  -4.994  -0.091  1.00  0.00    -0.348 OA
HETATM   39  C17 UNL     1      11.212  -6.004  -0.735  1.00  0.00     0.179 C 
HETATM   40  C19 UNL     1      12.416  -6.560  -0.041  1.00  0.00     0.180 C 
HETATM   41  C20 UNL     1      12.406  -6.135   1.411  1.00  0.00     0.183 C 
HETATM   42  C21 UNL     1      12.421  -4.625   1.419  1.00  0.00     0.204 C 
BRANCH  39  43
HETATM   43  C18 UNL     1      11.504  -5.696  -2.206  1.00  0.00     0.198 C 
BRANCH  43  44
HETATM   44  O11 UNL     1      11.005  -6.687  -3.049  1.00  0.00    -0.398 OA
ATOM     45  H11 UNL     1      10.555  -6.317  -3.799  1.00  0.00     0.209 HD
ENDBRANCH  43  44
ENDBRANCH  39  43
BRANCH  40  46
HETATM   46  O12 UNL     1      12.464  -7.952  -0.067  1.00  0.00    -0.390 OA
ATOM     47  H12 UNL     1      12.208  -8.348   0.757  1.00  0.00     0.210 HD
ENDBRANCH  40  46
BRANCH  41  48
HETATM   48  O13 UNL     1      11.333  -6.635   2.115  1.00  0.00    -0.390 OA
ATOM     49  H13 UNL     1      10.597  -6.867   1.561  1.00  0.00     0.210 HD
ENDBRANCH  41  48
BRANCH  42  50
HETATM   50  O14 UNL     1      13.712  -4.234   1.056  1.00  0.00    -0.388 OA
ATOM     51  H14 UNL     1      13.952  -3.396   1.432  1.00  0.00     0.210 HD
ENDBRANCH  42  50
ENDBRANCH  36  37
ENDBRANCH   5  36
BRANCH   4  52
HETATM   52  C13 UNL     1      12.117  -2.771   4.221  1.00  0.00     0.066 C 
BRANCH  52  53
HETATM   53  C14 UNL     1      13.309  -2.034   3.688  1.00  0.00     0.224 C 
HETATM   54  F1  UNL     1      13.724  -1.048   4.556  1.00  0.00    -0.255 F 
ENDBRANCH  52  53
ENDBRANCH   4  52
TORSDOF 22
ENDMDL
MODEL 3
REMARK VINA RESULT: -9.339771671      0.989      1.540
REMARK  22 active torsions:
REMARK  status: ('A' for Active; 'I' for Inactive)
REMARK    1  A    between atoms: O1_1  and  C1_3 
REMARK    2  A    between atoms: C1_3  and  C2_4 
REMARK    3  A    between atoms: C4_7  and  O3_8 
REMARK    4  A    between atoms: O3_8  and  C5_9 
REMARK    5  A    between atoms: C6_10  and  C7_11 
REMARK    6  A    between atoms: C7_11  and  O4_12 
REMARK    7  A    between atoms: C8_15  and  O6_16 
REMARK    8  A    between atoms: O6_16  and  C9_17 
REMARK    9  A    between atoms: C10_18  and  C11_19 
REMARK   10  A    between atoms: C11_19  and  O7_20 
REMARK   11  A    between atoms: C12_23  and  C13_24 
REMARK   12  A    between atoms: C13_24  and  C14_25 
REMARK   13  A    between atoms: C15_27  and  O9_28 
REMARK   14  A    between atoms: O9_28  and  C16_29 
REMARK   15  A    between atoms: C17_31  and  C18_32 
REMARK   16  A    between atoms: C18_32  and  O11_33 
REMARK   17  A    between atoms: C19_35  and  O12_36 
REMARK   18  A    between atoms: C20_38  and  O13_39 
REMARK   19  A    between atoms: C21_41  and  O14_42 
REMARK   20  A    between atoms: C22_44  and  O15_45 
REMARK   21  A    between atoms: C23_47  and  O16_48 
REMARK   22  A    between atoms: C24_50  and  O17_51 
ROOT
HETATM    1  C9  UNL     1      10.831   0.132   0.431  1.00  0.00     0.187 C 
HETATM    2  C10 UNL     1      10.416   0.609   1.803  1.00  0.00     0.177 C 
HETATM    3  O8  UNL     1      10.089  -0.342   2.673  1.00  0.00    -0.373 OA
HETATM    4  C12 UNL     1      10.483  -1.611   2.600  1.00  0.00     0.156 C 
HETATM    5  C15 UNL     1      11.301  -2.123   1.480  1.00  0.00     0.185 C 
HETATM    6  C22 UNL     1      11.666  -1.096   0.474  1.00  0.00     0.181 C 
ENDROOT
BRANCH   1   7
HETATM    7  O6  UNL     1      11.505   1.213  -0.141  1.00  0.00    -0.348 OA
BRANCH   7   8
HETATM    8  C8  UNL     1      10.755   1.894  -1.094  1.00  0.00     0.292 C 
HETATM    9  O5  UNL     1      10.473   3.194  -0.716  1.00  0.00    -0.348 OA
HETATM   10  C6  UNL     1       9.530   3.713  -1.567  1.00  0.00     0.180 C 
HETATM   11  C5  UNL     1       9.795   3.608  -3.019  1.00  0.00     0.187 C 
HETATM   12  C24 UNL     1      10.765   2.535  -3.429  1.00  0.00     0.183 C 
HETATM   13  C23 UNL     1      11.638   2.026  -2.334  1.00  0.00     0.204 C 
BRANCH  10  14
HETATM   14  C7  UNL     1       9.320   5.197  -1.230  1.00  0.00     0.198 C 
BRANCH  14  15
HETATM   15  O4  UNL     1       8.073   5.642  -1.670  1.00  0.00    -0.398 OA
ATOM     16  H4  UNL     1       8.151   6.452  -2.160  1.00  0.00     0.209 HD
ENDBRANCH  14  15
ENDBRANCH  10  14
BRANCH  11  17
HETATM   17  O3  UNL     1       8.545   3.413  -3.658  1.00  0.00    -0.349 OA
BRANCH  17  18
HETATM   18  C4  UNL     1       8.287   4.304  -4.655  1.00  0.00     0.284 C 
HETATM   19  O2  UNL     1       9.274   5.318  -4.544  1.00  0.00    -0.356 OA
HETATM   20  C3  UNL     1       8.812   6.373  -5.312  1.00  0.00     0.205 C 
HETATM   21  C2  UNL     1       8.400   6.026  -6.698  1.00  0.00     0.169 C 
HETATM   22  O18 UNL     1       7.893   4.771  -6.893  1.00  0.00    -0.377 OA
HETATM   23  C25 UNL     1       8.416   3.789  -6.056  1.00  0.00     0.229 C 
BRANCH  21  24
HETATM   24  C1  UNL     1       7.292   7.019  -7.082  1.00  0.00     0.198 C 
BRANCH  24  25
HETATM   25  O1  UNL     1       6.028   6.471  -6.879  1.00  0.00    -0.398 OA
ATOM     26  H1  UNL     1       5.343   7.064  -7.167  1.00  0.00     0.209 HD
ENDBRANCH  24  25
ENDBRANCH  21  24
ENDBRANCH  17  18
ENDBRANCH  11  17
BRANCH  12  27
HETATM   27  O17 UNL     1      11.587   2.981  -4.462  1.00  0.00    -0.390 OA
ATOM     28  H17 UNL     1      12.267   3.554  -4.128  1.00  0.00     0.210 HD
ENDBRANCH  12  27
BRANCH  13  29
HETATM   29  O16 UNL     1      12.199   0.828  -2.712  1.00  0.00    -0.388 OA
ATOM     30  H16 UNL     1      12.490   0.831  -3.616  1.00  0.00     0.210 HD
ENDBRANCH  13  29
ENDBRANCH   7   8
ENDBRANCH   1   7
BRANCH   2  31
HETATM   31  C11 UNL     1      11.490   1.514   2.412  1.00  0.00     0.198 C 
BRANCH  31  32
HETATM   32  O7  UNL     1      11.262   1.739   3.751  1.00  0.00    -0.398 OA
ATOM     33  H7  UNL     1      11.978   1.417   4.287  1.00  0.00     0.209 HD
ENDBRANCH  31  32
ENDBRANCH   2  31
BRANCH   6  34
HETATM   34  O15 UNL     1      13.017  -0.694   0.578  1.00  0.00    -0.390 OA
ATOM     35  H15 UNL     1      13.251  -0.702   1.500  1.00  0.00     0.210 HD
ENDBRANCH   6  34
BRANCH   5  36
HETATM   36  O9  UNL     1      10.571  -3.187   0.910  1.00  0.00    -0.348 OA
BRANCH  36  37
HETATM   37  C16 UNL     1      11.403  -4.105   0.278  1.00  0.00     0.292 C 
HETATM   38  O10 UNL     1      10.585  -5.140  -0.158  1.00  0.00    -0.348 OA
HETATM   39  C17 UNL     1      11.221  -6.272  -0.574  1.00  0.00     0.179 C 
HETATM   40  C19 UNL     1      12.380  -6.721   0.261  1.00  0.00     0.180 C 
HETATM   41  C20 UNL     1      12.338  -6.027   1.604  1.00  0.00     0.183 C 
HETATM   42  C21 UNL     1      12.408  -4.544   1.326  1.00  0.00     0.204 C 
BRANCH  39  43
HETATM   43  C18 UNL     1      11.571  -6.260  -2.064  1.00  0.00     0.198 C 
BRANCH  43  44
HETATM   44  O11 UNL     1      10.510  -6.708  -2.846  1.00  0.00    -0.398 OA
ATOM     45  H11 UNL     1      10.208  -6.037  -3.447  1.00  0.00     0.209 HD
ENDBRANCH  43  44
ENDBRANCH  39  43
BRANCH  40  46
HETATM   46  O12 UNL     1      12.379  -8.094   0.501  1.00  0.00    -0.390 OA
ATOM     47  H12 UNL     1      11.821  -8.343   1.227  1.00  0.00     0.210 HD
ENDBRANCH  40  46
BRANCH  41  48
HETATM   48  O13 UNL     1      11.224  -6.351   2.347  1.00  0.00    -0.390 OA
ATOM     49  H13 UNL     1      10.811  -5.597   2.751  1.00  0.00     0.210 HD
ENDBRANCH  41  48
BRANCH  42  50
HETATM   50  O14 UNL     1      13.724  -4.268   0.946  1.00  0.00    -0.388 OA
ATOM     51  H14 UNL     1      14.302  -5.006   1.094  1.00  0.00     0.210 HD
ENDBRANCH  42  50
ENDBRANCH  36  37
ENDBRANCH   5  36
BRANCH   4  52
HETATM   52  C13 UNL     1      11.290  -1.891   3.900  1.00  0.00     0.066 C 
BRANCH  52  53
HETATM   53  C14 UNL     1      12.760  -1.757   3.634  1.00  0.00     0.224 C 
HETATM   54  F1  UNL     1      13.304  -0.697   4.325  1.00  0.00    -0.255 F 
ENDBRANCH  52  53
ENDBRANCH   4  52
TORSDOF 22
ENDMDL
MODEL 4
REMARK VINA RESULT: -9.334991690      1.205      1.573
REMARK  22 active torsions:
REMARK  status: ('A' for Active; 'I' for Inactive)
REMARK    1  A    between atoms: O1_1  and  C1_3 
REMARK    2  A    between atoms: C1_3  and  C2_4 
REMARK    3  A    between atoms: C4_7  and  O3_8 
REMARK    4  A    between atoms: O3_8  and  C5_9 
REMARK    5  A    between atoms: C6_10  and  C7_11 
REMARK    6  A    between atoms: C7_11  and  O4_12 
REMARK    7  A    between atoms: C8_15  and  O6_16 
REMARK    8  A    between atoms: O6_16  and  C9_17 
REMARK    9  A    between atoms: C10_18  and  C11_19 
REMARK   10  A    between atoms: C11_19  and  O7_20 
REMARK   11  A    between atoms: C12_23  and  C13_24 
REMARK   12  A    between atoms: C13_24  and  C14_25 
REMARK   13  A    between atoms: C15_27  and  O9_28 
REMARK   14  A    between atoms: O9_28  and  C16_29 
REMARK   15  A    between atoms: C17_31  and  C18_32 
REMARK   16  A    between atoms: C18_32  and  O11_33 
REMARK   17  A    between atoms: C19_35  and  O12_36 
REMARK   18  A    between atoms: C20_38  and  O13_39 
REMARK   19  A    between atoms: C21_41  and  O14_42 
REMARK   20  A    between atoms: C22_44  and  O15_45 
REMARK   21  A    between atoms: C23_47  and  O16_48 
REMARK   22  A    between atoms: C24_50  and  O17_51 
ROOT
HETATM    1  C9  UNL     1      10.432   0.194   1.455  1.00  0.00     0.187 C 
HETATM    2  C10 UNL     1      10.303   0.413   2.943  1.00  0.00     0.177 C 
HETATM    3  O8  UNL     1      10.272  -0.685   3.692  1.00  0.00    -0.373 OA
HETATM    4  C12 UNL     1      10.749  -1.872   3.325  1.00  0.00     0.156 C 
HETATM    5  C15 UNL     1      11.329  -2.112   1.987  1.00  0.00     0.185 C 
HETATM    6  C22 UNL     1      11.359  -0.915   1.112  1.00  0.00     0.181 C 
ENDROOT
BRANCH   1   7
HETATM    7  O6  UNL     1      10.857   1.420   0.940  1.00  0.00    -0.348 OA
BRANCH   7   8
HETATM    8  C8  UNL     1      10.658   1.547  -0.430  1.00  0.00     0.292 C 
HETATM    9  O5  UNL     1      10.755   0.337  -1.093  1.00  0.00    -0.348 OA
HETATM   10  C6  UNL     1      10.804   0.570  -2.444  1.00  0.00     0.180 C 
HETATM   11  C5  UNL     1       9.749   1.431  -3.024  1.00  0.00     0.187 C 
HETATM   12  C24 UNL     1       9.058   2.353  -2.059  1.00  0.00     0.183 C 
HETATM   13  C23 UNL     1       9.206   1.985  -0.622  1.00  0.00     0.204 C 
BRANCH  10  14
HETATM   14  C7  UNL     1      10.775  -0.777  -3.182  1.00  0.00     0.198 C 
BRANCH  14  15
HETATM   15  O4  UNL     1      11.274  -0.652  -4.479  1.00  0.00    -0.398 OA
ATOM     16  H4  UNL     1      11.238  -1.481  -4.942  1.00  0.00     0.209 HD
ENDBRANCH  14  15
ENDBRANCH  10  14
BRANCH  11  17
HETATM   17  O3  UNL     1      10.345   2.173  -4.074  1.00  0.00    -0.349 OA
BRANCH  17  18
HETATM   18  C4  UNL     1       9.499   3.046  -4.686  1.00  0.00     0.284 C 
HETATM   19  O2  UNL     1       9.945   4.345  -4.326  1.00  0.00    -0.356 OA
HETATM   20  C3  UNL     1       8.905   5.198  -4.652  1.00  0.00     0.205 C 
HETATM   21  C2  UNL     1       8.370   5.062  -6.032  1.00  0.00     0.169 C 
HETATM   22  O18 UNL     1       8.428   3.816  -6.594  1.00  0.00    -0.377 OA
HETATM   23  C25 UNL     1       9.504   3.035  -6.184  1.00  0.00     0.229 C 
BRANCH  21  24
HETATM   24  C1  UNL     1       6.885   5.452  -5.963  1.00  0.00     0.198 C 
BRANCH  24  25
HETATM   25  O1  UNL     1       6.065   4.327  -5.984  1.00  0.00    -0.398 OA
ATOM     26  H1  UNL     1       5.176   4.543  -5.726  1.00  0.00     0.209 HD
ENDBRANCH  24  25
ENDBRANCH  21  24
ENDBRANCH  17  18
ENDBRANCH  11  17
BRANCH  12  27
HETATM   27  O17 UNL     1       7.696   2.434  -2.343  1.00  0.00    -0.390 OA
ATOM     28  H17 UNL     1       7.275   3.083  -1.792  1.00  0.00     0.210 HD
ENDBRANCH  12  27
BRANCH  13  29
HETATM   29  O16 UNL     1       8.873   3.064   0.165  1.00  0.00    -0.388 OA
ATOM     30  H16 UNL     1       7.982   3.358   0.021  1.00  0.00     0.210 HD
ENDBRANCH  13  29
ENDBRANCH   7   8
ENDBRANCH   1   7
BRANCH   2  31
HETATM   31  C11 UNL     1      11.404   1.348   3.452  1.00  0.00     0.198 C 
BRANCH  31  32
HETATM   32  O7  UNL     1      10.895   2.571   3.831  1.00  0.00    -0.398 OA
ATOM     33  H7  UNL     1      10.407   2.980   3.126  1.00  0.00     0.209 HD
ENDBRANCH  31  32
ENDBRANCH   2  31
BRANCH   6  34
HETATM   34  O15 UNL     1      12.657  -0.368   0.991  1.00  0.00    -0.390 OA
ATOM     35  H15 UNL     1      13.103  -0.495   1.821  1.00  0.00     0.210 HD
ENDBRANCH   6  34
BRANCH   5  36
HETATM   36  O9  UNL     1      10.584  -3.167   1.416  1.00  0.00    -0.348 OA
BRANCH  36  37
HETATM   37  C16 UNL     1      11.364  -3.956   0.578  1.00  0.00     0.292 C 
HETATM   38  O10 UNL     1      10.529  -4.953   0.090  1.00  0.00    -0.348 OA
HETATM   39  C17 UNL     1      11.143  -5.993  -0.544  1.00  0.00     0.179 C 
HETATM   40  C19 UNL     1      12.397  -6.505   0.092  1.00  0.00     0.180 C 
HETATM   41  C20 UNL     1      12.485  -6.003   1.517  1.00  0.00     0.183 C 
HETATM   42  C21 UNL     1      12.488  -4.495   1.443  1.00  0.00     0.204 C 
BRANCH  39  43
HETATM   43  C18 UNL     1      11.327  -5.763  -2.046  1.00  0.00     0.198 C 
BRANCH  43  44
HETATM   44  O11 UNL     1      10.637  -6.709  -2.801  1.00  0.00    -0.398 OA
ATOM     45  H11 UNL     1       9.851  -6.343  -3.190  1.00  0.00     0.209 HD
ENDBRANCH  43  44
ENDBRANCH  39  43
BRANCH  40  46
HETATM   46  O12 UNL     1      12.455  -7.897   0.137  1.00  0.00    -0.390 OA
ATOM     47  H12 UNL     1      12.398  -8.242   1.020  1.00  0.00     0.210 HD
ENDBRANCH  40  46
BRANCH  41  48
HETATM   48  O13 UNL     1      11.468  -6.469   2.320  1.00  0.00    -0.390 OA
ATOM     49  H13 UNL     1      10.865  -5.788   2.594  1.00  0.00     0.210 HD
ENDBRANCH  41  48
BRANCH  42  50
HETATM   50  O14 UNL     1      13.747  -4.117   0.969  1.00  0.00    -0.388 OA
ATOM     51  H14 UNL     1      14.425  -4.732   1.222  1.00  0.00     0.210 HD
ENDBRANCH  42  50
ENDBRANCH  36  37
ENDBRANCH   5  36
BRANCH   4  52
HETATM   52  C13 UNL     1      11.855  -2.233   4.357  1.00  0.00     0.066 C 
BRANCH  52  53
HETATM   53  C14 UNL     1      13.202  -1.834   3.830  1.00  0.00     0.224 C 
HETATM   54  F1  UNL     1      13.716  -0.758   4.521  1.00  0.00    -0.255 F 
ENDBRANCH  52  53
ENDBRANCH   4  52
TORSDOF 22
ENDMDL
MODEL 5
REMARK VINA RESULT: -9.157024606      1.601      2.471
REMARK  22 active torsions:
REMARK  status: ('A' for Active; 'I' for Inactive)
REMARK    1  A    between atoms: O1_1  and  C1_3 
REMARK    2  A    between atoms: C1_3  and  C2_4 
REMARK    3  A    between atoms: C4_7  and  O3_8 
REMARK    4  A    between atoms: O3_8  and  C5_9 
REMARK    5  A    between atoms: C6_10  and  C7_11 
REMARK    6  A    between atoms: C7_11  and  O4_12 
REMARK    7  A    between atoms: C8_15  and  O6_16 
REMARK    8  A    between atoms: O6_16  and  C9_17 
REMARK    9  A    between atoms: C10_18  and  C11_19 
REMARK   10  A    between atoms: C11_19  and  O7_20 
REMARK   11  A    between atoms: C12_23  and  C13_24 
REMARK   12  A    between atoms: C13_24  and  C14_25 
REMARK   13  A    between atoms: C15_27  and  O9_28 
REMARK   14  A    between atoms: O9_28  and  C16_29 
REMARK   15  A    between atoms: C17_31  and  C18_32 
REMARK   16  A    between atoms: C18_32  and  O11_33 
REMARK   17  A    between atoms: C19_35  and  O12_36 
REMARK   18  A    between atoms: C20_38  and  O13_39 
REMARK   19  A    between atoms: C21_41  and  O14_42 
REMARK   20  A    between atoms: C22_44  and  O15_45 
REMARK   21  A    between atoms: C23_47  and  O16_48 
REMARK   22  A    between atoms: C24_50  and  O17_51 
ROOT
HETATM    1  C9  UNL     1      10.575   1.130  -0.144  1.00  0.00     0.187 C 
HETATM    2  C10 UNL     1      10.428   1.962   1.107  1.00  0.00     0.177 C 
HETATM    3  O8  UNL     1      10.393   1.287   2.252  1.00  0.00    -0.373 OA
HETATM    4  C12 UNL     1      10.880   0.061   2.431  1.00  0.00     0.156 C 
HETATM    5  C15 UNL     1      11.476  -0.721   1.328  1.00  0.00     0.185 C 
HETATM    6  C22 UNL     1      11.511  -0.011   0.027  1.00  0.00     0.181 C 
ENDROOT
BRANCH   1   7
HETATM    7  O6  UNL     1      11.000   2.024  -1.129  1.00  0.00    -0.348 OA
BRANCH   7   8
HETATM    8  C8  UNL     1       9.955   2.665  -1.785  1.00  0.00     0.292 C 
HETATM    9  O5  UNL     1      10.087   4.042  -1.771  1.00  0.00    -0.348 OA
HETATM   10  C6  UNL     1       8.913   4.607  -2.201  1.00  0.00     0.180 C 
HETATM   11  C5  UNL     1       8.355   4.121  -3.483  1.00  0.00     0.187 C 
HETATM   12  C24 UNL     1       8.814   2.758  -3.919  1.00  0.00     0.183 C 
HETATM   13  C23 UNL     1      10.060   2.274  -3.259  1.00  0.00     0.204 C 
BRANCH  10  14
HETATM   14  C7  UNL     1       9.106   6.127  -2.314  1.00  0.00     0.198 C 
BRANCH  14  15
HETATM   15  O4  UNL     1       8.005   6.814  -1.800  1.00  0.00    -0.398 OA
ATOM     16  H4  UNL     1       7.191   6.458  -2.137  1.00  0.00     0.209 HD
ENDBRANCH  14  15
ENDBRANCH  10  14
BRANCH  11  17
HETATM   17  O3  UNL     1       6.943   4.151  -3.362  1.00  0.00    -0.349 OA
BRANCH  17  18
HETATM   18  C4  UNL     1       6.328   4.989  -4.240  1.00  0.00     0.284 C 
HETATM   19  O2  UNL     1       6.013   6.165  -3.510  1.00  0.00    -0.356 OA
HETATM   20  C3  UNL     1       5.100   6.854  -4.289  1.00  0.00     0.205 C 
HETATM   21  C2  UNL     1       5.496   7.066  -5.706  1.00  0.00     0.169 C 
HETATM   22  O18 UNL     1       6.285   6.103  -6.274  1.00  0.00    -0.377 OA
HETATM   23  C25 UNL     1       7.154   5.461  -5.397  1.00  0.00     0.229 C 
BRANCH  21  24
HETATM   24  C1  UNL     1       4.193   7.111  -6.519  1.00  0.00     0.198 C 
BRANCH  24  25
HETATM   25  O1  UNL     1       4.203   6.171  -7.547  1.00  0.00    -0.398 OA
ATOM     26  H1  UNL     1       3.480   6.308  -8.147  1.00  0.00     0.209 HD
ENDBRANCH  24  25
ENDBRANCH  21  24
ENDBRANCH  17  18
ENDBRANCH  11  17
BRANCH  12  27
HETATM   27  O17 UNL     1       9.016   2.723  -5.297  1.00  0.00    -0.390 OA
ATOM     28  H17 UNL     1       8.988   3.599  -5.664  1.00  0.00     0.210 HD
ENDBRANCH  12  27
BRANCH  13  29
HETATM   29  O16 UNL     1      10.176   0.915  -3.437  1.00  0.00    -0.388 OA
ATOM     30  H16 UNL     1      11.073   0.643  -3.587  1.00  0.00     0.210 HD
ENDBRANCH  13  29
ENDBRANCH   7   8
ENDBRANCH   1   7
BRANCH   2  31
HETATM   31  C11 UNL     1      11.518   3.034   1.178  1.00  0.00     0.198 C 
BRANCH  31  32
HETATM   32  O7  UNL     1      10.999   4.297   1.000  1.00  0.00    -0.398 OA
ATOM     33  H7  UNL     1      10.851   4.487   0.081  1.00  0.00     0.209 HD
ENDBRANCH  31  32
ENDBRANCH   2  31
BRANCH   6  34
HETATM   34  O15 UNL     1      12.808   0.444  -0.305  1.00  0.00    -0.390 OA
ATOM     35  H15 UNL     1      13.247  -0.253  -0.779  1.00  0.00     0.210 HD
ENDBRANCH   6  34
BRANCH   5  36
HETATM   36  O9  UNL     1      10.743  -1.925   1.255  1.00  0.00    -0.348 OA
BRANCH  36  37
HETATM   37  C16 UNL     1      11.529  -2.984   0.812  1.00  0.00     0.292 C 
HETATM   38  O10 UNL     1      10.745  -4.125   0.919  1.00  0.00    -0.348 OA
HETATM   39  C17 UNL     1      11.398  -5.315   0.787  1.00  0.00     0.179 C 
HETATM   40  C19 UNL     1      12.724  -5.420   1.473  1.00  0.00     0.180 C 
HETATM   41  C20 UNL     1      12.859  -4.306   2.488  1.00  0.00     0.183 C 
HETATM   42  C21 UNL     1      12.741  -3.009   1.723  1.00  0.00     0.204 C 
BRANCH  39  43
HETATM   43  C18 UNL     1      11.472  -5.809  -0.660  1.00  0.00     0.198 C 
BRANCH  43  44
HETATM   44  O11 UNL     1      10.950  -7.093  -0.795  1.00  0.00    -0.398 OA
ATOM     45  H11 UNL     1      11.520  -7.747  -0.407  1.00  0.00     0.209 HD
ENDBRANCH  43  44
ENDBRANCH  39  43
BRANCH  40  46
HETATM   46  O12 UNL     1      12.892  -6.625   2.152  1.00  0.00    -0.390 OA
ATOM     47  H12 UNL     1      13.314  -6.520   2.996  1.00  0.00     0.210 HD
ENDBRANCH  40  46
BRANCH  41  48
HETATM   48  O13 UNL     1      11.932  -4.382   3.503  1.00  0.00    -0.390 OA
ATOM     49  H13 UNL     1      11.680  -3.531   3.845  1.00  0.00     0.210 HD
ENDBRANCH  41  48
BRANCH  42  50
HETATM   50  O14 UNL     1      13.937  -2.848   1.018  1.00  0.00    -0.388 OA
ATOM     51  H14 UNL     1      14.643  -2.544   1.574  1.00  0.00     0.210 HD
ENDBRANCH  42  50
ENDBRANCH  36  37
ENDBRANCH   5  36
BRANCH   4  52
HETATM   52  C13 UNL     1      11.975   0.185   3.528  1.00  0.00     0.066 C 
BRANCH  52  53
HETATM   53  C14 UNL     1      11.807  -0.899   4.551  1.00  0.00     0.224 C 
HETATM   54  F1  UNL     1      13.005  -1.516   4.834  1.00  0.00    -0.255 F 
ENDBRANCH  52  53
ENDBRANCH   4  52
TORSDOF 22
ENDMDL
