MODEL 1
REMARK VINA RESULT: -8.953698796      0.000      0.000
REMARK  22 active torsions:
REMARK  status: ('A' for Active; 'I' for Inactive)
REMARK    1  A    between atoms: C2_2  and  N1_3 
REMARK    2  A    between atoms: C3_7  and  O1_8 
REMARK    3  A    between atoms: C4_10  and  N2_11 
REMARK    4  A    between atoms: C6_16  and  N3_17 
REMARK    5  A    between atoms: C7_21  and  O2_22 
REMARK    6  A    between atoms: O2_22  and  C8_23 
REMARK    7  A    between atoms: C9_25  and  C10_26 
REMARK    8  A    between atoms: C10_26  and  N4_27 
REMARK    9  A    between atoms: C11_31  and  O4_32 
REMARK   10  A    between atoms: O4_32  and  C12_33 
REMARK   11  A    between atoms: C13_34  and  O5_35 
REMARK   12  A    between atoms: C14_37  and  C15_38 
REMARK   13  A    between atoms: C15_38  and  S1_39 
REMARK   14  A    between atoms: S1_39  and  C16_40 
REMARK   15  A    between atoms: C16_40  and  C17_41 
REMARK   16  A    between atoms: C18_44  and  C19_45 
REMARK   17  A    between atoms: C19_45  and  O7_46 
REMARK   18  A    between atoms: C20_48  and  O8_49 
REMARK   19  A    between atoms: O8_49  and  C21_50 
REMARK   20  A    between atoms: C22_51  and  N5_52 
REMARK   21  A    between atoms: C24_57  and  O9_58 
REMARK   22  A    between atoms: C25_60  and  N6_61 
ROOT
HETATM    1  O4  UNL     1      10.196   1.909  -0.396  1.00  0.00    -0.348 OA
ENDROOT
BRANCH   1   2
HETATM    2  C11 UNL     1      10.960   0.935   0.149  1.00  0.00     0.296 C 
HETATM    3  C9  UNL     1      11.817   0.274  -0.893  1.00  0.00     0.207 C 
HETATM    4  O3  UNL     1      12.211  -0.872  -0.159  1.00  0.00    -0.327 OA
HETATM    5  C8  UNL     1      11.313  -1.040   0.855  1.00  0.00     0.416 C 
HETATM    6  O10 UNL     1      10.211  -0.194   0.552  1.00  0.00    -0.305 OA
BRANCH   3   7
HETATM    7  C10 UNL     1      10.915  -0.241  -1.992  1.00  0.00     0.266 C 
BRANCH   7   8
HETATM    8  N4  UNL     1      10.967   0.529  -3.200  1.00  0.00    -0.077 N 
ATOM      9  H43 UNL     1      11.928   0.797  -3.412  1.00  0.00     0.274 HD
ATOM     10  H42 UNL     1      10.770  -0.060  -4.009  1.00  0.00     0.274 HD
ATOM     11  H41 UNL     1      10.360   1.348  -3.197  1.00  0.00     0.274 HD
ENDBRANCH   7   8
ENDBRANCH   3   7
BRANCH   5  12
HETATM   12  O2  UNL     1      10.934  -2.295   1.183  1.00  0.00    -0.329 OA
BRANCH  12  13
HETATM   13  C7  UNL     1      11.721  -3.310   0.626  1.00  0.00     0.195 C 
HETATM   14  C2  UNL     1      12.466  -3.949   1.758  1.00  0.00     0.175 C 
HETATM   15  C1  UNL     1      13.734  -3.228   2.147  1.00  0.00     0.052 C 
HETATM   16  C3  UNL     1      12.827  -5.391   1.465  1.00  0.00     0.186 C 
HETATM   17  C4  UNL     1      11.480  -6.101   1.386  1.00  0.00     0.216 C 
HETATM   18  C5  UNL     1      10.782  -5.624   0.168  1.00  0.00     0.071 C 
HETATM   19  C6  UNL     1      10.916  -4.211  -0.217  1.00  0.00     0.217 C 
BRANCH  14  20
HETATM   20  N1  UNL     1      11.640  -3.981   2.963  1.00  0.00    -0.066 N 
ATOM     21  H13 UNL     1      11.994  -3.392   3.716  1.00  0.00     0.275 HD
ATOM     22  H12 UNL     1      10.740  -3.513   2.854  1.00  0.00     0.275 HD
ATOM     23  H11 UNL     1      11.559  -4.966   3.219  1.00  0.00     0.275 HD
ENDBRANCH  14  20
BRANCH  16  24
HETATM   24  O1  UNL     1      13.546  -5.878   2.548  1.00  0.00    -0.391 OA
ATOM     25  H1  UNL     1      14.389  -6.175   2.228  1.00  0.00     0.210 HD
ENDBRANCH  16  24
BRANCH  17  26
HETATM   26  N2  UNL     1      11.769  -7.514   1.279  1.00  0.00    -0.072 N 
ATOM     27  H23 UNL     1      11.900  -7.970   2.182  1.00  0.00     0.274 HD
ATOM     28  H22 UNL     1      10.969  -8.068   0.972  1.00  0.00     0.274 HD
ATOM     29  H21 UNL     1      12.578  -7.598   0.663  1.00  0.00     0.274 HD
ENDBRANCH  17  26
BRANCH  19  30
HETATM   30  N3  UNL     1      11.369  -4.164  -1.623  1.00  0.00    -0.072 N 
ATOM     31  H33 UNL     1      10.650  -3.816  -2.259  1.00  0.00     0.274 HD
ATOM     32  H32 UNL     1      12.063  -3.435  -1.791  1.00  0.00     0.274 HD
ATOM     33  H31 UNL     1      11.703  -5.094  -1.877  1.00  0.00     0.274 HD
ENDBRANCH  19  30
ENDBRANCH  12  13
ENDBRANCH   5  12
ENDBRANCH   1   2
BRANCH   1  34
HETATM   34  C12 UNL     1      10.518   3.215  -0.065  1.00  0.00     0.187 C 
HETATM   35  C13 UNL     1      11.190   3.058   1.319  1.00  0.00     0.179 C 
HETATM   36  C14 UNL     1      10.036   2.890   2.289  1.00  0.00     0.162 C 
HETATM   37  O6  UNL     1       9.497   4.156   2.407  1.00  0.00    -0.372 OA
HETATM   38  C18 UNL     1       8.825   4.499   1.275  1.00  0.00     0.177 C 
HETATM   39  C20 UNL     1       9.423   4.197  -0.048  1.00  0.00     0.184 C 
BRANCH  35  40
HETATM   40  O5  UNL     1      11.897   4.202   1.668  1.00  0.00    -0.390 OA
ATOM     41  H5  UNL     1      11.698   4.473   2.557  1.00  0.00     0.210 HD
ENDBRANCH  35  40
BRANCH  36  42
HETATM   42  C15 UNL     1      10.562   2.330   3.567  1.00  0.00     0.108 C 
BRANCH  42  43
HETATM   43  S1  UNL     1       9.749   0.759   3.912  1.00  0.00    -0.164 SA
BRANCH  43  44
HETATM   44  C16 UNL     1      10.747  -0.278   5.026  1.00  0.00     0.105 C 
BRANCH  44  45
HETATM   45  C17 UNL     1      11.984  -0.692   4.278  1.00  0.00     0.232 C 
HETATM   46  F1  UNL     1      12.644  -1.676   4.994  1.00  0.00    -0.255 F 
ENDBRANCH  44  45
ENDBRANCH  43  44
ENDBRANCH  42  43
ENDBRANCH  36  42
BRANCH  38  47
HETATM   47  C19 UNL     1       8.512   6.002   1.425  1.00  0.00     0.198 C 
BRANCH  47  48
HETATM   48  O7  UNL     1       7.381   6.334   0.683  1.00  0.00    -0.398 OA
ATOM     49  H7  UNL     1       6.669   6.577   1.262  1.00  0.00     0.209 HD
ENDBRANCH  47  48
ENDBRANCH  38  47
BRANCH  39  50
HETATM   50  O8  UNL     1       8.376   3.907  -0.921  1.00  0.00    -0.370 OA
BRANCH  50  51
HETATM   51  C21 UNL     1       8.665   4.074  -2.256  1.00  0.00     0.193 C 
HETATM   52  C22 UNL     1       8.638   5.473  -2.745  1.00  0.00     0.239 C 
HETATM   53  C23 UNL     1       8.279   5.320  -4.174  1.00  0.00     0.042 C 
HETATM   54  C24 UNL     1       7.694   4.150  -4.359  1.00  0.00     0.074 C 
HETATM   55  C25 UNL     1       7.598   3.403  -3.092  1.00  0.00     0.270 C 
BRANCH  52  56
HETATM   56  N5  UNL     1       7.594   6.303  -2.148  1.00  0.00    -0.069 N 
ATOM     57  H53 UNL     1       7.327   7.052  -2.787  1.00  0.00     0.275 HD
ATOM     58  H52 UNL     1       6.714   5.789  -2.103  1.00  0.00     0.275 HD
ATOM     59  H51 UNL     1       7.830   6.685  -1.232  1.00  0.00     0.275 HD
ENDBRANCH  52  56
BRANCH  54  60
HETATM   60  O9  UNL     1       7.226   3.673  -5.572  1.00  0.00    -0.363 OA
ATOM     61  H9  UNL     1       7.769   3.437  -6.314  1.00  0.00     0.217 HD
ENDBRANCH  54  60
BRANCH  55  62
HETATM   62  N6  UNL     1       7.908   2.000  -3.317  1.00  0.00    -0.067 N 
ATOM     63  H63 UNL     1       8.488   1.873  -4.147  1.00  0.00     0.275 HD
ATOM     64  H62 UNL     1       8.558   1.644  -2.617  1.00  0.00     0.275 HD
ATOM     65  H61 UNL     1       7.059   1.436  -3.362  1.00  0.00     0.275 HD
ENDBRANCH  55  62
ENDBRANCH  50  51
ENDBRANCH  39  50
ENDBRANCH   1  34
TORSDOF 22
ENDMDL
MODEL 2
REMARK VINA RESULT: -8.452876715      1.682      1.983
REMARK  22 active torsions:
REMARK  status: ('A' for Active; 'I' for Inactive)
REMARK    1  A    between atoms: C2_2  and  N1_3 
REMARK    2  A    between atoms: C3_7  and  O1_8 
REMARK    3  A    between atoms: C4_10  and  N2_11 
REMARK    4  A    between atoms: C6_16  and  N3_17 
REMARK    5  A    between atoms: C7_21  and  O2_22 
REMARK    6  A    between atoms: O2_22  and  C8_23 
REMARK    7  A    between atoms: C9_25  and  C10_26 
REMARK    8  A    between atoms: C10_26  and  N4_27 
REMARK    9  A    between atoms: C11_31  and  O4_32 
REMARK   10  A    between atoms: O4_32  and  C12_33 
REMARK   11  A    between atoms: C13_34  and  O5_35 
REMARK   12  A    between atoms: C14_37  and  C15_38 
REMARK   13  A    between atoms: C15_38  and  S1_39 
REMARK   14  A    between atoms: S1_39  and  C16_40 
REMARK   15  A    between atoms: C16_40  and  C17_41 
REMARK   16  A    between atoms: C18_44  and  C19_45 
REMARK   17  A    between atoms: C19_45  and  O7_46 
REMARK   18  A    between atoms: C20_48  and  O8_49 
REMARK   19  A    between atoms: O8_49  and  C21_50 
REMARK   20  A    between atoms: C22_51  and  N5_52 
REMARK   21  A    between atoms: C24_57  and  O9_58 
REMARK   22  A    between atoms: C25_60  and  N6_61 
ROOT
HETATM    1  O4  UNL     1      10.216   1.943  -0.387  1.00  0.00    -0.348 OA
ENDROOT
BRANCH   1   2
HETATM    2  C11 UNL     1      10.974   0.968   0.165  1.00  0.00     0.296 C 
HETATM    3  C9  UNL     1      11.830   0.297  -0.872  1.00  0.00     0.207 C 
HETATM    4  O3  UNL     1      12.216  -0.847  -0.133  1.00  0.00    -0.327 OA
HETATM    5  C8  UNL     1      11.314  -1.006   0.880  1.00  0.00     0.416 C 
HETATM    6  O10 UNL     1      10.218  -0.156   0.571  1.00  0.00    -0.305 OA
BRANCH   3   7
HETATM    7  C10 UNL     1      10.928  -0.218  -1.971  1.00  0.00     0.266 C 
BRANCH   7   8
HETATM    8  N4  UNL     1      11.057   0.489  -3.212  1.00  0.00    -0.077 N 
ATOM      9  H43 UNL     1      10.685  -0.068  -3.981  1.00  0.00     0.274 HD
ATOM     10  H42 UNL     1      10.411   1.278  -3.242  1.00  0.00     0.274 HD
ATOM     11  H41 UNL     1      12.007   0.796  -3.419  1.00  0.00     0.274 HD
ENDBRANCH   7   8
ENDBRANCH   3   7
BRANCH   5  12
HETATM   12  O2  UNL     1      10.929  -2.258   1.213  1.00  0.00    -0.329 OA
BRANCH  12  13
HETATM   13  C7  UNL     1      11.714  -3.279   0.666  1.00  0.00     0.195 C 
HETATM   14  C2  UNL     1      12.457  -3.908   1.804  1.00  0.00     0.175 C 
HETATM   15  C1  UNL     1      13.727  -3.185   2.187  1.00  0.00     0.052 C 
HETATM   16  C3  UNL     1      12.816  -5.353   1.525  1.00  0.00     0.186 C 
HETATM   17  C4  UNL     1      11.469  -6.063   1.453  1.00  0.00     0.216 C 
HETATM   18  C5  UNL     1      10.772  -5.596   0.230  1.00  0.00     0.071 C 
HETATM   19  C6  UNL     1      10.908  -4.187  -0.169  1.00  0.00     0.217 C 
BRANCH  14  20
HETATM   20  N1  UNL     1      11.631  -3.927   3.009  1.00  0.00    -0.066 N 
ATOM     21  H13 UNL     1      10.631  -3.870   2.819  1.00  0.00     0.275 HD
ATOM     22  H12 UNL     1      11.615  -4.833   3.479  1.00  0.00     0.275 HD
ATOM     23  H11 UNL     1      11.979  -3.169   3.597  1.00  0.00     0.275 HD
ENDBRANCH  14  20
BRANCH  16  24
HETATM   24  O1  UNL     1      13.534  -5.831   2.614  1.00  0.00    -0.391 OA
ATOM     25  H1  UNL     1      14.216  -6.405   2.284  1.00  0.00     0.210 HD
ENDBRANCH  16  24
BRANCH  17  26
HETATM   26  N2  UNL     1      11.756  -7.477   1.360  1.00  0.00    -0.072 N 
ATOM     27  H23 UNL     1      12.745  -7.680   1.215  1.00  0.00     0.274 HD
ATOM     28  H22 UNL     1      11.653  -7.970   2.247  1.00  0.00     0.274 HD
ATOM     29  H21 UNL     1      11.156  -7.845   0.621  1.00  0.00     0.274 HD
ENDBRANCH  17  26
BRANCH  19  30
HETATM   30  N3  UNL     1      11.361  -4.155  -1.575  1.00  0.00    -0.072 N 
ATOM     31  H33 UNL     1      11.645  -5.072  -1.920  1.00  0.00     0.274 HD
ATOM     32  H32 UNL     1      10.598  -3.992  -2.232  1.00  0.00     0.274 HD
ATOM     33  H31 UNL     1      12.103  -3.458  -1.650  1.00  0.00     0.274 HD
ENDBRANCH  19  30
ENDBRANCH  12  13
ENDBRANCH   5  12
ENDBRANCH   1   2
BRANCH   1  34
HETATM   34  C12 UNL     1      10.631   3.248  -0.178  1.00  0.00     0.187 C 
HETATM   35  C13 UNL     1      11.085   3.229   1.300  1.00  0.00     0.179 C 
HETATM   36  C14 UNL     1       9.797   3.304   2.097  1.00  0.00     0.162 C 
HETATM   37  O6  UNL     1       9.388   4.617   1.971  1.00  0.00    -0.372 OA
HETATM   38  C18 UNL     1       8.920   4.855   0.716  1.00  0.00     0.177 C 
HETATM   39  C20 UNL     1       9.658   4.317  -0.452  1.00  0.00     0.184 C 
BRANCH  35  40
HETATM   40  O5  UNL     1      11.858   4.343   1.604  1.00  0.00    -0.390 OA
ATOM     41  H5  UNL     1      11.537   4.782   2.383  1.00  0.00     0.210 HD
ENDBRANCH  35  40
BRANCH  36  42
HETATM   42  C15 UNL     1      10.077   2.885   3.500  1.00  0.00     0.108 C 
BRANCH  42  43
HETATM   43  S1  UNL     1       8.607   2.111   4.201  1.00  0.00    -0.164 SA
BRANCH  43  44
HETATM   44  C16 UNL     1       7.116   3.104   3.887  1.00  0.00     0.105 C 
BRANCH  44  45
HETATM   45  C17 UNL     1       7.128   4.262   4.846  1.00  0.00     0.232 C 
HETATM   46  F1  UNL     1       6.621   3.850   6.067  1.00  0.00    -0.255 F 
ENDBRANCH  44  45
ENDBRANCH  43  44
ENDBRANCH  42  43
ENDBRANCH  36  42
BRANCH  38  47
HETATM   47  C19 UNL     1       8.756   6.386   0.626  1.00  0.00     0.198 C 
BRANCH  47  48
HETATM   48  O7  UNL     1       8.796   6.796  -0.705  1.00  0.00    -0.398 OA
ATOM     49  H7  UNL     1       9.331   7.576  -0.792  1.00  0.00     0.209 HD
ENDBRANCH  47  48
ENDBRANCH  38  47
BRANCH  39  50
HETATM   50  O8  UNL     1       8.716   4.002  -1.429  1.00  0.00    -0.370 OA
BRANCH  50  51
HETATM   51  C21 UNL     1       9.238   3.598  -2.636  1.00  0.00     0.193 C 
HETATM   52  C22 UNL     1       9.792   4.679  -3.486  1.00  0.00     0.239 C 
HETATM   53  C23 UNL     1       9.617   4.148  -4.858  1.00  0.00     0.042 C 
HETATM   54  C24 UNL     1       8.681   3.215  -4.853  1.00  0.00     0.074 C 
HETATM   55  C25 UNL     1       8.136   3.023  -3.498  1.00  0.00     0.270 C 
BRANCH  52  56
HETATM   56  N5  UNL     1       9.044   5.933  -3.434  1.00  0.00    -0.069 N 
ATOM     57  H53 UNL     1       9.445   6.612  -4.081  1.00  0.00     0.275 HD
ATOM     58  H52 UNL     1       8.122   5.814  -3.853  1.00  0.00     0.275 HD
ATOM     59  H51 UNL     1       8.962   6.337  -2.502  1.00  0.00     0.275 HD
ENDBRANCH  52  56
BRANCH  54  60
HETATM   60  O9  UNL     1       8.256   2.504  -5.963  1.00  0.00    -0.363 OA
ATOM     61  H9  UNL     1       8.694   2.490  -6.805  1.00  0.00     0.217 HD
ENDBRANCH  54  60
BRANCH  55  62
HETATM   62  N6  UNL     1       7.947   1.605  -3.234  1.00  0.00    -0.067 N 
ATOM     63  H63 UNL     1       7.235   1.449  -2.520  1.00  0.00     0.275 HD
ATOM     64  H62 UNL     1       7.489   1.137  -4.016  1.00  0.00     0.275 HD
ATOM     65  H61 UNL     1       8.828   1.153  -2.990  1.00  0.00     0.275 HD
ENDBRANCH  55  62
ENDBRANCH  50  51
ENDBRANCH  39  50
ENDBRANCH   1  34
TORSDOF 22
ENDMDL
MODEL 3
REMARK VINA RESULT: -8.446404688      2.224      2.812
REMARK  22 active torsions:
REMARK  status: ('A' for Active; 'I' for Inactive)
REMARK    1  A    between atoms: C2_2  and  N1_3 
REMARK    2  A    between atoms: C3_7  and  O1_8 
REMARK    3  A    between atoms: C4_10  and  N2_11 
REMARK    4  A    between atoms: C6_16  and  N3_17 
REMARK    5  A    between atoms: C7_21  and  O2_22 
REMARK    6  A    between atoms: O2_22  and  C8_23 
REMARK    7  A    between atoms: C9_25  and  C10_26 
REMARK    8  A    between atoms: C10_26  and  N4_27 
REMARK    9  A    between atoms: C11_31  and  O4_32 
REMARK   10  A    between atoms: O4_32  and  C12_33 
REMARK   11  A    between atoms: C13_34  and  O5_35 
REMARK   12  A    between atoms: C14_37  and  C15_38 
REMARK   13  A    between atoms: C15_38  and  S1_39 
REMARK   14  A    between atoms: S1_39  and  C16_40 
REMARK   15  A    between atoms: C16_40  and  C17_41 
REMARK   16  A    between atoms: C18_44  and  C19_45 
REMARK   17  A    between atoms: C19_45  and  O7_46 
REMARK   18  A    between atoms: C20_48  and  O8_49 
REMARK   19  A    between atoms: O8_49  and  C21_50 
REMARK   20  A    between atoms: C22_51  and  N5_52 
REMARK   21  A    between atoms: C24_57  and  O9_58 
REMARK   22  A    between atoms: C25_60  and  N6_61 
ROOT
HETATM    1  O4  UNL     1       9.805   1.934   0.102  1.00  0.00    -0.348 OA
ENDROOT
BRANCH   1   2
HETATM    2  C11 UNL     1      10.667   0.984   0.532  1.00  0.00     0.296 C 
HETATM    3  C9  UNL     1      11.965   1.051  -0.222  1.00  0.00     0.207 C 
HETATM    4  O3  UNL     1      12.502  -0.205   0.152  1.00  0.00    -0.327 OA
HETATM    5  C8  UNL     1      11.465  -0.988   0.571  1.00  0.00     0.416 C 
HETATM    6  O10 UNL     1      10.277  -0.324   0.161  1.00  0.00    -0.305 OA
BRANCH   3   7
HETATM    7  C10 UNL     1      11.662   0.938  -1.699  1.00  0.00     0.266 C 
BRANCH   7   8
HETATM    8  N4  UNL     1      12.346   1.901  -2.511  1.00  0.00    -0.077 N 
ATOM      9  H43 UNL     1      12.778   2.617  -1.929  1.00  0.00     0.274 HD
ATOM     10  H42 UNL     1      13.182   1.489  -2.927  1.00  0.00     0.274 HD
ATOM     11  H41 UNL     1      11.762   2.328  -3.230  1.00  0.00     0.274 HD
ENDBRANCH   7   8
ENDBRANCH   3   7
BRANCH   5  12
HETATM   12  O2  UNL     1      11.471  -2.299   0.247  1.00  0.00    -0.329 OA
BRANCH  12  13
HETATM   13  C7  UNL     1      11.067  -3.159   1.275  1.00  0.00     0.195 C 
HETATM   14  C2  UNL     1      11.944  -4.372   1.191  1.00  0.00     0.175 C 
HETATM   15  C1  UNL     1      11.476  -5.403   0.193  1.00  0.00     0.052 C 
HETATM   16  C3  UNL     1      12.095  -5.063   2.531  1.00  0.00     0.186 C 
HETATM   17  C4  UNL     1      12.849  -4.051   3.387  1.00  0.00     0.216 C 
HETATM   18  C5  UNL     1      11.943  -2.905   3.644  1.00  0.00     0.071 C 
HETATM   19  C6  UNL     1      11.036  -2.465   2.574  1.00  0.00     0.217 C 
BRANCH  14  20
HETATM   20  N1  UNL     1      13.296  -4.001   0.778  1.00  0.00    -0.066 N 
ATOM     21  H13 UNL     1      13.983  -4.739   0.925  1.00  0.00     0.275 HD
ATOM     22  H12 UNL     1      13.408  -3.928  -0.233  1.00  0.00     0.275 HD
ATOM     23  H11 UNL     1      13.512  -3.137   1.276  1.00  0.00     0.275 HD
ENDBRANCH  14  20
BRANCH  16  24
HETATM   24  O1  UNL     1      12.885  -6.190   2.342  1.00  0.00    -0.391 OA
ATOM     25  H1  UNL     1      12.686  -6.805   3.038  1.00  0.00     0.210 HD
ENDBRANCH  16  24
BRANCH  17  26
HETATM   26  N2  UNL     1      13.173  -4.724   4.625  1.00  0.00    -0.072 N 
ATOM     27  H23 UNL     1      13.009  -4.149   5.452  1.00  0.00     0.274 HD
ATOM     28  H22 UNL     1      12.523  -5.474   4.860  1.00  0.00     0.274 HD
ATOM     29  H21 UNL     1      14.139  -5.039   4.538  1.00  0.00     0.274 HD
ENDBRANCH  17  26
BRANCH  19  30
HETATM   30  N3  UNL     1       9.665  -2.435   3.124  1.00  0.00    -0.072 N 
ATOM     31  H33 UNL     1       9.060  -3.149   2.717  1.00  0.00     0.274 HD
ATOM     32  H32 UNL     1       9.620  -2.754   4.091  1.00  0.00     0.274 HD
ATOM     33  H31 UNL     1       9.298  -1.491   3.002  1.00  0.00     0.274 HD
ENDBRANCH  19  30
ENDBRANCH  12  13
ENDBRANCH   5  12
ENDBRANCH   1   2
BRANCH   1  34
HETATM   34  C12 UNL     1      10.126   3.248   0.401  1.00  0.00     0.187 C 
HETATM   35  C13 UNL     1      10.238   3.229   1.943  1.00  0.00     0.179 C 
HETATM   36  C14 UNL     1       8.803   3.263   2.432  1.00  0.00     0.162 C 
HETATM   37  O6  UNL     1       8.396   4.565   2.220  1.00  0.00    -0.372 OA
HETATM   38  C18 UNL     1       8.214   4.801   0.893  1.00  0.00     0.177 C 
HETATM   39  C20 UNL     1       9.209   4.292  -0.082  1.00  0.00     0.184 C 
BRANCH  35  40
HETATM   40  O5  UNL     1      10.892   4.360   2.414  1.00  0.00    -0.390 OA
ATOM     41  H5  UNL     1      10.373   4.810   3.071  1.00  0.00     0.210 HD
ENDBRANCH  35  40
BRANCH  36  42
HETATM   42  C15 UNL     1       8.774   2.840   3.862  1.00  0.00     0.108 C 
BRANCH  42  43
HETATM   43  S1  UNL     1       7.068   2.804   4.443  1.00  0.00    -0.164 SA
BRANCH  43  44
HETATM   44  C16 UNL     1       6.671   4.273   5.440  1.00  0.00     0.105 C 
BRANCH  44  45
HETATM   45  C17 UNL     1       5.757   3.836   6.552  1.00  0.00     0.232 C 
HETATM   46  F1  UNL     1       5.626   2.458   6.522  1.00  0.00    -0.255 F 
ENDBRANCH  44  45
ENDBRANCH  43  44
ENDBRANCH  42  43
ENDBRANCH  36  42
BRANCH  38  47
HETATM   47  C19 UNL     1       8.031   6.328   0.771  1.00  0.00     0.198 C 
BRANCH  47  48
HETATM   48  O7  UNL     1       7.477   6.648  -0.466  1.00  0.00    -0.398 OA
ATOM     49  H7  UNL     1       8.152   6.961  -1.057  1.00  0.00     0.209 HD
ENDBRANCH  47  48
ENDBRANCH  38  47
BRANCH  39  50
HETATM   50  O8  UNL     1       8.518   3.960  -1.245  1.00  0.00    -0.370 OA
BRANCH  50  51
HETATM   51  C21 UNL     1       9.310   3.696  -2.340  1.00  0.00     0.193 C 
HETATM   52  C22 UNL     1       9.870   4.886  -3.023  1.00  0.00     0.239 C 
HETATM   53  C23 UNL     1      10.031   4.423  -4.421  1.00  0.00     0.042 C 
HETATM   54  C24 UNL     1       9.241   3.386  -4.635  1.00  0.00     0.074 C 
HETATM   55  C25 UNL     1       8.476   3.047  -3.422  1.00  0.00     0.270 C 
BRANCH  52  56
HETATM   56  N5  UNL     1       8.970   6.036  -3.074  1.00  0.00    -0.069 N 
ATOM     57  H53 UNL     1       8.990   6.542  -2.188  1.00  0.00     0.275 HD
ATOM     58  H52 UNL     1       9.344   6.753  -3.695  1.00  0.00     0.275 HD
ATOM     59  H51 UNL     1       8.009   5.809  -3.331  1.00  0.00     0.275 HD
ENDBRANCH  52  56
BRANCH  54  60
HETATM   60  O9  UNL     1       9.131   2.699  -5.832  1.00  0.00    -0.363 OA
ATOM     61  H9  UNL     1       8.442   2.822  -6.474  1.00  0.00     0.217 HD
ENDBRANCH  54  60
BRANCH  55  62
HETATM   62  N6  UNL     1       8.426   1.603  -3.253  1.00  0.00    -0.067 N 
ATOM     63  H63 UNL     1       8.236   1.129  -4.136  1.00  0.00     0.275 HD
ATOM     64  H62 UNL     1       9.350   1.216  -3.063  1.00  0.00     0.275 HD
ATOM     65  H61 UNL     1       7.753   1.338  -2.533  1.00  0.00     0.275 HD
ENDBRANCH  55  62
ENDBRANCH  50  51
ENDBRANCH  39  50
ENDBRANCH   1  34
TORSDOF 22
ENDMDL
MODEL 4
REMARK VINA RESULT: -8.428071733      1.279      1.804
REMARK  22 active torsions:
REMARK  status: ('A' for Active; 'I' for Inactive)
REMARK    1  A    between atoms: C2_2  and  N1_3 
REMARK    2  A    between atoms: C3_7  and  O1_8 
REMARK    3  A    between atoms: C4_10  and  N2_11 
REMARK    4  A    between atoms: C6_16  and  N3_17 
REMARK    5  A    between atoms: C7_21  and  O2_22 
REMARK    6  A    between atoms: O2_22  and  C8_23 
REMARK    7  A    between atoms: C9_25  and  C10_26 
REMARK    8  A    between atoms: C10_26  and  N4_27 
REMARK    9  A    between atoms: C11_31  and  O4_32 
REMARK   10  A    between atoms: O4_32  and  C12_33 
REMARK   11  A    between atoms: C13_34  and  O5_35 
REMARK   12  A    between atoms: C14_37  and  C15_38 
REMARK   13  A    between atoms: C15_38  and  S1_39 
REMARK   14  A    between atoms: S1_39  and  C16_40 
REMARK   15  A    between atoms: C16_40  and  C17_41 
REMARK   16  A    between atoms: C18_44  and  C19_45 
REMARK   17  A    between atoms: C19_45  and  O7_46 
REMARK   18  A    between atoms: C20_48  and  O8_49 
REMARK   19  A    between atoms: O8_49  and  C21_50 
REMARK   20  A    between atoms: C22_51  and  N5_52 
REMARK   21  A    between atoms: C24_57  and  O9_58 
REMARK   22  A    between atoms: C25_60  and  N6_61 
ROOT
HETATM    1  O4  UNL     1       9.786   1.802   0.077  1.00  0.00    -0.348 OA
ENDROOT
BRANCH   1   2
HETATM    2  C11 UNL     1      10.639   0.835   0.486  1.00  0.00     0.296 C 
HETATM    3  C9  UNL     1      11.944   0.920  -0.254  1.00  0.00     0.207 C 
HETATM    4  O3  UNL     1      12.473  -0.349   0.086  1.00  0.00    -0.327 OA
HETATM    5  C8  UNL     1      11.430  -1.140   0.473  1.00  0.00     0.416 C 
HETATM    6  O10 UNL     1      10.248  -0.459   0.072  1.00  0.00    -0.305 OA
BRANCH   3   7
HETATM    7  C10 UNL     1      11.655   0.852  -1.737  1.00  0.00     0.266 C 
BRANCH   7   8
HETATM    8  N4  UNL     1      12.095   2.002  -2.471  1.00  0.00    -0.077 N 
ATOM      9  H43 UNL     1      12.815   2.504  -1.952  1.00  0.00     0.274 HD
ATOM     10  H42 UNL     1      12.638   1.719  -3.287  1.00  0.00     0.274 HD
ATOM     11  H41 UNL     1      11.343   2.635  -2.743  1.00  0.00     0.274 HD
ENDBRANCH   7   8
ENDBRANCH   3   7
BRANCH   5  12
HETATM   12  O2  UNL     1      11.433  -2.441   0.109  1.00  0.00    -0.329 OA
BRANCH  12  13
HETATM   13  C7  UNL     1      10.990  -3.327   1.098  1.00  0.00     0.195 C 
HETATM   14  C2  UNL     1      11.826  -4.565   0.973  1.00  0.00     0.175 C 
HETATM   15  C1  UNL     1      11.333  -5.539  -0.070  1.00  0.00     0.052 C 
HETATM   16  C3  UNL     1      11.940  -5.314   2.285  1.00  0.00     0.186 C 
HETATM   17  C4  UNL     1      12.720  -4.364   3.187  1.00  0.00     0.216 C 
HETATM   18  C5  UNL     1      11.851  -3.199   3.484  1.00  0.00     0.071 C 
HETATM   19  C6  UNL     1      10.970  -2.685   2.424  1.00  0.00     0.217 C 
BRANCH  14  20
HETATM   20  N1  UNL     1      13.193  -4.225   0.586  1.00  0.00    -0.066 N 
ATOM     21  H13 UNL     1      13.572  -4.828  -0.143  1.00  0.00     0.275 HD
ATOM     22  H12 UNL     1      13.265  -3.348   0.070  1.00  0.00     0.275 HD
ATOM     23  H11 UNL     1      13.737  -4.235   1.450  1.00  0.00     0.275 HD
ENDBRANCH  14  20
BRANCH  16  24
HETATM   24  O1  UNL     1      12.693  -6.459   2.056  1.00  0.00    -0.391 OA
ATOM     25  H1  UNL     1      13.590  -6.272   2.307  1.00  0.00     0.210 HD
ENDBRANCH  16  24
BRANCH  17  26
HETATM   26  N2  UNL     1      13.009  -5.096   4.400  1.00  0.00    -0.072 N 
ATOM     27  H23 UNL     1      13.166  -6.092   4.243  1.00  0.00     0.274 HD
ATOM     28  H22 UNL     1      13.927  -4.884   4.791  1.00  0.00     0.274 HD
ATOM     29  H21 UNL     1      12.241  -4.905   5.043  1.00  0.00     0.274 HD
ENDBRANCH  17  26
BRANCH  19  30
HETATM   30  N3  UNL     1       9.595  -2.629   2.963  1.00  0.00    -0.072 N 
ATOM     31  H33 UNL     1       9.275  -3.529   3.324  1.00  0.00     0.274 HD
ATOM     32  H32 UNL     1       9.534  -2.105   3.836  1.00  0.00     0.274 HD
ATOM     33  H31 UNL     1       8.987  -2.257   2.235  1.00  0.00     0.274 HD
ENDBRANCH  19  30
ENDBRANCH  12  13
ENDBRANCH   5  12
ENDBRANCH   1   2
BRANCH   1  34
HETATM   34  C12 UNL     1      10.127   3.108   0.388  1.00  0.00     0.187 C 
HETATM   35  C13 UNL     1      10.415   3.033   1.905  1.00  0.00     0.179 C 
HETATM   36  C14 UNL     1       9.044   3.030   2.556  1.00  0.00     0.162 C 
HETATM   37  O6  UNL     1       8.605   4.335   2.441  1.00  0.00    -0.372 OA
HETATM   38  C18 UNL     1       8.271   4.617   1.154  1.00  0.00     0.177 C 
HETATM   39  C20 UNL     1       9.152   4.158   0.053  1.00  0.00     0.184 C 
BRANCH  35  40
HETATM   40  O5  UNL     1      11.109   4.154   2.342  1.00  0.00    -0.390 OA
ATOM     41  H5  UNL     1      11.794   3.918   2.957  1.00  0.00     0.210 HD
ENDBRANCH  35  40
BRANCH  36  42
HETATM   42  C15 UNL     1       9.183   2.555   3.962  1.00  0.00     0.108 C 
BRANCH  42  43
HETATM   43  S1  UNL     1       9.263   0.754   3.981  1.00  0.00    -0.164 SA
BRANCH  43  44
HETATM   44  C16 UNL     1      10.794   0.162   4.766  1.00  0.00     0.105 C 
BRANCH  44  45
HETATM   45  C17 UNL     1      11.930   0.446   3.822  1.00  0.00     0.232 C 
HETATM   46  F1  UNL     1      13.007  -0.362   4.146  1.00  0.00    -0.255 F 
ENDBRANCH  44  45
ENDBRANCH  43  44
ENDBRANCH  42  43
ENDBRANCH  36  42
BRANCH  38  47
HETATM   47  C19 UNL     1       8.062   6.145   1.112  1.00  0.00     0.198 C 
BRANCH  47  48
HETATM   48  O7  UNL     1       7.512   6.521  -0.111  1.00  0.00    -0.398 OA
ATOM     49  H7  UNL     1       7.448   7.467  -0.165  1.00  0.00     0.209 HD
ENDBRANCH  47  48
ENDBRANCH  38  47
BRANCH  39  50
HETATM   50  O8  UNL     1       8.336   3.860  -1.037  1.00  0.00    -0.370 OA
BRANCH  50  51
HETATM   51  C21 UNL     1       8.995   3.699  -2.234  1.00  0.00     0.193 C 
HETATM   52  C22 UNL     1       9.179   4.934  -3.032  1.00  0.00     0.239 C 
HETATM   53  C23 UNL     1       9.227   4.428  -4.424  1.00  0.00     0.042 C 
HETATM   54  C24 UNL     1       8.656   3.238  -4.479  1.00  0.00     0.074 C 
HETATM   55  C25 UNL     1       8.171   2.824  -3.151  1.00  0.00     0.270 C 
BRANCH  52  56
HETATM   56  N5  UNL     1       8.055   5.866  -2.974  1.00  0.00    -0.069 N 
ATOM     57  H53 UNL     1       7.588   5.804  -2.069  1.00  0.00     0.275 HD
ATOM     58  H52 UNL     1       8.393   6.827  -2.932  1.00  0.00     0.275 HD
ATOM     59  H51 UNL     1       7.379   5.759  -3.730  1.00  0.00     0.275 HD
ENDBRANCH  52  56
BRANCH  54  60
HETATM   60  O9  UNL     1       8.521   2.469  -5.623  1.00  0.00    -0.363 OA
ATOM     61  H9  UNL     1       7.918   1.743  -5.728  1.00  0.00     0.217 HD
ENDBRANCH  54  60
BRANCH  55  62
HETATM   62  N6  UNL     1       8.458   1.414  -2.934  1.00  0.00    -0.067 N 
ATOM     63  H63 UNL     1       8.590   1.208  -1.944  1.00  0.00     0.275 HD
ATOM     64  H62 UNL     1       7.637   0.834  -3.106  1.00  0.00     0.275 HD
ATOM     65  H61 UNL     1       9.257   1.110  -3.490  1.00  0.00     0.275 HD
ENDBRANCH  55  62
ENDBRANCH  50  51
ENDBRANCH  39  50
ENDBRANCH   1  34
TORSDOF 22
ENDMDL
MODEL 5
REMARK VINA RESULT: -8.422574332      1.543      1.827
REMARK  22 active torsions:
REMARK  status: ('A' for Active; 'I' for Inactive)
REMARK    1  A    between atoms: C2_2  and  N1_3 
REMARK    2  A    between atoms: C3_7  and  O1_8 
REMARK    3  A    between atoms: C4_10  and  N2_11 
REMARK    4  A    between atoms: C6_16  and  N3_17 
REMARK    5  A    between atoms: C7_21  and  O2_22 
REMARK    6  A    between atoms: O2_22  and  C8_23 
REMARK    7  A    between atoms: C9_25  and  C10_26 
REMARK    8  A    between atoms: C10_26  and  N4_27 
REMARK    9  A    between atoms: C11_31  and  O4_32 
REMARK   10  A    between atoms: O4_32  and  C12_33 
REMARK   11  A    between atoms: C13_34  and  O5_35 
REMARK   12  A    between atoms: C14_37  and  C15_38 
REMARK   13  A    between atoms: C15_38  and  S1_39 
REMARK   14  A    between atoms: S1_39  and  C16_40 
REMARK   15  A    between atoms: C16_40  and  C17_41 
REMARK   16  A    between atoms: C18_44  and  C19_45 
REMARK   17  A    between atoms: C19_45  and  O7_46 
REMARK   18  A    between atoms: C20_48  and  O8_49 
REMARK   19  A    between atoms: O8_49  and  C21_50 
REMARK   20  A    between atoms: C22_51  and  N5_52 
REMARK   21  A    between atoms: C24_57  and  O9_58 
REMARK   22  A    between atoms: C25_60  and  N6_61 
ROOT
HETATM    1  O4  UNL     1       9.989   1.869  -0.279  1.00  0.00    -0.348 OA
ENDROOT
BRANCH   1   2
HETATM    2  C11 UNL     1      10.839   0.930   0.196  1.00  0.00     0.296 C 
HETATM    3  C9  UNL     1      11.569   0.247  -0.925  1.00  0.00     0.207 C 
HETATM    4  O3  UNL     1      12.082  -0.863  -0.210  1.00  0.00    -0.327 OA
HETATM    5  C8  UNL     1      11.327  -1.010   0.918  1.00  0.00     0.416 C 
HETATM    6  O10 UNL     1      10.176  -0.197   0.732  1.00  0.00    -0.305 OA
BRANCH   3   7
HETATM    7  C10 UNL     1      10.545  -0.326  -1.879  1.00  0.00     0.266 C 
BRANCH   7   8
HETATM    8  N4  UNL     1      11.024  -0.492  -3.220  1.00  0.00    -0.077 N 
ATOM      9  H43 UNL     1      10.254  -0.712  -3.850  1.00  0.00     0.274 HD
ATOM     10  H42 UNL     1      11.315   0.405  -3.609  1.00  0.00     0.274 HD
ATOM     11  H41 UNL     1      11.770  -1.182  -3.312  1.00  0.00     0.274 HD
ENDBRANCH   7   8
ENDBRANCH   3   7
BRANCH   5  12
HETATM   12  O2  UNL     1      11.023  -2.259   1.336  1.00  0.00    -0.329 OA
BRANCH  12  13
HETATM   13  C7  UNL     1      11.776  -3.277   0.739  1.00  0.00     0.195 C 
HETATM   14  C2  UNL     1      12.554  -3.938   1.835  1.00  0.00     0.175 C 
HETATM   15  C1  UNL     1      13.845  -3.236   2.183  1.00  0.00     0.052 C 
HETATM   16  C3  UNL     1      12.886  -5.380   1.513  1.00  0.00     0.186 C 
HETATM   17  C4  UNL     1      11.529  -6.073   1.478  1.00  0.00     0.216 C 
HETATM   18  C5  UNL     1      10.791  -5.574   0.292  1.00  0.00     0.071 C 
HETATM   19  C6  UNL     1      10.928  -4.159  -0.083  1.00  0.00     0.217 C 
BRANCH  14  20
HETATM   20  N1  UNL     1      11.774  -3.973   3.070  1.00  0.00    -0.066 N 
ATOM     21  H13 UNL     1      12.115  -3.332   3.786  1.00  0.00     0.275 HD
ATOM     22  H12 UNL     1      10.843  -3.568   2.976  1.00  0.00     0.275 HD
ATOM     23  H11 UNL     1      11.767  -4.950   3.366  1.00  0.00     0.275 HD
ENDBRANCH  14  20
BRANCH  16  24
HETATM   24  O1  UNL     1      13.639  -5.888   2.563  1.00  0.00    -0.391 OA
ATOM     25  H1  UNL     1      13.270  -6.729   2.806  1.00  0.00     0.210 HD
ENDBRANCH  16  24
BRANCH  17  26
HETATM   26  N2  UNL     1      11.795  -7.488   1.344  1.00  0.00    -0.072 N 
ATOM     27  H23 UNL     1      12.561  -7.697   0.702  1.00  0.00     0.274 HD
ATOM     28  H22 UNL     1      12.213  -7.902   2.178  1.00  0.00     0.274 HD
ATOM     29  H21 UNL     1      10.913  -7.924   1.076  1.00  0.00     0.274 HD
ENDBRANCH  17  26
BRANCH  19  30
HETATM   30  N3  UNL     1      11.328  -4.101  -1.504  1.00  0.00    -0.072 N 
ATOM     31  H33 UNL     1      11.795  -4.953  -1.819  1.00  0.00     0.274 HD
ATOM     32  H32 UNL     1      10.532  -4.141  -2.141  1.00  0.00     0.274 HD
ATOM     33  H31 UNL     1      11.899  -3.266  -1.637  1.00  0.00     0.274 HD
ENDBRANCH  19  30
ENDBRANCH  12  13
ENDBRANCH   5  12
ENDBRANCH   1   2
BRANCH   1  34
HETATM   34  C12 UNL     1      10.394   3.189  -0.172  1.00  0.00     0.187 C 
HETATM   35  C13 UNL     1      10.181   3.491   1.329  1.00  0.00     0.179 C 
HETATM   36  C14 UNL     1       8.689   3.732   1.464  1.00  0.00     0.162 C 
HETATM   37  O6  UNL     1       8.492   4.987   0.920  1.00  0.00    -0.372 OA
HETATM   38  C18 UNL     1       8.619   4.947  -0.434  1.00  0.00     0.177 C 
HETATM   39  C20 UNL     1       9.727   4.171  -1.041  1.00  0.00     0.184 C 
BRANCH  35  40
HETATM   40  O5  UNL     1      10.852   4.645   1.711  1.00  0.00    -0.390 OA
ATOM     41  H5  UNL     1      10.555   4.951   2.561  1.00  0.00     0.210 HD
ENDBRANCH  35  40
BRANCH  36  42
HETATM   42  C15 UNL     1       8.315   3.627   2.903  1.00  0.00     0.108 C 
BRANCH  42  43
HETATM   43  S1  UNL     1       8.467   1.912   3.438  1.00  0.00    -0.164 SA
BRANCH  43  44
HETATM   44  C16 UNL     1      10.041   1.620   4.303  1.00  0.00     0.105 C 
BRANCH  44  45
HETATM   45  C17 UNL     1      10.295   0.137   4.298  1.00  0.00     0.232 C 
HETATM   46  F1  UNL     1      10.890  -0.229   5.494  1.00  0.00    -0.255 F 
ENDBRANCH  44  45
ENDBRANCH  43  44
ENDBRANCH  42  43
ENDBRANCH  36  42
BRANCH  38  47
HETATM   47  C19 UNL     1       8.647   6.422  -0.884  1.00  0.00     0.198 C 
BRANCH  47  48
HETATM   48  O7  UNL     1       9.585   7.134  -0.141  1.00  0.00    -0.398 OA
ATOM     49  H7  UNL     1       9.161   7.581   0.581  1.00  0.00     0.209 HD
ENDBRANCH  47  48
ENDBRANCH  38  47
BRANCH  39  50
HETATM   50  O8  UNL     1       9.258   3.651  -2.246  1.00  0.00    -0.370 OA
BRANCH  50  51
HETATM   51  C21 UNL     1       9.933   4.076  -3.368  1.00  0.00     0.193 C 
HETATM   52  C22 UNL     1       9.078   4.481  -4.510  1.00  0.00     0.239 C 
HETATM   53  C23 UNL     1       9.938   4.204  -5.684  1.00  0.00     0.042 C 
HETATM   54  C24 UNL     1      10.871   3.329  -5.351  1.00  0.00     0.074 C 
HETATM   55  C25 UNL     1      10.739   2.931  -3.938  1.00  0.00     0.270 C 
BRANCH  52  56
HETATM   56  N5  UNL     1       7.875   3.669  -4.684  1.00  0.00    -0.069 N 
ATOM     57  H53 UNL     1       7.057   4.268  -4.798  1.00  0.00     0.275 HD
ATOM     58  H52 UNL     1       7.886   3.210  -5.594  1.00  0.00     0.275 HD
ATOM     59  H51 UNL     1       7.715   2.988  -3.942  1.00  0.00     0.275 HD
ENDBRANCH  52  56
BRANCH  54  60
HETATM   60  O9  UNL     1      11.848   2.840  -6.201  1.00  0.00    -0.363 OA
ATOM     61  H9  UNL     1      12.052   1.921  -6.331  1.00  0.00     0.217 HD
ENDBRANCH  54  60
BRANCH  55  62
HETATM   62  N6  UNL     1      12.052   2.851  -3.319  1.00  0.00    -0.067 N 
ATOM     63  H63 UNL     1      12.278   3.704  -2.808  1.00  0.00     0.275 HD
ATOM     64  H62 UNL     1      12.059   2.195  -2.538  1.00  0.00     0.275 HD
ATOM     65  H61 UNL     1      12.772   2.624  -4.006  1.00  0.00     0.275 HD
ENDBRANCH  55  62
ENDBRANCH  50  51
ENDBRANCH  39  50
ENDBRANCH   1  34
TORSDOF 22
ENDMDL
