MODEL 1
REMARK VINA RESULT: -9.762075956      0.000      0.000
REMARK  18 active torsions:
REMARK  status: ('A' for Active; 'I' for Inactive)
REMARK    1  A    between atoms: C5_9  and  N3_10 
REMARK    2  A    between atoms: N4_13  and  N5_14 
REMARK    3  A    between atoms: N6_17  and  C6_18 
REMARK    4  A    between atoms: C6_18  and  C7_19 
REMARK       I    between atoms: C7_19  and  N7_21 
REMARK    5  A    between atoms: N7_21  and  C8_23 
REMARK    6  A    between atoms: C8_23  and  C9_24 
REMARK    7  A    between atoms: C10_26  and  C11_27 
REMARK    8  A    between atoms: C11_27  and  N8_28 
REMARK    9  A    between atoms: C14_34  and  C15_35 
REMARK   10  A    between atoms: C15_35  and  N11_37 
REMARK   11  A    between atoms: N11_37  and  O4_39 
REMARK   12  A    between atoms: O4_39  and  C16_40 
REMARK   13  A    between atoms: C16_40  and  C17_41 
REMARK   14  A    between atoms: C17_41  and  C18_42 
REMARK   15  A    between atoms: C18_42  and  N12_43 
REMARK   16  A    between atoms: C19_47  and  N13_48 
REMARK   17  A    between atoms: C20_52  and  O5_53 
REMARK   18  A    between atoms: C21_55  and  O6_56 
ROOT
HETATM    1  C9  UNL     1       8.701   1.638   2.640  1.00  0.00     0.116 C 
HETATM    2  O3  UNL     1       9.017   1.051   1.376  1.00  0.00    -0.338 OA
HETATM    3  C10 UNL     1       9.014   1.987   0.380  1.00  0.00     0.180 C 
HETATM    4  C19 UNL     1      10.056   3.037   0.619  1.00  0.00     0.249 C 
HETATM    5  C20 UNL     1       9.523   3.889   1.787  1.00  0.00     0.210 C 
HETATM    6  C21 UNL     1       8.566   3.070   2.581  1.00  0.00     0.108 C 
ENDROOT
BRANCH   1   7
HETATM    7  C8  UNL     1       9.428   0.834   3.618  1.00  0.00     0.130 C 
BRANCH   7   8
HETATM    8  N7  UNL     1      10.598   0.124   3.418  1.00  0.00    -0.333 N 
HETATM    9  C7  UNL     1      11.423  -0.632   4.256  1.00  0.00     0.241 C 
HETATM   10  O2  UNL     1      11.207  -0.771   5.468  1.00  0.00    -0.271 OA
ATOM     11  H7  UNL     1      10.930   0.161   2.454  1.00  0.00     0.168 HD
BRANCH   9  12
HETATM   12  C6  UNL     1      12.657  -1.351   3.745  1.00  0.00     0.259 C 
BRANCH  12  13
HETATM   13  N6  UNL     1      12.293  -2.264   2.684  1.00  0.00    -0.212 N 
HETATM   14  N4  UNL     1      12.225  -3.645   2.879  1.00  0.00    -0.187 N 
HETATM   15  C3  UNL     1      11.867  -4.542   1.825  1.00  0.00     0.187 A 
HETATM   16  C2  UNL     1      11.575  -4.072   0.576  1.00  0.00     0.163 A 
HETATM   17  C4  UNL     1      11.797  -5.917   2.009  1.00  0.00     0.293 A 
HETATM   18  N1  UNL     1      11.237  -4.938  -0.413  1.00  0.00    -0.170 N 
HETATM   19  N14 UNL     1      11.626  -2.679   0.315  1.00  0.00    -0.290 N 
HETATM   20  C1  UNL     1      10.938  -4.404  -1.709  1.00  0.00     0.177 C 
HETATM   21  C5  UNL     1      11.182  -6.264  -0.191  1.00  0.00     0.682 A 
HETATM   22  N2  UNL     1      11.462  -6.766   1.022  1.00  0.00    -0.154 N 
ATOM     23  H2  UNL     1      11.420  -7.771   1.192  1.00  0.00     0.187 HD
HETATM   24  C22 UNL     1      11.987  -1.777   1.379  1.00  0.00     0.344 A 
ATOM     25  H14 UNL     1      11.410  -2.320  -0.615  1.00  0.00     0.172 HD
HETATM   26  O7  UNL     1      12.020  -0.551   1.103  1.00  0.00    -0.245 OA
HETATM   27  O1  UNL     1      12.064  -6.362   3.157  1.00  0.00    -0.265 OA
BRANCH  14  28
HETATM   28  N5  UNL     1      12.511  -4.160   4.127  1.00  0.00    -0.323 N 
ATOM     29  H52 UNL     1      11.927  -4.909   4.499  1.00  0.00     0.179 HD
ATOM     30  H51 UNL     1      13.301  -3.780   4.649  1.00  0.00     0.179 HD
ENDBRANCH  14  28
BRANCH  21  31
HETATM   31  N3  UNL     1      10.859  -7.097  -1.136  1.00  0.00    -0.234 N 
ATOM     32  H32 UNL     1       9.953  -7.561  -1.076  1.00  0.00     0.174 HD
ATOM     33  H31 UNL     1      11.489  -7.285  -1.916  1.00  0.00     0.174 HD
ENDBRANCH  21  31
ENDBRANCH  12  13
ENDBRANCH   9  12
ENDBRANCH   7   8
ENDBRANCH   1   7
BRANCH   6  34
HETATM   34  O6  UNL     1       8.251   3.758   3.756  1.00  0.00    -0.359 OA
ATOM     35  H6  UNL     1       8.936   3.886   4.402  1.00  0.00     0.217 HD
ENDBRANCH   6  34
BRANCH   3  36
HETATM   36  C11 UNL     1       9.131   1.369  -0.990  1.00  0.00     0.165 C 
BRANCH  36  37
HETATM   37  N8  UNL     1       8.798   2.289  -2.010  1.00  0.00    -0.335 N 
HETATM   38  C12 UNL     1       7.473   2.654  -2.186  1.00  0.00     0.135 A 
HETATM   39  C13 UNL     1       7.407   3.621  -3.156  1.00  0.00     0.120 A 
HETATM   40 CL1  UNL     1       5.980   4.418  -3.755  1.00  0.00    -0.063 Cl
HETATM   41  N9  UNL     1       8.672   3.815  -3.539  1.00  0.00    -0.329 N 
HETATM   42  C14 UNL     1       9.518   3.003  -2.843  1.00  0.00     0.152 A 
ATOM     43  H9  UNL     1       8.965   4.479  -4.254  1.00  0.00     0.168 HD
BRANCH  42  44
HETATM   44  C15 UNL     1      10.932   2.951  -3.075  1.00  0.00     0.180 C 
HETATM   45  N10 UNL     1      11.982   3.188  -2.182  1.00  0.00    -0.077 NA
BRANCH  44  46
HETATM   46  N11 UNL     1      11.373   2.597  -4.267  1.00  0.00    -0.250 N 
ATOM     47  H11 UNL     1      12.379   2.541  -4.430  1.00  0.00     0.196 HD
BRANCH  46  48
HETATM   48  O4  UNL     1      10.514   2.304  -5.290  1.00  0.00    -0.279 OA
BRANCH  48  49
HETATM   49  C16 UNL     1      10.628   3.020  -6.486  1.00  0.00     0.203 C 
BRANCH  49  50
HETATM   50  C17 UNL     1      11.954   3.756  -6.589  1.00  0.00     0.056 C 
BRANCH  50  51
HETATM   51  C18 UNL     1      11.633   5.237  -6.571  1.00  0.00     0.231 C 
BRANCH  51  52
HETATM   52  N12 UNL     1      10.201   5.355  -6.321  1.00  0.00    -0.079 N 
ATOM     53 3H12 UNL     1       9.636   4.768  -6.934  1.00  0.00     0.274 HD
ATOM     54 2H12 UNL     1       9.911   4.934  -5.437  1.00  0.00     0.274 HD
ATOM     55 1H12 UNL     1       9.970   6.346  -6.389  1.00  0.00     0.274 HD
ENDBRANCH  51  52
ENDBRANCH  50  51
ENDBRANCH  49  50
ENDBRANCH  48  49
ENDBRANCH  46  48
ENDBRANCH  44  46
ENDBRANCH  42  44
ENDBRANCH  36  37
ENDBRANCH   3  36
BRANCH   5  56
HETATM   56  O5  UNL     1      10.542   4.491   2.468  1.00  0.00    -0.387 OA
ATOM     57  H5  UNL     1      10.221   5.196   3.018  1.00  0.00     0.210 HD
ENDBRANCH   5  56
BRANCH   4  58
HETATM   58  N13 UNL     1      11.320   2.510   1.068  1.00  0.00    -0.070 N 
ATOM     59 3H13 UNL     1      11.350   2.467   2.087  1.00  0.00     0.275 HD
ATOM     60 2H13 UNL     1      11.391   1.515   0.854  1.00  0.00     0.275 HD
ATOM     61 1H13 UNL     1      12.128   3.015   0.705  1.00  0.00     0.275 HD
ENDBRANCH   4  58
TORSDOF 18
ENDMDL
MODEL 2
REMARK VINA RESULT: -9.739958403      2.197      2.885
REMARK  18 active torsions:
REMARK  status: ('A' for Active; 'I' for Inactive)
REMARK    1  A    between atoms: C5_9  and  N3_10 
REMARK    2  A    between atoms: N4_13  and  N5_14 
REMARK    3  A    between atoms: N6_17  and  C6_18 
REMARK    4  A    between atoms: C6_18  and  C7_19 
REMARK       I    between atoms: C7_19  and  N7_21 
REMARK    5  A    between atoms: N7_21  and  C8_23 
REMARK    6  A    between atoms: C8_23  and  C9_24 
REMARK    7  A    between atoms: C10_26  and  C11_27 
REMARK    8  A    between atoms: C11_27  and  N8_28 
REMARK    9  A    between atoms: C14_34  and  C15_35 
REMARK   10  A    between atoms: C15_35  and  N11_37 
REMARK   11  A    between atoms: N11_37  and  O4_39 
REMARK   12  A    between atoms: O4_39  and  C16_40 
REMARK   13  A    between atoms: C16_40  and  C17_41 
REMARK   14  A    between atoms: C17_41  and  C18_42 
REMARK   15  A    between atoms: C18_42  and  N12_43 
REMARK   16  A    between atoms: C19_47  and  N13_48 
REMARK   17  A    between atoms: C20_52  and  O5_53 
REMARK   18  A    between atoms: C21_55  and  O6_56 
ROOT
HETATM    1  C9  UNL     1       8.653   2.098   3.485  1.00  0.00     0.116 C 
HETATM    2  O3  UNL     1       9.199   2.380   2.195  1.00  0.00    -0.338 OA
HETATM    3  C10 UNL     1       8.395   3.233   1.492  1.00  0.00     0.180 C 
HETATM    4  C19 UNL     1       8.269   4.555   2.186  1.00  0.00     0.249 C 
HETATM    5  C20 UNL     1       7.374   4.295   3.412  1.00  0.00     0.210 C 
HETATM    6  C21 UNL     1       7.462   2.853   3.773  1.00  0.00     0.108 C 
ENDROOT
BRANCH   1   7
HETATM    7  C8  UNL     1       9.814   1.870   4.341  1.00  0.00     0.130 C 
BRANCH   7   8
HETATM    8  N7  UNL     1      10.874   1.014   4.107  1.00  0.00    -0.333 N 
HETATM    9  C7  UNL     1      11.056  -0.363   4.265  1.00  0.00     0.241 C 
HETATM   10  O2  UNL     1      10.182  -1.110   4.725  1.00  0.00    -0.271 OA
ATOM     11  H7  UNL     1      11.700   1.489   3.741  1.00  0.00     0.168 HD
BRANCH   9  12
HETATM   12  C6  UNL     1      12.348  -1.059   3.882  1.00  0.00     0.259 C 
BRANCH  12  13
HETATM   13  N6  UNL     1      12.092  -2.048   2.858  1.00  0.00    -0.212 N 
HETATM   14  N4  UNL     1      12.303  -3.412   3.069  1.00  0.00    -0.187 N 
HETATM   15  C3  UNL     1      12.050  -4.384   2.051  1.00  0.00     0.187 A 
HETATM   16  C2  UNL     1      11.587  -4.005   0.823  1.00  0.00     0.163 A 
HETATM   17  C4  UNL     1      12.257  -5.742   2.250  1.00  0.00     0.293 A 
HETATM   18  N1  UNL     1      11.352  -4.940  -0.132  1.00  0.00    -0.170 N 
HETATM   19  N14 UNL     1      11.352  -2.633   0.548  1.00  0.00    -0.290 N 
HETATM   20  C1  UNL     1      10.866  -4.501  -1.407  1.00  0.00     0.177 C 
HETATM   21  C5  UNL     1      11.567  -6.248   0.104  1.00  0.00     0.682 A 
HETATM   22  N2  UNL     1      12.022  -6.660   1.297  1.00  0.00    -0.154 N 
ATOM     23  H2  UNL     1      12.186  -7.651   1.478  1.00  0.00     0.187 HD
HETATM   24  C22 UNL     1      11.608  -1.656   1.575  1.00  0.00     0.344 A 
ATOM     25  H14 UNL     1      11.007  -2.342  -0.367  1.00  0.00     0.172 HD
HETATM   26  O7  UNL     1      11.386  -0.453   1.288  1.00  0.00    -0.245 OA
HETATM   27  O1  UNL     1      12.684  -6.104   3.379  1.00  0.00    -0.265 OA
BRANCH  14  28
HETATM   28  N5  UNL     1      12.769  -3.836   4.296  1.00  0.00    -0.323 N 
ATOM     29  H52 UNL     1      12.545  -4.780   4.612  1.00  0.00     0.179 HD
ATOM     30  H51 UNL     1      13.329  -3.196   4.860  1.00  0.00     0.179 HD
ENDBRANCH  14  28
BRANCH  21  31
HETATM   31  N3  UNL     1      11.344  -7.147  -0.808  1.00  0.00    -0.234 N 
ATOM     32  H32 UNL     1      10.458  -7.651  -0.776  1.00  0.00     0.174 HD
ATOM     33  H31 UNL     1      12.030  -7.347  -1.536  1.00  0.00     0.174 HD
ENDBRANCH  21  31
ENDBRANCH  12  13
ENDBRANCH   9  12
ENDBRANCH   7   8
ENDBRANCH   1   7
BRANCH   6  34
HETATM   34  O6  UNL     1       6.832   2.658   5.005  1.00  0.00    -0.359 OA
ATOM     35  H6  UNL     1       5.977   2.245   5.016  1.00  0.00     0.217 HD
ENDBRANCH   6  34
BRANCH   3  36
HETATM   36  C11 UNL     1       8.830   3.380   0.056  1.00  0.00     0.165 C 
BRANCH  36  37
HETATM   37  N8  UNL     1       9.873   4.324  -0.080  1.00  0.00    -0.335 N 
HETATM   38  C12 UNL     1       9.623   5.521  -0.731  1.00  0.00     0.135 A 
HETATM   39  C13 UNL     1      10.743   6.309  -0.654  1.00  0.00     0.120 A 
HETATM   40 CL1  UNL     1      10.955   7.907  -1.309  1.00  0.00    -0.063 Cl
HETATM   41  N9  UNL     1      11.631   5.582   0.030  1.00  0.00    -0.329 N 
HETATM   42  C14 UNL     1      11.103   4.374   0.378  1.00  0.00     0.152 A 
ATOM     43  H9  UNL     1      12.575   5.889   0.261  1.00  0.00     0.168 HD
BRANCH  42  44
HETATM   44  C15 UNL     1      11.840   3.360   1.073  1.00  0.00     0.180 C 
HETATM   45  N10 UNL     1      12.433   3.411   2.339  1.00  0.00    -0.077 NA
BRANCH  44  46
HETATM   46  N11 UNL     1      11.985   2.174   0.512  1.00  0.00    -0.250 N 
ATOM     47  H11 UNL     1      11.516   1.368   0.924  1.00  0.00     0.196 HD
BRANCH  46  48
HETATM   48  O4  UNL     1      12.749   2.002  -0.609  1.00  0.00    -0.279 OA
BRANCH  48  49
HETATM   49  C16 UNL     1      12.133   1.534  -1.774  1.00  0.00     0.203 C 
BRANCH  49  50
HETATM   50  C17 UNL     1      11.782   2.665  -2.729  1.00  0.00     0.056 C 
BRANCH  50  51
HETATM   51  C18 UNL     1      10.429   2.329  -3.322  1.00  0.00     0.231 C 
BRANCH  51  52
HETATM   52  N12 UNL     1      10.660   1.955  -4.713  1.00  0.00    -0.079 N 
ATOM     53 3H12 UNL     1      10.034   2.428  -5.366  1.00  0.00     0.274 HD
ATOM     54 2H12 UNL     1      11.536   2.320  -5.088  1.00  0.00     0.274 HD
ATOM     55 1H12 UNL     1      10.595   0.938  -4.760  1.00  0.00     0.274 HD
ENDBRANCH  51  52
ENDBRANCH  50  51
ENDBRANCH  49  50
ENDBRANCH  48  49
ENDBRANCH  46  48
ENDBRANCH  44  46
ENDBRANCH  42  44
ENDBRANCH  36  37
ENDBRANCH   3  36
BRANCH   5  56
HETATM   56  O5  UNL     1       7.615   5.202   4.404  1.00  0.00    -0.387 OA
ATOM     57  H5  UNL     1       7.064   5.040   5.162  1.00  0.00     0.210 HD
ENDBRANCH   5  56
BRANCH   4  58
HETATM   58  N13 UNL     1       9.514   5.056   2.713  1.00  0.00    -0.070 N 
ATOM     59 3H13 UNL     1      10.039   4.308   3.165  1.00  0.00     0.275 HD
ATOM     60 2H13 UNL     1      10.159   5.284   1.956  1.00  0.00     0.275 HD
ATOM     61 1H13 UNL     1       9.403   5.850   3.343  1.00  0.00     0.275 HD
ENDBRANCH   4  58
TORSDOF 18
ENDMDL
MODEL 3
REMARK VINA RESULT: -9.516707397      2.399      3.325
REMARK  18 active torsions:
REMARK  status: ('A' for Active; 'I' for Inactive)
REMARK    1  A    between atoms: C5_9  and  N3_10 
REMARK    2  A    between atoms: N4_13  and  N5_14 
REMARK    3  A    between atoms: N6_17  and  C6_18 
REMARK    4  A    between atoms: C6_18  and  C7_19 
REMARK       I    between atoms: C7_19  and  N7_21 
REMARK    5  A    between atoms: N7_21  and  C8_23 
REMARK    6  A    between atoms: C8_23  and  C9_24 
REMARK    7  A    between atoms: C10_26  and  C11_27 
REMARK    8  A    between atoms: C11_27  and  N8_28 
REMARK    9  A    between atoms: C14_34  and  C15_35 
REMARK   10  A    between atoms: C15_35  and  N11_37 
REMARK   11  A    between atoms: N11_37  and  O4_39 
REMARK   12  A    between atoms: O4_39  and  C16_40 
REMARK   13  A    between atoms: C16_40  and  C17_41 
REMARK   14  A    between atoms: C17_41  and  C18_42 
REMARK   15  A    between atoms: C18_42  and  N12_43 
REMARK   16  A    between atoms: C19_47  and  N13_48 
REMARK   17  A    between atoms: C20_52  and  O5_53 
REMARK   18  A    between atoms: C21_55  and  O6_56 
ROOT
HETATM    1  C9  UNL     1       9.665   2.398   2.382  1.00  0.00     0.116 C 
HETATM    2  O3  UNL     1       9.759   3.771   1.998  1.00  0.00    -0.338 OA
HETATM    3  C10 UNL     1       8.526   4.295   1.723  1.00  0.00     0.180 C 
HETATM    4  C19 UNL     1       7.642   4.264   2.933  1.00  0.00     0.249 C 
HETATM    5  C20 UNL     1       7.265   2.784   3.131  1.00  0.00     0.210 C 
HETATM    6  C21 UNL     1       8.307   1.933   2.493  1.00  0.00     0.108 C 
ENDROOT
BRANCH   1   7
HETATM    7  C8  UNL     1      10.774   2.192   3.309  1.00  0.00     0.130 C 
BRANCH   7   8
HETATM    8  N7  UNL     1      11.628   1.107   3.368  1.00  0.00    -0.333 N 
HETATM    9  C7  UNL     1      11.502  -0.196   3.861  1.00  0.00     0.241 C 
HETATM   10  O2  UNL     1      10.475  -0.610   4.414  1.00  0.00    -0.271 OA
ATOM     11  H7  UNL     1      12.547   1.297   2.965  1.00  0.00     0.168 HD
BRANCH   9  12
HETATM   12  C6  UNL     1      12.621  -1.214   3.754  1.00  0.00     0.259 C 
BRANCH  12  13
HETATM   13  N6  UNL     1      12.308  -2.187   2.731  1.00  0.00    -0.212 N 
HETATM   14  N4  UNL     1      12.309  -3.561   2.982  1.00  0.00    -0.187 N 
HETATM   15  C3  UNL     1      12.001  -4.516   1.963  1.00  0.00     0.187 A 
HETATM   16  C2  UNL     1      11.692  -4.112   0.695  1.00  0.00     0.163 A 
HETATM   17  C4  UNL     1      11.999  -5.884   2.203  1.00  0.00     0.293 A 
HETATM   18  N1  UNL     1      11.403  -5.032  -0.259  1.00  0.00    -0.170 N 
HETATM   19  N14 UNL     1      11.675  -2.730   0.379  1.00  0.00    -0.290 N 
HETATM   20  C1  UNL     1      11.084  -4.567  -1.576  1.00  0.00     0.177 C 
HETATM   21  C5  UNL     1      11.413  -6.350   0.017  1.00  0.00     0.682 A 
HETATM   22  N2  UNL     1      11.712  -6.788   1.250  1.00  0.00    -0.154 N 
ATOM     23  H2  UNL     1      11.720  -7.786   1.460  1.00  0.00     0.187 HD
HETATM   24  C22 UNL     1      11.985  -1.769   1.406  1.00  0.00     0.344 A 
ATOM     25  H14 UNL     1      11.446  -2.419  -0.566  1.00  0.00     0.172 HD
HETATM   26  O7  UNL     1      11.958  -0.555   1.081  1.00  0.00    -0.245 OA
HETATM   27  O1  UNL     1      12.283  -6.269   3.369  1.00  0.00    -0.265 OA
BRANCH  14  28
HETATM   28  N5  UNL     1      12.614  -4.010   4.250  1.00  0.00    -0.323 N 
ATOM     29  H52 UNL     1      13.144  -4.876   4.354  1.00  0.00     0.179 HD
ATOM     30  H51 UNL     1      12.304  -3.465   5.055  1.00  0.00     0.179 HD
ENDBRANCH  14  28
BRANCH  21  31
HETATM   31  N3  UNL     1      11.137  -7.235  -0.894  1.00  0.00    -0.234 N 
ATOM     32  H32 UNL     1      10.166  -7.527  -0.999  1.00  0.00     0.174 HD
ATOM     33  H31 UNL     1      11.866  -7.630  -1.490  1.00  0.00     0.174 HD
ENDBRANCH  21  31
ENDBRANCH  12  13
ENDBRANCH   9  12
ENDBRANCH   7   8
ENDBRANCH   1   7
BRANCH   6  34
HETATM   34  O6  UNL     1       8.087   0.601   2.858  1.00  0.00    -0.359 OA
ATOM     35  H6  UNL     1       7.213   0.244   2.758  1.00  0.00     0.217 HD
ENDBRANCH   6  34
BRANCH   3  36
HETATM   36  C11 UNL     1       8.609   5.670   1.112  1.00  0.00     0.165 C 
BRANCH  36  37
HETATM   37  N8  UNL     1       9.499   5.701   0.014  1.00  0.00    -0.335 N 
HETATM   38  C12 UNL     1      10.667   6.441   0.110  1.00  0.00     0.135 A 
HETATM   39  C13 UNL     1      11.411   6.243  -1.025  1.00  0.00     0.120 A 
HETATM   40 CL1  UNL     1      12.960   6.939  -1.405  1.00  0.00    -0.063 Cl
HETATM   41  N9  UNL     1      10.687   5.403  -1.770  1.00  0.00    -0.329 N 
HETATM   42  C14 UNL     1       9.523   5.075  -1.140  1.00  0.00     0.152 A 
ATOM     43  H9  UNL     1      10.967   5.055  -2.687  1.00  0.00     0.168 HD
BRANCH  42  44
HETATM   44  C15 UNL     1       8.520   4.232  -1.721  1.00  0.00     0.180 C 
HETATM   45  N10 UNL     1       7.423   4.585  -2.514  1.00  0.00    -0.077 NA
BRANCH  44  46
HETATM   46  N11 UNL     1       8.605   2.926  -1.556  1.00  0.00    -0.250 N 
ATOM     47  H11 UNL     1       7.785   2.346  -1.736  1.00  0.00     0.196 HD
BRANCH  46  48
HETATM   48  O4  UNL     1       9.767   2.331  -1.150  1.00  0.00    -0.279 OA
BRANCH  48  49
HETATM   49  C16 UNL     1       9.971   0.981  -1.454  1.00  0.00     0.203 C 
BRANCH  49  50
HETATM   50  C17 UNL     1      11.303   0.746  -2.149  1.00  0.00     0.056 C 
BRANCH  50  51
HETATM   51  C18 UNL     1      12.175   1.945  -1.836  1.00  0.00     0.231 C 
BRANCH  51  52
HETATM   52  N12 UNL     1      12.467   1.893  -0.408  1.00  0.00    -0.079 N 
ATOM     53 3H12 UNL     1      13.018   1.078  -0.140  1.00  0.00     0.274 HD
ATOM     54 2H12 UNL     1      13.135   2.604  -0.108  1.00  0.00     0.274 HD
ATOM     55 1H12 UNL     1      11.572   1.951   0.078  1.00  0.00     0.274 HD
ENDBRANCH  51  52
ENDBRANCH  50  51
ENDBRANCH  49  50
ENDBRANCH  48  49
ENDBRANCH  46  48
ENDBRANCH  44  46
ENDBRANCH  42  44
ENDBRANCH  36  37
ENDBRANCH   3  36
BRANCH   5  56
HETATM   56  O5  UNL     1       6.957   2.520   4.436  1.00  0.00    -0.387 OA
ATOM     57  H5  UNL     1       7.485   1.808   4.778  1.00  0.00     0.210 HD
ENDBRANCH   5  56
BRANCH   4  58
HETATM   58  N13 UNL     1       8.307   4.662   4.149  1.00  0.00    -0.070 N 
ATOM     59 3H13 UNL     1       7.665   4.618   4.940  1.00  0.00     0.275 HD
ATOM     60 2H13 UNL     1       8.982   3.954   4.437  1.00  0.00     0.275 HD
ATOM     61 1H13 UNL     1       8.749   5.579   4.094  1.00  0.00     0.275 HD
ENDBRANCH   4  58
TORSDOF 18
ENDMDL
MODEL 4
REMARK VINA RESULT: -9.490614442      2.459      3.005
REMARK  18 active torsions:
REMARK  status: ('A' for Active; 'I' for Inactive)
REMARK    1  A    between atoms: C5_9  and  N3_10 
REMARK    2  A    between atoms: N4_13  and  N5_14 
REMARK    3  A    between atoms: N6_17  and  C6_18 
REMARK    4  A    between atoms: C6_18  and  C7_19 
REMARK       I    between atoms: C7_19  and  N7_21 
REMARK    5  A    between atoms: N7_21  and  C8_23 
REMARK    6  A    between atoms: C8_23  and  C9_24 
REMARK    7  A    between atoms: C10_26  and  C11_27 
REMARK    8  A    between atoms: C11_27  and  N8_28 
REMARK    9  A    between atoms: C14_34  and  C15_35 
REMARK   10  A    between atoms: C15_35  and  N11_37 
REMARK   11  A    between atoms: N11_37  and  O4_39 
REMARK   12  A    between atoms: O4_39  and  C16_40 
REMARK   13  A    between atoms: C16_40  and  C17_41 
REMARK   14  A    between atoms: C17_41  and  C18_42 
REMARK   15  A    between atoms: C18_42  and  N12_43 
REMARK   16  A    between atoms: C19_47  and  N13_48 
REMARK   17  A    between atoms: C20_52  and  O5_53 
REMARK   18  A    between atoms: C21_55  and  O6_56 
ROOT
HETATM    1  C9  UNL     1       8.680   2.023   3.574  1.00  0.00     0.116 C 
HETATM    2  O3  UNL     1       9.121   2.369   2.260  1.00  0.00    -0.338 OA
HETATM    3  C10 UNL     1       8.214   3.176   1.629  1.00  0.00     0.180 C 
HETATM    4  C19 UNL     1       8.040   4.472   2.361  1.00  0.00     0.249 C 
HETATM    5  C20 UNL     1       7.246   4.123   3.634  1.00  0.00     0.210 C 
HETATM    6  C21 UNL     1       7.459   2.684   3.954  1.00  0.00     0.108 C 
ENDROOT
BRANCH   1   7
HETATM    7  C8  UNL     1       9.906   1.863   4.350  1.00  0.00     0.130 C 
BRANCH   7   8
HETATM    8  N7  UNL     1      10.938   0.973   4.115  1.00  0.00    -0.333 N 
HETATM    9  C7  UNL     1      11.082  -0.406   4.293  1.00  0.00     0.241 C 
HETATM   10  O2  UNL     1      10.193  -1.120   4.776  1.00  0.00    -0.271 OA
ATOM     11  H7  UNL     1      11.772   1.418   3.731  1.00  0.00     0.168 HD
BRANCH   9  12
HETATM   12  C6  UNL     1      12.348  -1.145   3.903  1.00  0.00     0.259 C 
BRANCH  12  13
HETATM   13  N6  UNL     1      12.060  -2.101   2.856  1.00  0.00    -0.212 N 
HETATM   14  N4  UNL     1      12.204  -3.478   3.043  1.00  0.00    -0.187 N 
HETATM   15  C3  UNL     1      11.920  -4.416   2.002  1.00  0.00     0.187 A 
HETATM   16  C2  UNL     1      11.491  -3.993   0.776  1.00  0.00     0.163 A 
HETATM   17  C4  UNL     1      12.061  -5.787   2.177  1.00  0.00     0.293 A 
HETATM   18  N1  UNL     1      11.226  -4.897  -0.200  1.00  0.00    -0.170 N 
HETATM   19  N14 UNL     1      11.325  -2.607   0.526  1.00  0.00    -0.290 N 
HETATM   20  C1  UNL     1      10.778  -4.412  -1.472  1.00  0.00     0.177 C 
HETATM   21  C5  UNL     1      11.377  -6.218   0.013  1.00  0.00     0.682 A 
HETATM   22  N2  UNL     1      11.796  -6.674   1.204  1.00  0.00    -0.154 N 
ATOM     23  H2  UNL     1      11.911  -7.675   1.366  1.00  0.00     0.187 HD
HETATM   24  C22 UNL     1      11.612  -1.663   1.575  1.00  0.00     0.344 A 
ATOM     25  H14 UNL     1      11.005  -2.282  -0.387  1.00  0.00     0.172 HD
HETATM   26  O7  UNL     1      11.450  -0.445   1.310  1.00  0.00    -0.245 OA
HETATM   27  O1  UNL     1      12.455  -6.190   3.305  1.00  0.00    -0.265 OA
BRANCH  14  28
HETATM   28  N5  UNL     1      12.633  -3.946   4.267  1.00  0.00    -0.323 N 
ATOM     29  H52 UNL     1      12.919  -3.276   4.982  1.00  0.00     0.179 HD
ATOM     30  H51 UNL     1      12.655  -4.953   4.431  1.00  0.00     0.179 HD
ENDBRANCH  14  28
BRANCH  21  31
HETATM   31  N3  UNL     1      11.124  -7.088  -0.919  1.00  0.00    -0.234 N 
ATOM     32  H32 UNL     1      10.735  -6.748  -1.799  1.00  0.00     0.174 HD
ATOM     33  H31 UNL     1      11.307  -8.082  -0.782  1.00  0.00     0.174 HD
ENDBRANCH  21  31
ENDBRANCH  12  13
ENDBRANCH   9  12
ENDBRANCH   7   8
ENDBRANCH   1   7
BRANCH   6  34
HETATM   34  O6  UNL     1       6.925   2.420   5.218  1.00  0.00    -0.359 OA
ATOM     35  H6  UNL     1       5.980   2.393   5.313  1.00  0.00     0.217 HD
ENDBRANCH   6  34
BRANCH   3  36
HETATM   36  C11 UNL     1       8.545   3.383   0.173  1.00  0.00     0.165 C 
BRANCH  36  37
HETATM   37  N8  UNL     1       9.616   2.560  -0.242  1.00  0.00    -0.335 N 
HETATM   38  C12 UNL     1       9.373   1.532  -1.140  1.00  0.00     0.135 A 
HETATM   39  C13 UNL     1      10.565   0.941  -1.469  1.00  0.00     0.120 A 
HETATM   40 CL1  UNL     1      10.814  -0.395  -2.556  1.00  0.00    -0.063 Cl
HETATM   41  N9  UNL     1      11.487   1.611  -0.773  1.00  0.00    -0.329 N 
HETATM   42  C14 UNL     1      10.911   2.595  -0.026  1.00  0.00     0.152 A 
ATOM     43  H9  UNL     1      12.487   1.414  -0.798  1.00  0.00     0.168 HD
BRANCH  42  44
HETATM   44  C15 UNL     1      11.646   3.444   0.865  1.00  0.00     0.180 C 
HETATM   45  N10 UNL     1      12.442   3.095   1.961  1.00  0.00    -0.077 NA
BRANCH  44  46
HETATM   46  N11 UNL     1      11.646   4.747   0.655  1.00  0.00    -0.250 N 
ATOM     47  H11 UNL     1      11.673   5.380   1.454  1.00  0.00     0.196 HD
BRANCH  46  48
HETATM   48  O4  UNL     1      11.610   5.267  -0.609  1.00  0.00    -0.279 OA
BRANCH  48  49
HETATM   49  C16 UNL     1      11.463   6.649  -0.762  1.00  0.00     0.203 C 
BRANCH  49  50
HETATM   50  C17 UNL     1      12.704   7.295  -1.358  1.00  0.00     0.056 C 
BRANCH  50  51
HETATM   51  C18 UNL     1      12.377   7.614  -2.803  1.00  0.00     0.231 C 
BRANCH  51  52
HETATM   52  N12 UNL     1      11.555   6.517  -3.302  1.00  0.00    -0.079 N 
ATOM     53 3H12 UNL     1      11.171   6.693  -4.230  1.00  0.00     0.274 HD
ATOM     54 2H12 UNL     1      12.096   5.686  -3.541  1.00  0.00     0.274 HD
ATOM     55 1H12 UNL     1      10.839   6.341  -2.597  1.00  0.00     0.274 HD
ENDBRANCH  51  52
ENDBRANCH  50  51
ENDBRANCH  49  50
ENDBRANCH  48  49
ENDBRANCH  46  48
ENDBRANCH  44  46
ENDBRANCH  42  44
ENDBRANCH  36  37
ENDBRANCH   3  36
BRANCH   5  56
HETATM   56  O5  UNL     1       7.485   5.026   4.631  1.00  0.00    -0.387 OA
ATOM     57  H5  UNL     1       6.875   5.754   4.592  1.00  0.00     0.210 HD
ENDBRANCH   5  56
BRANCH   4  58
HETATM   58  N13 UNL     1       9.277   5.051   2.821  1.00  0.00    -0.070 N 
ATOM     59 3H13 UNL     1       9.289   5.111   3.839  1.00  0.00     0.275 HD
ATOM     60 2H13 UNL     1      10.052   4.402   2.680  1.00  0.00     0.275 HD
ATOM     61 1H13 UNL     1       9.487   5.957   2.404  1.00  0.00     0.275 HD
ENDBRANCH   4  58
TORSDOF 18
ENDMDL
MODEL 5
REMARK VINA RESULT: -9.490592065      1.984      2.548
REMARK  18 active torsions:
REMARK  status: ('A' for Active; 'I' for Inactive)
REMARK    1  A    between atoms: C5_9  and  N3_10 
REMARK    2  A    between atoms: N4_13  and  N5_14 
REMARK    3  A    between atoms: N6_17  and  C6_18 
REMARK    4  A    between atoms: C6_18  and  C7_19 
REMARK       I    between atoms: C7_19  and  N7_21 
REMARK    5  A    between atoms: N7_21  and  C8_23 
REMARK    6  A    between atoms: C8_23  and  C9_24 
REMARK    7  A    between atoms: C10_26  and  C11_27 
REMARK    8  A    between atoms: C11_27  and  N8_28 
REMARK    9  A    between atoms: C14_34  and  C15_35 
REMARK   10  A    between atoms: C15_35  and  N11_37 
REMARK   11  A    between atoms: N11_37  and  O4_39 
REMARK   12  A    between atoms: O4_39  and  C16_40 
REMARK   13  A    between atoms: C16_40  and  C17_41 
REMARK   14  A    between atoms: C17_41  and  C18_42 
REMARK   15  A    between atoms: C18_42  and  N12_43 
REMARK   16  A    between atoms: C19_47  and  N13_48 
REMARK   17  A    between atoms: C20_52  and  O5_53 
REMARK   18  A    between atoms: C21_55  and  O6_56 
ROOT
HETATM    1  C9  UNL     1       9.490   2.261   2.551  1.00  0.00     0.116 C 
HETATM    2  O3  UNL     1      10.081   2.903   1.420  1.00  0.00    -0.338 OA
HETATM    3  C10 UNL     1       9.199   3.755   0.816  1.00  0.00     0.180 C 
HETATM    4  C19 UNL     1       8.785   4.856   1.745  1.00  0.00     0.249 C 
HETATM    5  C20 UNL     1       7.854   4.195   2.779  1.00  0.00     0.210 C 
HETATM    6  C21 UNL     1       8.165   2.740   2.846  1.00  0.00     0.108 C 
ENDROOT
BRANCH   1   7
HETATM    7  C8  UNL     1      10.599   2.033   3.473  1.00  0.00     0.130 C 
BRANCH   7   8
HETATM    8  N7  UNL     1      11.466   0.956   3.493  1.00  0.00    -0.333 N 
HETATM    9  C7  UNL     1      11.368  -0.354   3.972  1.00  0.00     0.241 C 
HETATM   10  O2  UNL     1      10.361  -0.786   4.549  1.00  0.00    -0.271 OA
ATOM     11  H7  UNL     1      12.371   1.161   3.067  1.00  0.00     0.168 HD
BRANCH   9  12
HETATM   12  C6  UNL     1      12.493  -1.359   3.821  1.00  0.00     0.259 C 
BRANCH  12  13
HETATM   13  N6  UNL     1      12.190  -2.283   2.750  1.00  0.00    -0.212 N 
HETATM   14  N4  UNL     1      12.144  -3.664   2.947  1.00  0.00    -0.187 N 
HETATM   15  C3  UNL     1      11.846  -4.571   1.882  1.00  0.00     0.187 A 
HETATM   16  C2  UNL     1      11.594  -4.111   0.621  1.00  0.00     0.163 A 
HETATM   17  C4  UNL     1      11.798  -5.947   2.068  1.00  0.00     0.293 A 
HETATM   18  N1  UNL     1      11.313  -4.985  -0.378  1.00  0.00    -0.170 N 
HETATM   19  N14 UNL     1      11.626  -2.717   0.358  1.00  0.00    -0.290 N 
HETATM   20  C1  UNL     1      11.054  -4.461  -1.686  1.00  0.00     0.177 C 
HETATM   21  C5  UNL     1      11.277  -6.312  -0.153  1.00  0.00     0.682 A 
HETATM   22  N2  UNL     1      11.519  -6.805   1.071  1.00  0.00    -0.154 N 
ATOM     23  H2  UNL     1      11.493  -7.810   1.243  1.00  0.00     0.187 HD
HETATM   24  C22 UNL     1      11.926  -1.805   1.432  1.00  0.00     0.344 A 
ATOM     25  H14 UNL     1      11.439  -2.365  -0.581  1.00  0.00     0.172 HD
HETATM   26  O7  UNL     1      11.944  -0.580   1.154  1.00  0.00    -0.245 OA
HETATM   27  O1  UNL     1      12.029  -6.384   3.227  1.00  0.00    -0.265 OA
BRANCH  14  28
HETATM   28  N5  UNL     1      12.391  -4.170   4.206  1.00  0.00    -0.323 N 
ATOM     29  H52 UNL     1      12.059  -5.107   4.438  1.00  0.00     0.179 HD
ATOM     30  H51 UNL     1      12.902  -3.596   4.877  1.00  0.00     0.179 HD
ENDBRANCH  14  28
BRANCH  21  31
HETATM   31  N3  UNL     1      11.009  -7.154  -1.107  1.00  0.00    -0.234 N 
ATOM     32  H32 UNL     1      11.792  -7.590  -1.595  1.00  0.00     0.174 HD
ATOM     33  H31 UNL     1      10.047  -7.376  -1.366  1.00  0.00     0.174 HD
ENDBRANCH  21  31
ENDBRANCH  12  13
ENDBRANCH   9  12
ENDBRANCH   7   8
ENDBRANCH   1   7
BRANCH   6  34
HETATM   34  O6  UNL     1       7.481   2.183   3.930  1.00  0.00    -0.359 OA
ATOM     35  H6  UNL     1       6.562   2.394   4.041  1.00  0.00     0.217 HD
ENDBRANCH   6  34
BRANCH   3  36
HETATM   36  C11 UNL     1       9.716   4.281  -0.498  1.00  0.00     0.165 C 
BRANCH  36  37
HETATM   37  N8  UNL     1       8.704   4.313  -1.485  1.00  0.00    -0.335 N 
HETATM   38  C12 UNL     1       8.267   5.536  -1.967  1.00  0.00     0.135 A 
HETATM   39  C13 UNL     1       7.364   5.316  -2.976  1.00  0.00     0.120 A 
HETATM   40 CL1  UNL     1       6.518   6.513  -3.914  1.00  0.00    -0.063 Cl
HETATM   41  N9  UNL     1       7.276   3.986  -3.077  1.00  0.00    -0.329 N 
HETATM   42  C14 UNL     1       8.090   3.376  -2.169  1.00  0.00     0.152 A 
ATOM     43  H9  UNL     1       6.681   3.495  -3.744  1.00  0.00     0.168 HD
BRANCH  42  44
HETATM   44  C15 UNL     1       8.166   1.954  -2.007  1.00  0.00     0.180 C 
HETATM   45  N10 UNL     1       7.932   1.182  -0.864  1.00  0.00    -0.077 NA
BRANCH  44  46
HETATM   46  N11 UNL     1       8.456   1.204  -3.053  1.00  0.00    -0.250 N 
ATOM     47  H11 UNL     1       8.043   1.430  -3.958  1.00  0.00     0.196 HD
BRANCH  46  48
HETATM   48  O4  UNL     1       9.296   0.130  -2.952  1.00  0.00    -0.279 OA
BRANCH  48  49
HETATM   49  C16 UNL     1      10.669   0.334  -3.121  1.00  0.00     0.203 C 
BRANCH  49  50
HETATM   50  C17 UNL     1      11.412   0.347  -1.794  1.00  0.00     0.056 C 
BRANCH  50  51
HETATM   51  C18 UNL     1      11.990   1.739  -1.633  1.00  0.00     0.231 C 
BRANCH  51  52
HETATM   52  N12 UNL     1      12.435   1.854  -0.248  1.00  0.00    -0.079 N 
ATOM     53 3H12 UNL     1      13.436   1.699  -0.134  1.00  0.00     0.274 HD
ATOM     54 2H12 UNL     1      12.411   2.811   0.104  1.00  0.00     0.274 HD
ATOM     55 1H12 UNL     1      11.864   1.210   0.299  1.00  0.00     0.274 HD
ENDBRANCH  51  52
ENDBRANCH  50  51
ENDBRANCH  49  50
ENDBRANCH  48  49
ENDBRANCH  46  48
ENDBRANCH  44  46
ENDBRANCH  42  44
ENDBRANCH  36  37
ENDBRANCH   3  36
BRANCH   5  56
HETATM   56  O5  UNL     1       7.849   4.887   3.956  1.00  0.00    -0.387 OA
ATOM     57  H5  UNL     1       7.959   5.819   3.810  1.00  0.00     0.210 HD
ENDBRANCH   5  56
BRANCH   4  58
HETATM   58  N13 UNL     1       9.875   5.414   2.505  1.00  0.00    -0.070 N 
ATOM     59 3H13 UNL     1       9.682   5.358   3.505  1.00  0.00     0.275 HD
ATOM     60 2H13 UNL     1      10.695   4.809   2.456  1.00  0.00     0.275 HD
ATOM     61 1H13 UNL     1      10.116   6.368   2.238  1.00  0.00     0.275 HD
ENDBRANCH   4  58
TORSDOF 18
ENDMDL
