MODEL 1
REMARK VINA RESULT: -9.055299239      0.000      0.000
REMARK  20 active torsions:
REMARK  status: ('A' for Active; 'I' for Inactive)
REMARK    1  A    between atoms: O1_2  and  C2_3 
REMARK    2  A    between atoms: C3_5  and  C4_6 
REMARK    3  A    between atoms: C4_6  and  O3_7 
REMARK    4  A    between atoms: C5_9  and  O4_10 
REMARK    5  A    between atoms: O4_10  and  C6_11 
REMARK    6  A    between atoms: C6_11  and  O5_12 
REMARK    7  A    between atoms: O5_12  and  N1_13 
REMARK    8  A    between atoms: C7_16  and  O6_17 
REMARK    9  A    between atoms: C8_19  and  O7_20 
REMARK   10  A    between atoms: O7_20  and  C9_21 
REMARK   11  A    between atoms: C10_23  and  C11_24 
REMARK   12  A    between atoms: C11_24  and  N2_25 
REMARK   13  A    between atoms: N2_25  and  C12_27 
REMARK   14  A    between atoms: C15_31  and  N3_32 
REMARK   15  A    between atoms: C16_36  and  O9_37 
REMARK   16  A    between atoms: C17_39  and  O10_40 
REMARK   17  A    between atoms: C18_43  and  O12_44 
REMARK   18  A    between atoms: O12_44  and  C19_45 
REMARK   19  A    between atoms: C25_51  and  N4_52 
REMARK   20  A    between atoms: C26_56  and  O13_57 
ROOT
HETATM    1  C9  UNL     1      11.763   0.955   2.849  1.00  0.00     0.297 C 
HETATM    2  O8  UNL     1      11.522   0.977   1.497  1.00  0.00    -0.324 OA
HETATM    3  C10 UNL     1      11.992  -0.101   0.791  1.00  0.00     0.306 C 
HETATM    4  O11 UNL     1      12.425  -1.176   1.559  1.00  0.00    -0.324 OA
HETATM    5  C18 UNL     1      11.436  -1.492   2.478  1.00  0.00     0.297 C 
HETATM    6  C26 UNL     1      11.462  -0.366   3.497  1.00  0.00     0.228 C 
ENDROOT
BRANCH   1   7
HETATM    7  O7  UNL     1      10.958   1.914   3.460  1.00  0.00    -0.345 OA
BRANCH   7   8
HETATM    8  C8  UNL     1      10.287   2.697   2.532  1.00  0.00     0.211 C 
HETATM    9  C2  UNL     1       8.869   2.884   3.046  1.00  0.00     0.291 C 
HETATM   10  O2  UNL     1       8.156   3.596   2.109  1.00  0.00    -0.349 OA
HETATM   11  C3  UNL     1       8.573   4.870   1.952  1.00  0.00     0.180 C 
HETATM   12  C5  UNL     1      10.079   5.044   1.685  1.00  0.00     0.186 C 
HETATM   13  C7  UNL     1      10.885   4.100   2.497  1.00  0.00     0.183 C 
BRANCH   9  14
HETATM   14  O1  UNL     1       8.291   1.645   3.283  1.00  0.00    -0.363 OA
HETATM   15  C1  UNL     1       8.077   1.018   2.073  1.00  0.00     0.204 C 
ENDBRANCH   9  14
BRANCH  11  16
HETATM   16  C4  UNL     1       8.163   5.711   3.137  1.00  0.00     0.198 C 
BRANCH  16  17
HETATM   17  O3  UNL     1       6.745   5.741   3.196  1.00  0.00    -0.398 OA
ATOM     18  H3  UNL     1       6.487   6.141   4.018  1.00  0.00     0.209 HD
ENDBRANCH  16  17
ENDBRANCH  11  16
BRANCH  12  19
HETATM   19  O4  UNL     1      10.327   5.114   0.347  1.00  0.00    -0.354 OA
BRANCH  19  20
HETATM   20  C6  UNL     1      11.001   6.147  -0.180  1.00  0.00     0.369 C 
BRANCH  20  21
HETATM   21  O5  UNL     1      12.350   6.156  -0.277  1.00  0.00    -0.262 OA
BRANCH  21  22
HETATM   22  N1  UNL     1      12.903   6.582  -1.403  1.00  0.00    -0.309 N 
ATOM     23  H12 UNL     1      12.349   6.610  -2.259  1.00  0.00     0.184 HD
ATOM     24  H11 UNL     1      13.880   6.874  -1.388  1.00  0.00     0.184 HD
ENDBRANCH  21  22
ENDBRANCH  20  21
ENDBRANCH  19  20
ENDBRANCH  12  19
BRANCH  13  25
HETATM   25  O6  UNL     1      12.212   4.072   2.122  1.00  0.00    -0.390 OA
ATOM     26  H6  UNL     1      12.801   3.991   2.863  1.00  0.00     0.210 HD
ENDBRANCH  13  25
ENDBRANCH   7   8
ENDBRANCH   1   7
BRANCH   6  27
HETATM   27  O13 UNL     1      10.232  -0.398   4.149  1.00  0.00    -0.386 OA
ATOM     28  H13 UNL     1       9.959  -1.272   4.403  1.00  0.00     0.210 HD
ENDBRANCH   6  27
BRANCH   3  29
HETATM   29  C11 UNL     1      10.988  -0.504  -0.247  1.00  0.00     0.121 C 
BRANCH  29  30
HETATM   30  N2  UNL     1      11.104   0.046  -1.508  1.00  0.00    -0.369 N 
ATOM     31  H2  UNL     1      11.755  -0.412  -2.146  1.00  0.00     0.164 HD
BRANCH  30  32
HETATM   32  C12 UNL     1      10.433   1.147  -1.998  1.00  0.00     0.020 C 
HETATM   33  C13 UNL     1       8.941   0.951  -2.220  1.00  0.00     0.094 C 
HETATM   34  C14 UNL     1       8.417   2.235  -2.812  1.00  0.00     0.208 C 
HETATM   35  F1  UNL     1       7.099   2.471  -2.435  1.00  0.00    -0.247 F 
HETATM   36  C15 UNL     1       9.232   3.424  -2.431  1.00  0.00     0.248 C 
HETATM   37  C16 UNL     1      10.562   3.378  -3.115  1.00  0.00     0.185 C 
HETATM   38  C17 UNL     1      11.107   1.943  -3.051  1.00  0.00     0.194 C 
BRANCH  36  39
HETATM   39  N3  UNL     1       8.527   4.596  -2.978  1.00  0.00    -0.070 N 
ATOM     40  H33 UNL     1       8.119   4.432  -3.898  1.00  0.00     0.274 HD
ATOM     41  H32 UNL     1       7.656   4.810  -2.492  1.00  0.00     0.274 HD
ATOM     42  H31 UNL     1       9.199   5.363  -2.964  1.00  0.00     0.274 HD
ENDBRANCH  36  39
BRANCH  37  43
HETATM   43  O9  UNL     1      11.445   4.294  -2.558  1.00  0.00    -0.390 OA
ATOM     44  H9  UNL     1      11.691   4.961  -3.188  1.00  0.00     0.210 HD
ENDBRANCH  37  43
BRANCH  38  45
HETATM   45  O10 UNL     1      12.461   2.116  -2.723  1.00  0.00    -0.387 OA
ATOM     46  H10 UNL     1      12.593   2.975  -2.340  1.00  0.00     0.210 HD
ENDBRANCH  38  45
ENDBRANCH  30  32
ENDBRANCH  29  30
ENDBRANCH   3  29
BRANCH   5  47
HETATM   47  O12 UNL     1      11.896  -2.673   3.112  1.00  0.00    -0.351 OA
BRANCH  47  48
HETATM   48  C19 UNL     1      12.457  -3.574   2.244  1.00  0.00     0.155 C 
HETATM   49  C20 UNL     1      11.351  -4.107   1.339  1.00  0.00     0.038 C 
HETATM   50  C21 UNL     1      11.886  -5.110   0.365  1.00  0.00    -0.016 C 
HETATM   51  C22 UNL     1      10.765  -5.516  -0.551  1.00  0.00     0.010 C 
HETATM   52  C23 UNL     1      12.401  -6.304   1.104  1.00  0.00     0.006 C 
HETATM   53  C24 UNL     1      12.345  -6.063   2.586  1.00  0.00     0.036 C 
HETATM   54  C25 UNL     1      12.990  -4.774   3.005  1.00  0.00     0.212 C 
BRANCH  54  55
HETATM   55  N4  UNL     1      12.786  -4.624   4.437  1.00  0.00    -0.073 N 
ATOM     56  H43 UNL     1      12.870  -3.650   4.728  1.00  0.00     0.274 HD
ATOM     57  H42 UNL     1      11.812  -4.782   4.695  1.00  0.00     0.274 HD
ATOM     58  H41 UNL     1      13.416  -5.228   4.967  1.00  0.00     0.274 HD
ENDBRANCH  54  55
ENDBRANCH  47  48
ENDBRANCH   5  47
TORSDOF 20
ENDMDL
MODEL 2
REMARK VINA RESULT: -8.819636378      1.389      1.678
REMARK  20 active torsions:
REMARK  status: ('A' for Active; 'I' for Inactive)
REMARK    1  A    between atoms: O1_2  and  C2_3 
REMARK    2  A    between atoms: C3_5  and  C4_6 
REMARK    3  A    between atoms: C4_6  and  O3_7 
REMARK    4  A    between atoms: C5_9  and  O4_10 
REMARK    5  A    between atoms: O4_10  and  C6_11 
REMARK    6  A    between atoms: C6_11  and  O5_12 
REMARK    7  A    between atoms: O5_12  and  N1_13 
REMARK    8  A    between atoms: C7_16  and  O6_17 
REMARK    9  A    between atoms: C8_19  and  O7_20 
REMARK   10  A    between atoms: O7_20  and  C9_21 
REMARK   11  A    between atoms: C10_23  and  C11_24 
REMARK   12  A    between atoms: C11_24  and  N2_25 
REMARK   13  A    between atoms: N2_25  and  C12_27 
REMARK   14  A    between atoms: C15_31  and  N3_32 
REMARK   15  A    between atoms: C16_36  and  O9_37 
REMARK   16  A    between atoms: C17_39  and  O10_40 
REMARK   17  A    between atoms: C18_43  and  O12_44 
REMARK   18  A    between atoms: O12_44  and  C19_45 
REMARK   19  A    between atoms: C25_51  and  N4_52 
REMARK   20  A    between atoms: C26_56  and  O13_57 
ROOT
HETATM    1  C9  UNL     1      11.580   1.242   2.522  1.00  0.00     0.297 C 
HETATM    2  O8  UNL     1      11.517   1.344   1.154  1.00  0.00    -0.324 OA
HETATM    3  C10 UNL     1      11.998   0.266   0.454  1.00  0.00     0.306 C 
HETATM    4  O11 UNL     1      12.253  -0.873   1.210  1.00  0.00    -0.324 OA
HETATM    5  C18 UNL     1      11.135  -1.154   1.981  1.00  0.00     0.297 C 
HETATM    6  C26 UNL     1      11.107  -0.080   3.055  1.00  0.00     0.228 C 
ENDROOT
BRANCH   1   7
HETATM    7  O7  UNL     1      10.773   2.231   3.079  1.00  0.00    -0.345 OA
BRANCH   7   8
HETATM    8  C8  UNL     1      10.182   3.028   2.109  1.00  0.00     0.211 C 
HETATM    9  C2  UNL     1       8.771   3.335   2.581  1.00  0.00     0.291 C 
HETATM   10  O2  UNL     1       8.132   4.063   1.604  1.00  0.00    -0.349 OA
HETATM   11  C3  UNL     1       8.645   5.297   1.413  1.00  0.00     0.180 C 
HETATM   12  C5  UNL     1      10.166   5.351   1.177  1.00  0.00     0.186 C 
HETATM   13  C7  UNL     1      10.882   4.380   2.041  1.00  0.00     0.183 C 
BRANCH   9  14
HETATM   14  O1  UNL     1       8.098   2.151   2.847  1.00  0.00    -0.363 OA
HETATM   15  C1  UNL     1       7.321   2.328   3.974  1.00  0.00     0.204 C 
ENDBRANCH   9  14
BRANCH  11  16
HETATM   16  C4  UNL     1       8.273   6.208   2.559  1.00  0.00     0.198 C 
BRANCH  16  17
HETATM   17  O3  UNL     1       6.861   6.357   2.572  1.00  0.00    -0.398 OA
ATOM     18  H3  UNL     1       6.501   5.741   3.200  1.00  0.00     0.209 HD
ENDBRANCH  16  17
ENDBRANCH  11  16
BRANCH  12  19
HETATM   19  O4  UNL     1      10.447   5.355  -0.156  1.00  0.00    -0.354 OA
BRANCH  19  20
HETATM   20  C6  UNL     1      11.163   6.345  -0.711  1.00  0.00     0.369 C 
BRANCH  20  21
HETATM   21  O5  UNL     1      12.501   6.449  -0.546  1.00  0.00    -0.262 OA
BRANCH  21  22
HETATM   22  N1  UNL     1      13.272   6.487  -1.622  1.00  0.00    -0.309 N 
ATOM     23  H12 UNL     1      13.033   5.920  -2.436  1.00  0.00     0.184 HD
ATOM     24  H11 UNL     1      14.096   7.088  -1.613  1.00  0.00     0.184 HD
ENDBRANCH  21  22
ENDBRANCH  20  21
ENDBRANCH  19  20
ENDBRANCH  12  19
BRANCH  13  25
HETATM   25  O6  UNL     1      12.211   4.242   1.699  1.00  0.00    -0.390 OA
ATOM     26  H6  UNL     1      12.788   4.260   2.454  1.00  0.00     0.210 HD
ENDBRANCH  13  25
ENDBRANCH   7   8
ENDBRANCH   1   7
BRANCH   6  27
HETATM   27  O13 UNL     1       9.805  -0.048   3.545  1.00  0.00    -0.386 OA
ATOM     28  H13 UNL     1       9.569  -0.819   4.048  1.00  0.00     0.210 HD
ENDBRANCH   6  27
BRANCH   3  29
HETATM   29  C11 UNL     1      11.110  -0.012  -0.721  1.00  0.00     0.121 C 
BRANCH  29  30
HETATM   30  N2  UNL     1       9.966   0.747  -0.862  1.00  0.00    -0.369 N 
ATOM     31  H2  UNL     1       9.306   0.726  -0.084  1.00  0.00     0.164 HD
BRANCH  30  32
HETATM   32  C12 UNL     1       9.618   1.532  -1.942  1.00  0.00     0.020 C 
HETATM   33  C13 UNL     1      10.691   1.674  -3.012  1.00  0.00     0.094 C 
HETATM   34  C14 UNL     1      10.141   2.611  -4.057  1.00  0.00     0.208 C 
HETATM   35  F1  UNL     1      10.632   2.308  -5.323  1.00  0.00    -0.247 F 
HETATM   36  C15 UNL     1       8.651   2.600  -4.119  1.00  0.00     0.248 C 
HETATM   37  C16 UNL     1       8.081   3.253  -2.899  1.00  0.00     0.185 C 
HETATM   38  C17 UNL     1       8.864   2.777  -1.666  1.00  0.00     0.194 C 
BRANCH  36  39
HETATM   39  N3  UNL     1       8.283   3.460  -5.257  1.00  0.00    -0.070 N 
ATOM     40  H33 UNL     1       9.065   3.999  -5.629  1.00  0.00     0.274 HD
ATOM     41  H32 UNL     1       8.074   2.939  -6.109  1.00  0.00     0.274 HD
ATOM     42  H31 UNL     1       7.508   4.040  -4.935  1.00  0.00     0.274 HD
ENDBRANCH  36  39
BRANCH  37  43
HETATM   43  O9  UNL     1       6.721   2.995  -2.782  1.00  0.00    -0.390 OA
ATOM     44  H9  UNL     1       6.466   2.908  -1.871  1.00  0.00     0.210 HD
ENDBRANCH  37  43
BRANCH  38  45
HETATM   45  O10 UNL     1       7.864   2.526  -0.713  1.00  0.00    -0.387 OA
ATOM     46  H10 UNL     1       7.948   3.136   0.011  1.00  0.00     0.210 HD
ENDBRANCH  38  45
ENDBRANCH  30  32
ENDBRANCH  29  30
ENDBRANCH   3  29
BRANCH   5  47
HETATM   47  O12 UNL     1      11.426  -2.393   2.602  1.00  0.00    -0.351 OA
BRANCH  47  48
HETATM   48  C19 UNL     1      12.132  -3.251   1.800  1.00  0.00     0.155 C 
HETATM   49  C20 UNL     1      11.134  -4.152   1.079  1.00  0.00     0.038 C 
HETATM   50  C21 UNL     1      11.834  -5.130   0.187  1.00  0.00    -0.016 C 
HETATM   51  C22 UNL     1      10.788  -5.913  -0.559  1.00  0.00     0.010 C 
HETATM   52  C23 UNL     1      12.673  -6.053   1.012  1.00  0.00     0.006 C 
HETATM   53  C24 UNL     1      12.657  -5.623   2.452  1.00  0.00     0.036 C 
HETATM   54  C25 UNL     1      12.993  -4.173   2.645  1.00  0.00     0.212 C 
BRANCH  54  55
HETATM   55  N4  UNL     1      12.853  -3.873   4.062  1.00  0.00    -0.073 N 
ATOM     56  H43 UNL     1      12.947  -2.874   4.245  1.00  0.00     0.274 HD
ATOM     57  H42 UNL     1      11.892  -4.001   4.378  1.00  0.00     0.274 HD
ATOM     58  H41 UNL     1      13.507  -4.419   4.622  1.00  0.00     0.274 HD
ENDBRANCH  54  55
ENDBRANCH  47  48
ENDBRANCH   5  47
TORSDOF 20
ENDMDL
MODEL 3
REMARK VINA RESULT: -8.695790260      2.828      4.444
REMARK  20 active torsions:
REMARK  status: ('A' for Active; 'I' for Inactive)
REMARK    1  A    between atoms: O1_2  and  C2_3 
REMARK    2  A    between atoms: C3_5  and  C4_6 
REMARK    3  A    between atoms: C4_6  and  O3_7 
REMARK    4  A    between atoms: C5_9  and  O4_10 
REMARK    5  A    between atoms: O4_10  and  C6_11 
REMARK    6  A    between atoms: C6_11  and  O5_12 
REMARK    7  A    between atoms: O5_12  and  N1_13 
REMARK    8  A    between atoms: C7_16  and  O6_17 
REMARK    9  A    between atoms: C8_19  and  O7_20 
REMARK   10  A    between atoms: O7_20  and  C9_21 
REMARK   11  A    between atoms: C10_23  and  C11_24 
REMARK   12  A    between atoms: C11_24  and  N2_25 
REMARK   13  A    between atoms: N2_25  and  C12_27 
REMARK   14  A    between atoms: C15_31  and  N3_32 
REMARK   15  A    between atoms: C16_36  and  O9_37 
REMARK   16  A    between atoms: C17_39  and  O10_40 
REMARK   17  A    between atoms: C18_43  and  O12_44 
REMARK   18  A    between atoms: O12_44  and  C19_45 
REMARK   19  A    between atoms: C25_51  and  N4_52 
REMARK   20  A    between atoms: C26_56  and  O13_57 
ROOT
HETATM    1  C9  UNL     1       9.453   2.764   2.243  1.00  0.00     0.297 C 
HETATM    2  O8  UNL     1      10.151   2.945   1.074  1.00  0.00    -0.324 OA
HETATM    3  C10 UNL     1      11.304   2.211   0.950  1.00  0.00     0.306 C 
HETATM    4  O11 UNL     1      11.482   1.211   1.899  1.00  0.00    -0.324 OA
HETATM    5  C18 UNL     1      10.329   0.444   1.959  1.00  0.00     0.297 C 
HETATM    6  C26 UNL     1       9.295   1.324   2.639  1.00  0.00     0.228 C 
ENDROOT
BRANCH   1   7
HETATM    7  O7  UNL     1       8.177   3.298   2.085  1.00  0.00    -0.345 OA
BRANCH   7   8
HETATM    8  C8  UNL     1       7.846   4.168   3.113  1.00  0.00     0.211 C 
HETATM    9  C2  UNL     1       7.767   5.562   2.512  1.00  0.00     0.291 C 
HETATM   10  O2  UNL     1       7.513   6.460   3.524  1.00  0.00    -0.349 OA
HETATM   11  C3  UNL     1       6.295   6.323   4.088  1.00  0.00     0.180 C 
HETATM   12  C5  UNL     1       5.945   4.902   4.569  1.00  0.00     0.186 C 
HETATM   13  C7  UNL     1       6.438   3.874   3.619  1.00  0.00     0.183 C 
BRANCH   9  14
HETATM   14  O1  UNL     1       8.957   5.859   1.862  1.00  0.00    -0.363 OA
HETATM   15  C1  UNL     1       8.662   6.440   0.646  1.00  0.00     0.204 C 
ENDBRANCH   9  14
BRANCH  11  16
HETATM   16  C4  UNL     1       5.219   6.826   3.155  1.00  0.00     0.198 C 
BRANCH  16  17
HETATM   17  O3  UNL     1       3.962   6.382   3.641  1.00  0.00    -0.398 OA
ATOM     18  H3  UNL     1       3.702   5.615   3.144  1.00  0.00     0.209 HD
ENDBRANCH  16  17
ENDBRANCH  11  16
BRANCH  12  19
HETATM   19  O4  UNL     1       6.244   4.753   5.890  1.00  0.00    -0.354 OA
BRANCH  19  20
HETATM   20  C6  UNL     1       5.377   4.175   6.735  1.00  0.00     0.369 C 
BRANCH  20  21
HETATM   21  O5  UNL     1       5.255   2.831   6.837  1.00  0.00    -0.262 OA
BRANCH  21  22
HETATM   22  N1  UNL     1       4.158   2.256   6.368  1.00  0.00    -0.309 N 
ATOM     23  H12 UNL     1       3.271   2.759   6.397  1.00  0.00     0.184 HD
ATOM     24  H11 UNL     1       4.226   1.313   5.985  1.00  0.00     0.184 HD
ENDBRANCH  21  22
ENDBRANCH  20  21
ENDBRANCH  19  20
ENDBRANCH  12  19
BRANCH  13  25
HETATM   25  O6  UNL     1       6.342   2.594   4.124  1.00  0.00    -0.390 OA
ATOM     26  H6  UNL     1       5.702   2.065   3.663  1.00  0.00     0.210 HD
ENDBRANCH  13  25
ENDBRANCH   7   8
ENDBRANCH   1   7
BRANCH   6  27
HETATM   27  O13 UNL     1       8.050   0.792   2.315  1.00  0.00    -0.386 OA
ATOM     28  H13 UNL     1       7.331   1.194   2.789  1.00  0.00     0.210 HD
ENDBRANCH   6  27
BRANCH   3  29
HETATM   29  C11 UNL     1      11.430   1.698  -0.454  1.00  0.00     0.121 C 
BRANCH  29  30
HETATM   30  N2  UNL     1      10.271   1.392  -1.137  1.00  0.00    -0.369 N 
ATOM     31  H2  UNL     1       9.740   0.588  -0.798  1.00  0.00     0.164 HD
BRANCH  30  32
HETATM   32  C12 UNL     1       9.751   2.054  -2.230  1.00  0.00     0.020 C 
HETATM   33  C13 UNL     1      10.707   2.220  -3.402  1.00  0.00     0.094 C 
HETATM   34  C14 UNL     1       9.975   3.016  -4.452  1.00  0.00     0.208 C 
HETATM   35  F1  UNL     1      10.384   2.668  -5.735  1.00  0.00    -0.247 F 
HETATM   36  C15 UNL     1       8.494   2.854  -4.374  1.00  0.00     0.248 C 
HETATM   37  C16 UNL     1       7.965   3.538  -3.153  1.00  0.00     0.185 C 
HETATM   38  C17 UNL     1       8.897   3.236  -1.969  1.00  0.00     0.194 C 
BRANCH  36  39
HETATM   39  N3  UNL     1       7.941   3.584  -5.528  1.00  0.00    -0.070 N 
ATOM     40  H33 UNL     1       7.764   4.570  -5.337  1.00  0.00     0.274 HD
ATOM     41  H32 UNL     1       8.614   3.722  -6.281  1.00  0.00     0.274 HD
ATOM     42  H31 UNL     1       7.109   3.070  -5.816  1.00  0.00     0.274 HD
ENDBRANCH  36  39
BRANCH  37  43
HETATM   43  O9  UNL     1       6.655   3.156  -2.892  1.00  0.00    -0.390 OA
ATOM     44  H9  UNL     1       6.246   3.740  -2.264  1.00  0.00     0.210 HD
ENDBRANCH  37  43
BRANCH  38  45
HETATM   45  O10 UNL     1       8.014   2.960  -0.912  1.00  0.00    -0.387 OA
ATOM     46  H10 UNL     1       7.116   3.029  -1.217  1.00  0.00     0.210 HD
ENDBRANCH  38  45
ENDBRANCH  30  32
ENDBRANCH  29  30
ENDBRANCH   3  29
BRANCH   5  47
HETATM   47  O12 UNL     1      10.648  -0.622   2.835  1.00  0.00    -0.351 OA
BRANCH  47  48
HETATM   48  C19 UNL     1      11.915  -1.114   2.656  1.00  0.00     0.155 C 
HETATM   49  C20 UNL     1      11.796  -2.538   2.120  1.00  0.00     0.038 C 
HETATM   50  C21 UNL     1      13.145  -3.150   1.907  1.00  0.00    -0.016 C 
HETATM   51  C22 UNL     1      12.950  -4.508   1.291  1.00  0.00     0.010 C 
HETATM   52  C23 UNL     1      13.852  -3.280   3.219  1.00  0.00     0.006 C 
HETATM   53  C24 UNL     1      13.047  -2.633   4.311  1.00  0.00     0.036 C 
HETATM   54  C25 UNL     1      12.629  -1.227   3.990  1.00  0.00     0.212 C 
BRANCH  54  55
HETATM   55  N4  UNL     1      11.788  -0.757   5.080  1.00  0.00    -0.073 N 
ATOM     56  H43 UNL     1      11.378   0.153   4.872  1.00  0.00     0.274 HD
ATOM     57  H42 UNL     1      10.931  -1.304   5.153  1.00  0.00     0.274 HD
ATOM     58  H41 UNL     1      12.300  -0.744   5.963  1.00  0.00     0.274 HD
ENDBRANCH  54  55
ENDBRANCH  47  48
ENDBRANCH   5  47
TORSDOF 20
ENDMDL
MODEL 4
REMARK VINA RESULT: -8.621593859      2.365      4.486
REMARK  20 active torsions:
REMARK  status: ('A' for Active; 'I' for Inactive)
REMARK    1  A    between atoms: O1_2  and  C2_3 
REMARK    2  A    between atoms: C3_5  and  C4_6 
REMARK    3  A    between atoms: C4_6  and  O3_7 
REMARK    4  A    between atoms: C5_9  and  O4_10 
REMARK    5  A    between atoms: O4_10  and  C6_11 
REMARK    6  A    between atoms: C6_11  and  O5_12 
REMARK    7  A    between atoms: O5_12  and  N1_13 
REMARK    8  A    between atoms: C7_16  and  O6_17 
REMARK    9  A    between atoms: C8_19  and  O7_20 
REMARK   10  A    between atoms: O7_20  and  C9_21 
REMARK   11  A    between atoms: C10_23  and  C11_24 
REMARK   12  A    between atoms: C11_24  and  N2_25 
REMARK   13  A    between atoms: N2_25  and  C12_27 
REMARK   14  A    between atoms: C15_31  and  N3_32 
REMARK   15  A    between atoms: C16_36  and  O9_37 
REMARK   16  A    between atoms: C17_39  and  O10_40 
REMARK   17  A    between atoms: C18_43  and  O12_44 
REMARK   18  A    between atoms: O12_44  and  C19_45 
REMARK   19  A    between atoms: C25_51  and  N4_52 
REMARK   20  A    between atoms: C26_56  and  O13_57 
ROOT
HETATM    1  C9  UNL     1      11.087  -0.319   0.631  1.00  0.00     0.297 C 
HETATM    2  O8  UNL     1      10.780   0.532   1.664  1.00  0.00    -0.324 OA
HETATM    3  C10 UNL     1       9.962   0.016   2.638  1.00  0.00     0.306 C 
HETATM    4  O11 UNL     1       9.755  -1.357   2.579  1.00  0.00    -0.324 OA
HETATM    5  C18 UNL     1      10.986  -1.988   2.484  1.00  0.00     0.297 C 
HETATM    6  C26 UNL     1      11.478  -1.698   1.077  1.00  0.00     0.228 C 
ENDROOT
BRANCH   1   7
HETATM    7  O7  UNL     1      12.160   0.213  -0.079  1.00  0.00    -0.345 OA
BRANCH   7   8
HETATM    8  C8  UNL     1      11.743   0.963  -1.169  1.00  0.00     0.211 C 
HETATM    9  C2  UNL     1      10.693   0.143  -1.901  1.00  0.00     0.291 C 
HETATM   10  O2  UNL     1      10.314   0.830  -3.032  1.00  0.00    -0.349 OA
HETATM   11  C3  UNL     1       9.654   1.981  -2.780  1.00  0.00     0.180 C 
HETATM   12  C5  UNL     1      10.358   2.947  -1.810  1.00  0.00     0.186 C 
HETATM   13  C7  UNL     1      11.013   2.215  -0.697  1.00  0.00     0.183 C 
BRANCH   9  14
HETATM   14  O1  UNL     1      11.212  -1.104  -2.221  1.00  0.00    -0.363 OA
HETATM   15  C1  UNL     1      10.849  -1.415  -3.515  1.00  0.00     0.204 C 
ENDBRANCH   9  14
BRANCH  11  16
HETATM   16  C4  UNL     1       8.255   1.693  -2.291  1.00  0.00     0.198 C 
BRANCH  16  17
HETATM   17  O3  UNL     1       7.721   2.886  -1.735  1.00  0.00    -0.398 OA
ATOM     18  H3  UNL     1       7.158   3.292  -2.383  1.00  0.00     0.209 HD
ENDBRANCH  16  17
ENDBRANCH  11  16
BRANCH  12  19
HETATM   19  O4  UNL     1      11.093   3.868  -2.494  1.00  0.00    -0.354 OA
BRANCH  19  20
HETATM   20  C6  UNL     1      11.099   5.159  -2.131  1.00  0.00     0.369 C 
BRANCH  20  21
HETATM   21  O5  UNL     1      10.564   5.583  -0.963  1.00  0.00    -0.262 OA
BRANCH  21  22
HETATM   22  N1  UNL     1      11.372   5.795   0.066  1.00  0.00    -0.309 N 
ATOM     23  H12 UNL     1      11.998   5.052   0.378  1.00  0.00     0.184 HD
ATOM     24  H11 UNL     1      11.349   6.704   0.526  1.00  0.00     0.184 HD
ENDBRANCH  21  22
ENDBRANCH  20  21
ENDBRANCH  19  20
ENDBRANCH  12  19
BRANCH  13  25
HETATM   25  O6  UNL     1      11.835   3.022   0.061  1.00  0.00    -0.390 OA
ATOM     26  H6  UNL     1      11.903   2.732   0.963  1.00  0.00     0.210 HD
ENDBRANCH  13  25
ENDBRANCH   7   8
ENDBRANCH   1   7
BRANCH   6  27
HETATM   27  O13 UNL     1      12.855  -1.908   1.091  1.00  0.00    -0.386 OA
ATOM     28  H13 UNL     1      13.104  -2.776   1.387  1.00  0.00     0.210 HD
ENDBRANCH   6  27
BRANCH   3  29
HETATM   29  C11 UNL     1      10.433   0.469   3.987  1.00  0.00     0.121 C 
BRANCH  29  30
HETATM   30  N2  UNL     1      10.276   1.801   4.314  1.00  0.00    -0.369 N 
ATOM     31  H2  UNL     1      10.983   2.205   4.930  1.00  0.00     0.164 HD
BRANCH  30  32
HETATM   32  C12 UNL     1       9.268   2.646   3.898  1.00  0.00     0.020 C 
HETATM   33  C13 UNL     1       7.856   2.164   4.195  1.00  0.00     0.094 C 
HETATM   34  C14 UNL     1       6.915   3.186   3.609  1.00  0.00     0.208 C 
HETATM   35  F1  UNL     1       5.738   3.277   4.344  1.00  0.00    -0.247 F 
HETATM   36  C15 UNL     1       7.519   4.547   3.524  1.00  0.00     0.248 C 
HETATM   37  C16 UNL     1       8.579   4.575   2.468  1.00  0.00     0.185 C 
HETATM   38  C17 UNL     1       9.425   3.297   2.577  1.00  0.00     0.194 C 
BRANCH  36  39
HETATM   39  N3  UNL     1       6.446   5.442   3.054  1.00  0.00    -0.070 N 
ATOM     40  H33 UNL     1       6.162   5.265   2.091  1.00  0.00     0.274 HD
ATOM     41  H32 UNL     1       5.543   5.255   3.488  1.00  0.00     0.274 HD
ATOM     42  H31 UNL     1       6.782   6.392   3.210  1.00  0.00     0.274 HD
ENDBRANCH  36  39
BRANCH  37  43
HETATM   43  O9  UNL     1       9.357   5.722   2.568  1.00  0.00    -0.390 OA
ATOM     44  H9  UNL     1      10.252   5.554   2.300  1.00  0.00     0.210 HD
ENDBRANCH  37  43
BRANCH  38  45
HETATM   45  O10 UNL     1      10.743   3.757   2.427  1.00  0.00    -0.387 OA
ATOM     46  H10 UNL     1      10.889   4.030   1.528  1.00  0.00     0.210 HD
ENDBRANCH  38  45
ENDBRANCH  30  32
ENDBRANCH  29  30
ENDBRANCH   3  29
BRANCH   5  47
HETATM   47  O12 UNL     1      10.691  -3.371   2.574  1.00  0.00    -0.351 OA
BRANCH  47  48
HETATM   48  C19 UNL     1      11.527  -4.156   1.823  1.00  0.00     0.155 C 
HETATM   49  C20 UNL     1      10.726  -4.705   0.646  1.00  0.00     0.038 C 
HETATM   50  C21 UNL     1      11.572  -5.586  -0.219  1.00  0.00    -0.016 C 
HETATM   51  C22 UNL     1      10.747  -6.009  -1.403  1.00  0.00     0.010 C 
HETATM   52  C23 UNL     1      12.006  -6.788   0.557  1.00  0.00     0.006 C 
HETATM   53  C24 UNL     1      11.574  -6.665   1.992  1.00  0.00     0.036 C 
HETATM   54  C25 UNL     1      11.974  -5.364   2.625  1.00  0.00     0.212 C 
BRANCH  54  55
HETATM   55  N4  UNL     1      11.420  -5.340   3.970  1.00  0.00    -0.073 N 
ATOM     56  H43 UNL     1      11.562  -4.435   4.417  1.00  0.00     0.274 HD
ATOM     57  H42 UNL     1      10.401  -5.350   3.954  1.00  0.00     0.274 HD
ATOM     58  H41 UNL     1      11.793  -6.101   4.538  1.00  0.00     0.274 HD
ENDBRANCH  54  55
ENDBRANCH  47  48
ENDBRANCH   5  47
TORSDOF 20
ENDMDL
MODEL 5
REMARK VINA RESULT: -8.590587556      2.958      5.870
REMARK  20 active torsions:
REMARK  status: ('A' for Active; 'I' for Inactive)
REMARK    1  A    between atoms: O1_2  and  C2_3 
REMARK    2  A    between atoms: C3_5  and  C4_6 
REMARK    3  A    between atoms: C4_6  and  O3_7 
REMARK    4  A    between atoms: C5_9  and  O4_10 
REMARK    5  A    between atoms: O4_10  and  C6_11 
REMARK    6  A    between atoms: C6_11  and  O5_12 
REMARK    7  A    between atoms: O5_12  and  N1_13 
REMARK    8  A    between atoms: C7_16  and  O6_17 
REMARK    9  A    between atoms: C8_19  and  O7_20 
REMARK   10  A    between atoms: O7_20  and  C9_21 
REMARK   11  A    between atoms: C10_23  and  C11_24 
REMARK   12  A    between atoms: C11_24  and  N2_25 
REMARK   13  A    between atoms: N2_25  and  C12_27 
REMARK   14  A    between atoms: C15_31  and  N3_32 
REMARK   15  A    between atoms: C16_36  and  O9_37 
REMARK   16  A    between atoms: C17_39  and  O10_40 
REMARK   17  A    between atoms: C18_43  and  O12_44 
REMARK   18  A    between atoms: O12_44  and  C19_45 
REMARK   19  A    between atoms: C25_51  and  N4_52 
REMARK   20  A    between atoms: C26_56  and  O13_57 
ROOT
HETATM    1  C9  UNL     1      10.472   1.668  -0.724  1.00  0.00     0.297 C 
HETATM    2  O8  UNL     1       9.958   2.079   0.482  1.00  0.00    -0.324 OA
HETATM    3  C10 UNL     1       9.649   1.079   1.369  1.00  0.00     0.306 C 
HETATM    4  O11 UNL     1      10.122  -0.185   1.034  1.00  0.00    -0.324 OA
HETATM    5  C18 UNL     1      11.473  -0.090   0.738  1.00  0.00     0.297 C 
HETATM    6  C26 UNL     1      11.542   0.622  -0.602  1.00  0.00     0.228 C 
ENDROOT
BRANCH   1   7
HETATM    7  O7  UNL     1      11.034   2.769  -1.366  1.00  0.00    -0.345 OA
BRANCH   7   8
HETATM    8  C8  UNL     1      10.138   3.380  -2.232  1.00  0.00     0.211 C 
HETATM    9  C2  UNL     1      10.323   4.881  -2.081  1.00  0.00     0.291 C 
HETATM   10  O2  UNL     1       9.394   5.517  -2.874  1.00  0.00    -0.349 OA
HETATM   11  C3  UNL     1       9.587   5.336  -4.198  1.00  0.00     0.180 C 
HETATM   12  C5  UNL     1       9.727   3.871  -4.652  1.00  0.00     0.186 C 
HETATM   13  C7  UNL     1      10.514   3.076  -3.677  1.00  0.00     0.183 C 
BRANCH   9  14
HETATM   14  O1  UNL     1      10.175   5.239  -0.748  1.00  0.00    -0.363 OA
HETATM   15  C1  UNL     1      11.113   6.205  -0.444  1.00  0.00     0.204 C 
ENDBRANCH   9  14
BRANCH  11  16
HETATM   16  C4  UNL     1      10.777   6.135  -4.674  1.00  0.00     0.198 C 
BRANCH  16  17
HETATM   17  O3  UNL     1      10.838   6.045  -6.089  1.00  0.00    -0.398 OA
ATOM     18  H3  UNL     1      11.738   6.187  -6.360  1.00  0.00     0.209 HD
ENDBRANCH  16  17
ENDBRANCH  11  16
BRANCH  12  19
HETATM   19  O4  UNL     1       8.525   3.377  -5.063  1.00  0.00    -0.354 OA
BRANCH  19  20
HETATM   20  C6  UNL     1       7.761   4.051  -5.936  1.00  0.00     0.369 C 
BRANCH  20  21
HETATM   21  O5  UNL     1       8.268   4.609  -7.059  1.00  0.00    -0.262 OA
BRANCH  21  22
HETATM   22  N1  UNL     1       7.979   5.873  -7.327  1.00  0.00    -0.309 N 
ATOM     23  H12 UNL     1       7.311   6.094  -8.066  1.00  0.00     0.184 HD
ATOM     24  H11 UNL     1       8.435   6.605  -6.782  1.00  0.00     0.184 HD
ENDBRANCH  21  22
ENDBRANCH  20  21
ENDBRANCH  19  20
ENDBRANCH  12  19
BRANCH  13  25
HETATM   25  O6  UNL     1      10.470   1.722  -3.935  1.00  0.00    -0.390 OA
ATOM     26  H6  UNL     1      10.122   1.221  -3.207  1.00  0.00     0.210 HD
ENDBRANCH  13  25
ENDBRANCH   7   8
ENDBRANCH   1   7
BRANCH   6  27
HETATM   27  O13 UNL     1      12.833   1.131  -0.711  1.00  0.00    -0.386 OA
ATOM     28  H13 UNL     1      13.511   0.485  -0.552  1.00  0.00     0.210 HD
ENDBRANCH   6  27
BRANCH   3  29
HETATM   29  C11 UNL     1      10.046   1.491   2.755  1.00  0.00     0.121 C 
BRANCH  29  30
HETATM   30  N2  UNL     1       9.841   2.806   3.123  1.00  0.00    -0.369 N 
ATOM     31  H2  UNL     1      10.660   3.415   3.113  1.00  0.00     0.164 HD
BRANCH  30  32
HETATM   32  C12 UNL     1       8.649   3.385   3.504  1.00  0.00     0.020 C 
HETATM   33  C13 UNL     1       7.846   2.600   4.531  1.00  0.00     0.094 C 
HETATM   34  C14 UNL     1       6.565   3.364   4.757  1.00  0.00     0.208 C 
HETATM   35  F1  UNL     1       6.098   3.201   6.057  1.00  0.00    -0.247 F 
HETATM   36  C15 UNL     1       6.706   4.824   4.490  1.00  0.00     0.248 C 
HETATM   37  C16 UNL     1       6.864   5.066   3.022  1.00  0.00     0.185 C 
HETATM   38  C17 UNL     1       7.829   4.020   2.444  1.00  0.00     0.194 C 
BRANCH  36  39
HETATM   39  N3  UNL     1       5.422   5.436   4.874  1.00  0.00    -0.070 N 
ATOM     40  H33 UNL     1       5.169   6.241   4.301  1.00  0.00     0.274 HD
ATOM     41  H32 UNL     1       4.613   4.860   4.643  1.00  0.00     0.274 HD
ATOM     42  H31 UNL     1       5.497   5.652   5.868  1.00  0.00     0.274 HD
ENDBRANCH  36  39
BRANCH  37  43
HETATM   43  O9  UNL     1       7.294   6.363   2.771  1.00  0.00    -0.390 OA
ATOM     44  H9  UNL     1       7.246   6.567   1.844  1.00  0.00     0.210 HD
ENDBRANCH  37  43
BRANCH  38  45
HETATM   45  O10 UNL     1       8.655   4.765   1.588  1.00  0.00    -0.387 OA
ATOM     46  H10 UNL     1       8.598   4.420   0.704  1.00  0.00     0.210 HD
ENDBRANCH  38  45
ENDBRANCH  30  32
ENDBRANCH  29  30
ENDBRANCH   3  29
BRANCH   5  47
HETATM   47  O12 UNL     1      11.897  -1.429   0.550  1.00  0.00    -0.351 OA
BRANCH  47  48
HETATM   48  C19 UNL     1      11.433  -2.287   1.513  1.00  0.00     0.155 C 
HETATM   49  C20 UNL     1      12.574  -2.567   2.486  1.00  0.00     0.038 C 
HETATM   50  C21 UNL     1      12.145  -3.510   3.566  1.00  0.00    -0.016 C 
HETATM   51  C22 UNL     1      13.285  -3.661   4.534  1.00  0.00     0.010 C 
HETATM   52  C23 UNL     1      11.802  -4.837   2.968  1.00  0.00     0.006 C 
HETATM   53  C24 UNL     1      11.864  -4.764   1.468  1.00  0.00     0.036 C 
HETATM   54  C25 UNL     1      11.072  -3.625   0.894  1.00  0.00     0.212 C 
BRANCH  54  55
HETATM   55  N4  UNL     1      11.291  -3.618  -0.544  1.00  0.00    -0.073 N 
ATOM     56  H43 UNL     1      10.469  -3.947  -1.050  1.00  0.00     0.274 HD
ATOM     57  H42 UNL     1      11.331  -2.667  -0.911  1.00  0.00     0.274 HD
ATOM     58  H41 UNL     1      12.124  -4.151  -0.795  1.00  0.00     0.274 HD
ENDBRANCH  54  55
ENDBRANCH  47  48
ENDBRANCH   5  47
TORSDOF 20
ENDMDL
