MODEL 1
REMARK VINA RESULT: -9.674410114      0.000      0.000
REMARK  21 active torsions:
REMARK  status: ('A' for Active; 'I' for Inactive)
REMARK    1  A    between atoms: C2_2  and  O1_3 
REMARK    2  A    between atoms: O1_3  and  C3_4 
REMARK    3  A    between atoms: C4_5  and  O2_6 
REMARK    4  A    between atoms: C5_8  and  C6_9 
REMARK    5  A    between atoms: C6_9  and  N1_10 
REMARK    6  A    between atoms: C7_15  and  O4_16 
REMARK    7  A    between atoms: O4_16  and  C8_17 
REMARK    8  A    between atoms: C9_19  and  C10_20 
REMARK    9  A    between atoms: C10_20  and  N2_21 
REMARK   10  A    between atoms: C11_25  and  O6_26 
REMARK   11  A    between atoms: O6_26  and  C12_27 
REMARK   12  A    between atoms: C15_31  and  O8_32 
REMARK   13  A    between atoms: C16_34  and  O9_35 
REMARK   14  A    between atoms: O9_35  and  C17_36 
REMARK   15  A    between atoms: C18_38  and  C19_39 
REMARK   16  A    between atoms: C19_39  and  N3_40 
REMARK   17  A    between atoms: C20_44  and  O11_45 
REMARK   18  A    between atoms: C21_47  and  O12_48 
REMARK   19  A    between atoms: C22_50  and  N4_51 
REMARK   20  A    between atoms: C23_55  and  O13_56 
REMARK   21  A    between atoms: C24_58  and  O14_59 
ROOT
HETATM    1  C12 UNL     1      11.552   0.737   1.774  1.00  0.00     0.292 C 
HETATM    2  O7  UNL     1      10.246   0.836   2.164  1.00  0.00    -0.351 OA
HETATM    3  C13 UNL     1       9.849   0.004   3.169  1.00  0.00     0.152 C 
HETATM    4  C14 UNL     1       9.459   0.831   4.381  1.00  0.00     0.042 C 
HETATM    5  C15 UNL     1      10.803  -1.079   3.530  1.00  0.00     0.178 C 
HETATM    6  C16 UNL     1      11.434  -1.688   2.303  1.00  0.00     0.189 C 
HETATM    7  C23 UNL     1      11.956  -0.659   1.359  1.00  0.00     0.205 C 
ENDROOT
BRANCH   1   8
HETATM    8  O6  UNL     1      11.766   1.628   0.724  1.00  0.00    -0.348 OA
BRANCH   8   9
HETATM    9  C11 UNL     1      10.689   2.481   0.512  1.00  0.00     0.189 C 
HETATM   10  C9  UNL     1      11.003   3.908   0.815  1.00  0.00     0.181 C 
HETATM   11  O5  UNL     1      11.364   4.518  -0.377  1.00  0.00    -0.349 OA
HETATM   12  C8  UNL     1      10.539   3.942  -1.335  1.00  0.00     0.294 C 
HETATM   13  C24 UNL     1      10.409   2.477  -0.987  1.00  0.00     0.205 C 
BRANCH  10  14
HETATM   14  C10 UNL     1       9.862   4.678   1.412  1.00  0.00     0.264 C 
BRANCH  14  15
HETATM   15  N2  UNL     1       9.479   3.969   2.643  1.00  0.00    -0.077 N 
ATOM     16  H23 UNL     1      10.229   3.396   3.030  1.00  0.00     0.274 HD
ATOM     17  H22 UNL     1       9.365   4.587   3.446  1.00  0.00     0.274 HD
ATOM     18  H21 UNL     1       8.638   3.436   2.420  1.00  0.00     0.274 HD
ENDBRANCH  14  15
ENDBRANCH  10  14
BRANCH  12  19
HETATM   19  O4  UNL     1      10.920   4.169  -2.621  1.00  0.00    -0.326 OA
BRANCH  19  20
HETATM   20  C7  UNL     1       9.954   4.475  -3.522  1.00  0.00     0.300 C 
HETATM   21  O3  UNL     1       9.424   3.404  -4.203  1.00  0.00    -0.349 OA
HETATM   22  C5  UNL     1       8.620   3.747  -5.276  1.00  0.00     0.181 C 
HETATM   23  C4  UNL     1       9.330   4.566  -6.309  1.00  0.00     0.180 C 
HETATM   24  C3  UNL     1      10.734   4.954  -5.847  1.00  0.00     0.191 C 
HETATM   25  C25 UNL     1      10.537   5.539  -4.462  1.00  0.00     0.256 C 
HETATM   26  F1  UNL     1      11.759   5.994  -4.006  1.00  0.00    -0.241 F 
BRANCH  22  27
HETATM   27  C6  UNL     1       7.339   4.358  -4.770  1.00  0.00     0.264 C 
BRANCH  27  28
HETATM   28  N1  UNL     1       6.246   4.197  -5.707  1.00  0.00    -0.077 N 
ATOM     29  H13 UNL     1       6.525   4.471  -6.650  1.00  0.00     0.274 HD
ATOM     30  H12 UNL     1       6.047   3.211  -5.876  1.00  0.00     0.274 HD
ATOM     31  H11 UNL     1       5.406   4.697  -5.412  1.00  0.00     0.274 HD
ENDBRANCH  27  28
ENDBRANCH  22  27
BRANCH  23  32
HETATM   32  O2  UNL     1       8.581   5.715  -6.557  1.00  0.00    -0.390 OA
ATOM     33  H2  UNL     1       7.718   5.626  -6.171  1.00  0.00     0.210 HD
ENDBRANCH  23  32
BRANCH  24  34
HETATM   34  O1  UNL     1      11.522   3.833  -5.842  1.00  0.00    -0.381 OA
BRANCH  34  35
HETATM   35  C2  UNL     1      12.090   3.508  -7.048  1.00  0.00     0.164 C 
HETATM   36  C1  UNL     1      12.849   4.622  -7.701  1.00  0.00     0.033 C 
ENDBRANCH  34  35
ENDBRANCH  24  34
ENDBRANCH  19  20
ENDBRANCH  12  19
BRANCH  13  37
HETATM   37  O14 UNL     1      11.331   1.697  -1.679  1.00  0.00    -0.388 OA
ATOM     38  H14 UNL     1      12.081   1.473  -1.140  1.00  0.00     0.210 HD
ENDBRANCH  13  37
ENDBRANCH   8   9
ENDBRANCH   1   8
BRANCH   7  39
HETATM   39  O13 UNL     1      11.548  -0.959   0.064  1.00  0.00    -0.388 OA
ATOM     40  H13 UNL     1      11.598  -1.890  -0.120  1.00  0.00     0.210 HD
ENDBRANCH   7  39
BRANCH   6  41
HETATM   41  O9  UNL     1      10.475  -2.505   1.693  1.00  0.00    -0.348 OA
BRANCH  41  42
HETATM   42  C17 UNL     1      10.893  -3.810   1.579  1.00  0.00     0.294 C 
HETATM   43  O10 UNL     1      10.922  -4.231   0.268  1.00  0.00    -0.349 OA
HETATM   44  C18 UNL     1      11.027  -5.613   0.158  1.00  0.00     0.181 C 
HETATM   45  C20 UNL     1      12.239  -6.168   0.832  1.00  0.00     0.179 C 
HETATM   46  C21 UNL     1      12.500  -5.538   2.180  1.00  0.00     0.184 C 
HETATM   47  C22 UNL     1      12.295  -4.031   2.146  1.00  0.00     0.269 C 
BRANCH  44  48
HETATM   48  C19 UNL     1      11.093  -5.938  -1.326  1.00  0.00     0.264 C 
BRANCH  48  49
HETATM   49  N3  UNL     1      10.892  -7.327  -1.592  1.00  0.00    -0.077 N 
ATOM     50  H33 UNL     1      10.727  -7.846  -0.730  1.00  0.00     0.274 HD
ATOM     51  H32 UNL     1       9.997  -7.486  -2.054  1.00  0.00     0.274 HD
ATOM     52  H31 UNL     1      11.658  -7.739  -2.126  1.00  0.00     0.274 HD
ENDBRANCH  48  49
ENDBRANCH  44  48
BRANCH  45  53
HETATM   53  O11 UNL     1      11.985  -7.536   1.076  1.00  0.00    -0.390 OA
ATOM     54  H11 UNL     1      12.272  -7.717   1.963  1.00  0.00     0.210 HD
ENDBRANCH  45  53
BRANCH  46  55
HETATM   55  O12 UNL     1      13.834  -5.770   2.508  1.00  0.00    -0.391 OA
ATOM     56  H12 UNL     1      13.879  -6.593   2.979  1.00  0.00     0.210 HD
ENDBRANCH  46  55
BRANCH  47  57
HETATM   57  N4  UNL     1      13.319  -3.469   1.305  1.00  0.00    -0.068 N 
ATOM     58  H43 UNL     1      13.262  -3.840   0.356  1.00  0.00     0.275 HD
ATOM     59  H42 UNL     1      13.133  -2.485   1.106  1.00  0.00     0.275 HD
ATOM     60  H41 UNL     1      14.253  -3.596   1.695  1.00  0.00     0.275 HD
ENDBRANCH  47  57
ENDBRANCH  41  42
ENDBRANCH   6  41
BRANCH   5  61
HETATM   61  O8  UNL     1      11.742  -0.697   4.481  1.00  0.00    -0.390 OA
ATOM     62  H8  UNL     1      12.083  -1.424   4.990  1.00  0.00     0.210 HD
ENDBRANCH   5  61
TORSDOF 21
ENDMDL
MODEL 2
REMARK VINA RESULT: -9.186183090      4.337     10.023
REMARK  21 active torsions:
REMARK  status: ('A' for Active; 'I' for Inactive)
REMARK    1  A    between atoms: C2_2  and  O1_3 
REMARK    2  A    between atoms: O1_3  and  C3_4 
REMARK    3  A    between atoms: C4_5  and  O2_6 
REMARK    4  A    between atoms: C5_8  and  C6_9 
REMARK    5  A    between atoms: C6_9  and  N1_10 
REMARK    6  A    between atoms: C7_15  and  O4_16 
REMARK    7  A    between atoms: O4_16  and  C8_17 
REMARK    8  A    between atoms: C9_19  and  C10_20 
REMARK    9  A    between atoms: C10_20  and  N2_21 
REMARK   10  A    between atoms: C11_25  and  O6_26 
REMARK   11  A    between atoms: O6_26  and  C12_27 
REMARK   12  A    between atoms: C15_31  and  O8_32 
REMARK   13  A    between atoms: C16_34  and  O9_35 
REMARK   14  A    between atoms: O9_35  and  C17_36 
REMARK   15  A    between atoms: C18_38  and  C19_39 
REMARK   16  A    between atoms: C19_39  and  N3_40 
REMARK   17  A    between atoms: C20_44  and  O11_45 
REMARK   18  A    between atoms: C21_47  and  O12_48 
REMARK   19  A    between atoms: C22_50  and  N4_51 
REMARK   20  A    between atoms: C23_55  and  O13_56 
REMARK   21  A    between atoms: C24_58  and  O14_59 
ROOT
HETATM    1  C12 UNL     1       9.922   2.635   2.743  1.00  0.00     0.292 C 
HETATM    2  O7  UNL     1       9.196   2.762   1.593  1.00  0.00    -0.351 OA
HETATM    3  C13 UNL     1       8.242   3.737   1.583  1.00  0.00     0.152 C 
HETATM    4  C14 UNL     1       8.605   4.783   0.545  1.00  0.00     0.042 C 
HETATM    5  C15 UNL     1       7.935   4.357   2.900  1.00  0.00     0.178 C 
HETATM    6  C16 UNL     1       7.892   3.325   3.998  1.00  0.00     0.189 C 
HETATM    7  C23 UNL     1       9.074   2.417   3.976  1.00  0.00     0.205 C 
ENDROOT
BRANCH   1   8
HETATM    8  O6  UNL     1      10.815   1.577   2.586  1.00  0.00    -0.348 OA
BRANCH   8   9
HETATM    9  C11 UNL     1      10.484   0.746   1.522  1.00  0.00     0.189 C 
HETATM   10  C9  UNL     1      11.421   0.872   0.366  1.00  0.00     0.181 C 
HETATM   11  O5  UNL     1      12.373  -0.129   0.490  1.00  0.00    -0.349 OA
HETATM   12  C8  UNL     1      11.678  -1.220   0.995  1.00  0.00     0.294 C 
HETATM   13  C24 UNL     1      10.683  -0.688   2.001  1.00  0.00     0.205 C 
BRANCH  10  14
HETATM   14  C10 UNL     1      10.766   0.736  -0.976  1.00  0.00     0.264 C 
BRANCH  14  15
HETATM   15  N2  UNL     1       9.434   1.349  -0.855  1.00  0.00    -0.077 N 
ATOM     16  H23 UNL     1       9.052   1.303   0.089  1.00  0.00     0.274 HD
ATOM     17  H22 UNL     1       9.448   2.366  -0.937  1.00  0.00     0.274 HD
ATOM     18  H21 UNL     1       8.843   0.896  -1.552  1.00  0.00     0.274 HD
ENDBRANCH  14  15
ENDBRANCH  10  14
BRANCH  12  19
HETATM   19  O4  UNL     1      12.465  -2.219   1.477  1.00  0.00    -0.326 OA
BRANCH  19  20
HETATM   20  C7  UNL     1      12.293  -3.463   0.965  1.00  0.00     0.300 C 
HETATM   21  O3  UNL     1      11.056  -4.023   1.180  1.00  0.00    -0.349 OA
HETATM   22  C5  UNL     1      10.972  -5.368   0.866  1.00  0.00     0.181 C 
HETATM   23  C4  UNL     1      11.936  -6.217   1.637  1.00  0.00     0.180 C 
HETATM   24  C3  UNL     1      12.886  -5.363   2.475  1.00  0.00     0.191 C 
HETATM   25  C25 UNL     1      13.436  -4.333   1.507  1.00  0.00     0.256 C 
HETATM   26  F1  UNL     1      14.374  -3.569   2.173  1.00  0.00    -0.241 F 
BRANCH  22  27
HETATM   27  C6  UNL     1      11.049  -5.542  -0.628  1.00  0.00     0.264 C 
BRANCH  27  28
HETATM   28  N1  UNL     1      10.529  -6.823  -1.061  1.00  0.00    -0.077 N 
ATOM     29  H13 UNL     1      11.037  -7.593  -0.625  1.00  0.00     0.274 HD
ATOM     30  H12 UNL     1       9.603  -6.996  -0.668  1.00  0.00     0.274 HD
ATOM     31  H11 UNL     1      10.521  -6.915  -2.077  1.00  0.00     0.274 HD
ENDBRANCH  27  28
ENDBRANCH  22  27
BRANCH  23  32
HETATM   32  O2  UNL     1      12.665  -6.991   0.737  1.00  0.00    -0.390 OA
ATOM     33  H2  UNL     1      12.729  -7.883   1.058  1.00  0.00     0.210 HD
ENDBRANCH  23  32
BRANCH  24  34
HETATM   34  O1  UNL     1      12.181  -4.799   3.506  1.00  0.00    -0.381 OA
BRANCH  34  35
HETATM   35  C2  UNL     1      12.925  -4.437   4.599  1.00  0.00     0.164 C 
HETATM   36  C1  UNL     1      12.959  -2.964   4.870  1.00  0.00     0.033 C 
ENDBRANCH  34  35
ENDBRANCH  24  34
ENDBRANCH  19  20
ENDBRANCH  12  19
BRANCH  13  37
HETATM   37  O14 UNL     1      11.185  -0.731   3.298  1.00  0.00    -0.388 OA
ATOM     38  H14 UNL     1      10.515  -0.538   3.943  1.00  0.00     0.210 HD
ENDBRANCH  13  37
ENDBRANCH   8   9
ENDBRANCH   1   8
BRANCH   7  39
HETATM   39  O13 UNL     1       8.655   1.097   4.096  1.00  0.00    -0.388 OA
ATOM     40  H13 UNL     1       8.453   0.867   4.996  1.00  0.00     0.210 HD
ENDBRANCH   7  39
BRANCH   6  41
HETATM   41  O9  UNL     1       6.694   2.612   3.865  1.00  0.00    -0.348 OA
BRANCH  41  42
HETATM   42  C17 UNL     1       5.601   3.341   4.269  1.00  0.00     0.294 C 
HETATM   43  O10 UNL     1       4.436   2.610   4.192  1.00  0.00    -0.349 OA
HETATM   44  C18 UNL     1       3.303   3.410   4.285  1.00  0.00     0.181 C 
HETATM   45  C20 UNL     1       3.247   4.209   5.546  1.00  0.00     0.179 C 
HETATM   46  C21 UNL     1       4.579   4.816   5.915  1.00  0.00     0.184 C 
HETATM   47  C22 UNL     1       5.721   3.832   5.712  1.00  0.00     0.269 C 
BRANCH  44  48
HETATM   48  C19 UNL     1       2.098   2.484   4.232  1.00  0.00     0.264 C 
BRANCH  48  49
HETATM   49  N3  UNL     1       2.362   1.206   4.816  1.00  0.00    -0.077 N 
ATOM     50  H33 UNL     1       3.324   1.148   5.150  1.00  0.00     0.274 HD
ATOM     51  H32 UNL     1       1.873   1.101   5.704  1.00  0.00     0.274 HD
ATOM     52  H31 UNL     1       2.145   0.435   4.184  1.00  0.00     0.274 HD
ENDBRANCH  48  49
ENDBRANCH  44  48
BRANCH  45  53
HETATM   53  O11 UNL     1       2.370   5.291   5.309  1.00  0.00    -0.390 OA
ATOM     54  H11 UNL     1       2.319   5.788   6.117  1.00  0.00     0.210 HD
ENDBRANCH  45  53
BRANCH  46  55
HETATM   55  O12 UNL     1       4.541   5.136   7.270  1.00  0.00    -0.391 OA
ATOM     56  H12 UNL     1       5.191   5.810   7.428  1.00  0.00     0.210 HD
ENDBRANCH  46  55
BRANCH  47  57
HETATM   57  N4  UNL     1       5.557   2.767   6.666  1.00  0.00    -0.068 N 
ATOM     58  H43 UNL     1       5.250   1.908   6.211  1.00  0.00     0.275 HD
ATOM     59  H42 UNL     1       6.459   2.449   7.022  1.00  0.00     0.275 HD
ATOM     60  H41 UNL     1       4.930   3.025   7.429  1.00  0.00     0.275 HD
ENDBRANCH  47  57
ENDBRANCH  41  42
ENDBRANCH   6  41
BRANCH   5  61
HETATM   61  O8  UNL     1       8.755   5.436   3.211  1.00  0.00    -0.390 OA
ATOM     62  H8  UNL     1       9.645   5.184   3.429  1.00  0.00     0.210 HD
ENDBRANCH   5  61
TORSDOF 21
ENDMDL
MODEL 3
REMARK VINA RESULT: -9.101486307      2.751     10.607
REMARK  21 active torsions:
REMARK  status: ('A' for Active; 'I' for Inactive)
REMARK    1  A    between atoms: C2_2  and  O1_3 
REMARK    2  A    between atoms: O1_3  and  C3_4 
REMARK    3  A    between atoms: C4_5  and  O2_6 
REMARK    4  A    between atoms: C5_8  and  C6_9 
REMARK    5  A    between atoms: C6_9  and  N1_10 
REMARK    6  A    between atoms: C7_15  and  O4_16 
REMARK    7  A    between atoms: O4_16  and  C8_17 
REMARK    8  A    between atoms: C9_19  and  C10_20 
REMARK    9  A    between atoms: C10_20  and  N2_21 
REMARK   10  A    between atoms: C11_25  and  O6_26 
REMARK   11  A    between atoms: O6_26  and  C12_27 
REMARK   12  A    between atoms: C15_31  and  O8_32 
REMARK   13  A    between atoms: C16_34  and  O9_35 
REMARK   14  A    between atoms: O9_35  and  C17_36 
REMARK   15  A    between atoms: C18_38  and  C19_39 
REMARK   16  A    between atoms: C19_39  and  N3_40 
REMARK   17  A    between atoms: C20_44  and  O11_45 
REMARK   18  A    between atoms: C21_47  and  O12_48 
REMARK   19  A    between atoms: C22_50  and  N4_51 
REMARK   20  A    between atoms: C23_55  and  O13_56 
REMARK   21  A    between atoms: C24_58  and  O14_59 
ROOT
HETATM    1  C12 UNL     1       9.275   2.364  -1.015  1.00  0.00     0.292 C 
HETATM    2  O7  UNL     1      10.355   3.200  -1.009  1.00  0.00    -0.351 OA
HETATM    3  C13 UNL     1      10.148   4.463  -1.478  1.00  0.00     0.152 C 
HETATM    4  C14 UNL     1      10.356   5.458  -0.351  1.00  0.00     0.042 C 
HETATM    5  C15 UNL     1       8.853   4.691  -2.176  1.00  0.00     0.178 C 
HETATM    6  C16 UNL     1       8.497   3.528  -3.067  1.00  0.00     0.189 C 
HETATM    7  C23 UNL     1       8.631   2.215  -2.375  1.00  0.00     0.205 C 
ENDROOT
BRANCH   1   8
HETATM    8  O6  UNL     1       9.678   1.118  -0.539  1.00  0.00    -0.348 OA
BRANCH   8   9
HETATM    9  C11 UNL     1      10.873   1.173   0.169  1.00  0.00     0.189 C 
HETATM   10  C9  UNL     1      10.698   0.937   1.633  1.00  0.00     0.181 C 
HETATM   11  O5  UNL     1      10.940  -0.407   1.871  1.00  0.00    -0.349 OA
HETATM   12  C8  UNL     1      11.972  -0.742   1.004  1.00  0.00     0.294 C 
HETATM   13  C24 UNL     1      11.717  -0.009  -0.294  1.00  0.00     0.205 C 
BRANCH  10  14
HETATM   14  C10 UNL     1      11.617   1.743   2.502  1.00  0.00     0.264 C 
BRANCH  14  15
HETATM   15  N2  UNL     1      12.010   2.922   1.714  1.00  0.00    -0.077 N 
ATOM     16  H23 UNL     1      12.966   3.228   1.895  1.00  0.00     0.274 HD
ATOM     17  H22 UNL     1      12.126   2.723   0.720  1.00  0.00     0.274 HD
ATOM     18  H21 UNL     1      11.312   3.642   1.903  1.00  0.00     0.274 HD
ENDBRANCH  14  15
ENDBRANCH  10  14
BRANCH  12  19
HETATM   19  O4  UNL     1      12.172  -2.078   0.850  1.00  0.00    -0.326 OA
BRANCH  19  20
HETATM   20  C7  UNL     1      12.128  -2.857   1.960  1.00  0.00     0.300 C 
HETATM   21  O3  UNL     1      13.275  -3.566   2.226  1.00  0.00    -0.349 OA
HETATM   22  C5  UNL     1      13.140  -4.527   3.212  1.00  0.00     0.181 C 
HETATM   23  C4  UNL     1      12.097  -5.555   2.897  1.00  0.00     0.180 C 
HETATM   24  C3  UNL     1      11.327  -5.200   1.626  1.00  0.00     0.191 C 
HETATM   25  C25 UNL     1      10.895  -3.760   1.826  1.00  0.00     0.256 C 
HETATM   26  F1  UNL     1      10.116  -3.387   0.748  1.00  0.00    -0.241 F 
BRANCH  22  27
HETATM   27  C6  UNL     1      12.966  -3.856   4.550  1.00  0.00     0.264 C 
BRANCH  27  28
HETATM   28  N1  UNL     1      13.414  -4.689   5.647  1.00  0.00    -0.077 N 
ATOM     29  H13 UNL     1      12.657  -4.868   6.307  1.00  0.00     0.274 HD
ATOM     30  H12 UNL     1      13.587  -5.645   5.335  1.00  0.00     0.274 HD
ATOM     31  H11 UNL     1      14.231  -4.302   6.119  1.00  0.00     0.274 HD
ENDBRANCH  27  28
ENDBRANCH  22  27
BRANCH  23  32
HETATM   32  O2  UNL     1      11.216  -5.640   3.974  1.00  0.00    -0.390 OA
ATOM     33  H2  UNL     1      11.621  -6.125   4.683  1.00  0.00     0.210 HD
ENDBRANCH  23  32
BRANCH  24  34
HETATM   34  O1  UNL     1      12.159  -5.359   0.548  1.00  0.00    -0.381 OA
BRANCH  34  35
HETATM   35  C2  UNL     1      11.941  -6.486  -0.202  1.00  0.00     0.164 C 
HETATM   36  C1  UNL     1      10.824  -6.370  -1.193  1.00  0.00     0.033 C 
ENDBRANCH  34  35
ENDBRANCH  24  34
ENDBRANCH  19  20
ENDBRANCH  12  19
BRANCH  13  37
HETATM   37  O14 UNL     1      11.033  -0.802  -1.210  1.00  0.00    -0.388 OA
ATOM     38  H14 UNL     1      10.179  -0.442  -1.420  1.00  0.00     0.210 HD
ENDBRANCH  13  37
ENDBRANCH   8   9
ENDBRANCH   1   8
BRANCH   7  39
HETATM   39  O13 UNL     1       9.323   1.323  -3.186  1.00  0.00    -0.388 OA
ATOM     40  H13 UNL     1      10.129   1.697  -3.521  1.00  0.00     0.210 HD
ENDBRANCH   7  39
BRANCH   6  41
HETATM   41  O9  UNL     1       9.314   3.595  -4.202  1.00  0.00    -0.348 OA
BRANCH  41  42
HETATM   42  C17 UNL     1       9.281   4.833  -4.800  1.00  0.00     0.294 C 
HETATM   43  O10 UNL     1      10.418   5.080  -5.537  1.00  0.00    -0.349 OA
HETATM   44  C18 UNL     1      10.547   6.422  -5.877  1.00  0.00     0.181 C 
HETATM   45  C20 UNL     1       9.386   6.947  -6.656  1.00  0.00     0.179 C 
HETATM   46  C21 UNL     1       8.057   6.473  -6.119  1.00  0.00     0.184 C 
HETATM   47  C22 UNL     1       8.094   4.998  -5.748  1.00  0.00     0.269 C 
BRANCH  44  48
HETATM   48  C19 UNL     1      11.807   6.550  -6.719  1.00  0.00     0.264 C 
BRANCH  48  49
HETATM   49  N3  UNL     1      11.530   6.939  -8.065  1.00  0.00    -0.077 N 
ATOM     50  H33 UNL     1      11.545   7.953  -8.164  1.00  0.00     0.274 HD
ATOM     51  H32 UNL     1      12.306   6.701  -8.683  1.00  0.00     0.274 HD
ATOM     52  H31 UNL     1      10.653   6.549  -8.413  1.00  0.00     0.274 HD
ENDBRANCH  48  49
ENDBRANCH  44  48
BRANCH  45  53
HETATM   53  O11 UNL     1       9.394   8.353  -6.510  1.00  0.00    -0.390 OA
ATOM     54  H11 UNL     1       8.491   8.642  -6.567  1.00  0.00     0.210 HD
ENDBRANCH  45  53
BRANCH  46  55
HETATM   55  O12 UNL     1       7.110   6.625  -7.130  1.00  0.00    -0.391 OA
ATOM     56  H12 UNL     1       6.503   7.304  -6.860  1.00  0.00     0.210 HD
ENDBRANCH  46  55
BRANCH  47  57
HETATM   57  N4  UNL     1       8.257   4.245  -6.964  1.00  0.00    -0.068 N 
ATOM     58  H43 UNL     1       8.579   4.841  -7.727  1.00  0.00     0.275 HD
ATOM     59  H42 UNL     1       9.058   3.614  -6.903  1.00  0.00     0.275 HD
ATOM     60  H41 UNL     1       7.409   3.739  -7.223  1.00  0.00     0.275 HD
ENDBRANCH  47  57
ENDBRANCH  41  42
ENDBRANCH   6  41
BRANCH   5  61
HETATM   61  O8  UNL     1       7.817   5.048  -1.321  1.00  0.00    -0.390 OA
ATOM     62  H8  UNL     1       7.000   4.600  -1.508  1.00  0.00     0.210 HD
ENDBRANCH   5  61
TORSDOF 21
ENDMDL
MODEL 4
REMARK VINA RESULT: -9.095799641      1.177      1.459
REMARK  21 active torsions:
REMARK  status: ('A' for Active; 'I' for Inactive)
REMARK    1  A    between atoms: C2_2  and  O1_3 
REMARK    2  A    between atoms: O1_3  and  C3_4 
REMARK    3  A    between atoms: C4_5  and  O2_6 
REMARK    4  A    between atoms: C5_8  and  C6_9 
REMARK    5  A    between atoms: C6_9  and  N1_10 
REMARK    6  A    between atoms: C7_15  and  O4_16 
REMARK    7  A    between atoms: O4_16  and  C8_17 
REMARK    8  A    between atoms: C9_19  and  C10_20 
REMARK    9  A    between atoms: C10_20  and  N2_21 
REMARK   10  A    between atoms: C11_25  and  O6_26 
REMARK   11  A    between atoms: O6_26  and  C12_27 
REMARK   12  A    between atoms: C15_31  and  O8_32 
REMARK   13  A    between atoms: C16_34  and  O9_35 
REMARK   14  A    between atoms: O9_35  and  C17_36 
REMARK   15  A    between atoms: C18_38  and  C19_39 
REMARK   16  A    between atoms: C19_39  and  N3_40 
REMARK   17  A    between atoms: C20_44  and  O11_45 
REMARK   18  A    between atoms: C21_47  and  O12_48 
REMARK   19  A    between atoms: C22_50  and  N4_51 
REMARK   20  A    between atoms: C23_55  and  O13_56 
REMARK   21  A    between atoms: C24_58  and  O14_59 
ROOT
HETATM    1  C12 UNL     1      11.560   1.200   1.785  1.00  0.00     0.292 C 
HETATM    2  O7  UNL     1      10.220   1.178   2.051  1.00  0.00    -0.351 OA
HETATM    3  C13 UNL     1       9.787   0.211   2.909  1.00  0.00     0.152 C 
HETATM    4  C14 UNL     1       9.231   0.864   4.161  1.00  0.00     0.042 C 
HETATM    5  C15 UNL     1      10.775  -0.852   3.239  1.00  0.00     0.178 C 
HETATM    6  C16 UNL     1      11.558  -1.274   2.021  1.00  0.00     0.189 C 
HETATM    7  C23 UNL     1      12.095  -0.112   1.257  1.00  0.00     0.205 C 
ENDROOT
BRANCH   1   8
HETATM    8  O6  UNL     1      11.811   2.221   0.870  1.00  0.00    -0.348 OA
BRANCH   8   9
HETATM    9  C11 UNL     1      10.739   3.094   0.730  1.00  0.00     0.189 C 
HETATM   10  C9  UNL     1      11.053   4.484   1.175  1.00  0.00     0.181 C 
HETATM   11  O5  UNL     1      11.431   5.206   0.054  1.00  0.00    -0.349 OA
HETATM   12  C8  UNL     1      10.617   4.731  -0.966  1.00  0.00     0.294 C 
HETATM   13  C24 UNL     1      10.479   3.238  -0.766  1.00  0.00     0.205 C 
BRANCH  10  14
HETATM   14  C10 UNL     1       9.907   5.195   1.831  1.00  0.00     0.264 C 
BRANCH  14  15
HETATM   15  N2  UNL     1       9.210   4.195   2.655  1.00  0.00    -0.077 N 
ATOM     16  H23 UNL     1       8.474   4.593   3.237  1.00  0.00     0.274 HD
ATOM     17  H22 UNL     1       8.618   3.566   2.112  1.00  0.00     0.274 HD
ATOM     18  H21 UNL     1       9.930   3.709   3.190  1.00  0.00     0.274 HD
ENDBRANCH  14  15
ENDBRANCH  10  14
BRANCH  12  19
HETATM   19  O4  UNL     1      11.015   5.082  -2.219  1.00  0.00    -0.326 OA
BRANCH  19  20
HETATM   20  C7  UNL     1      10.172   4.819  -3.248  1.00  0.00     0.300 C 
HETATM   21  O3  UNL     1      10.722   4.122  -4.297  1.00  0.00    -0.349 OA
HETATM   22  C5  UNL     1       9.929   4.069  -5.430  1.00  0.00     0.181 C 
HETATM   23  C4  UNL     1       9.592   5.421  -5.980  1.00  0.00     0.180 C 
HETATM   24  C3  UNL     1      10.083   6.537  -5.060  1.00  0.00     0.191 C 
HETATM   25  C25 UNL     1       9.566   6.160  -3.685  1.00  0.00     0.256 C 
HETATM   26  F1  UNL     1       9.900   7.170  -2.804  1.00  0.00    -0.241 F 
BRANCH  22  27
HETATM   27  C6  UNL     1       8.734   3.189  -5.168  1.00  0.00     0.264 C 
BRANCH  27  28
HETATM   28  N1  UNL     1       8.231   2.569  -6.376  1.00  0.00    -0.077 N 
ATOM     29  H13 UNL     1       7.429   3.080  -6.746  1.00  0.00     0.274 HD
ATOM     30  H12 UNL     1       8.879   2.699  -7.154  1.00  0.00     0.274 HD
ATOM     31  H11 UNL     1       8.010   1.582  -6.242  1.00  0.00     0.274 HD
ENDBRANCH  27  28
ENDBRANCH  22  27
BRANCH  23  32
HETATM   32  O2  UNL     1       8.209   5.507  -6.131  1.00  0.00    -0.390 OA
ATOM     33  H2  UNL     1       7.781   5.249  -5.323  1.00  0.00     0.210 HD
ENDBRANCH  23  32
BRANCH  24  34
HETATM   34  O1  UNL     1      11.451   6.586  -5.117  1.00  0.00    -0.381 OA
BRANCH  34  35
HETATM   35  C2  UNL     1      11.987   7.828  -5.347  1.00  0.00     0.164 C 
HETATM   36  C1  UNL     1      12.713   8.420  -4.179  1.00  0.00     0.033 C 
ENDBRANCH  34  35
ENDBRANCH  24  34
ENDBRANCH  19  20
ENDBRANCH  12  19
BRANCH  13  37
HETATM   37  O14 UNL     1      11.407   2.527  -1.520  1.00  0.00    -0.388 OA
ATOM     38  H14 UNL     1      11.657   2.996  -2.308  1.00  0.00     0.210 HD
ENDBRANCH  13  37
ENDBRANCH   8   9
ENDBRANCH   1   8
BRANCH   7  39
HETATM   39  O13 UNL     1      11.831  -0.278  -0.098  1.00  0.00    -0.388 OA
ATOM     40  H13 UNL     1      11.054   0.196  -0.371  1.00  0.00     0.210 HD
ENDBRANCH   7  39
BRANCH   6  41
HETATM   41  O9  UNL     1      10.718  -2.065   1.229  1.00  0.00    -0.348 OA
BRANCH  41  42
HETATM   42  C17 UNL     1      11.043  -3.400   1.289  1.00  0.00     0.294 C 
HETATM   43  O10 UNL     1      11.104  -3.973   0.039  1.00  0.00    -0.349 OA
HETATM   44  C18 UNL     1      11.112  -5.363   0.094  1.00  0.00     0.181 C 
HETATM   45  C20 UNL     1      12.245  -5.915   0.895  1.00  0.00     0.179 C 
HETATM   46  C21 UNL     1      12.486  -5.150   2.174  1.00  0.00     0.184 C 
HETATM   47  C22 UNL     1      12.396  -3.647   1.956  1.00  0.00     0.269 C 
BRANCH  44  48
HETATM   48  C19 UNL     1      11.225  -5.865  -1.336  1.00  0.00     0.264 C 
BRANCH  48  49
HETATM   49  N3  UNL     1      10.840  -7.235  -1.469  1.00  0.00    -0.077 N 
ATOM     50  H33 UNL     1      10.953  -7.556  -2.430  1.00  0.00     0.274 HD
ATOM     51  H32 UNL     1      11.511  -7.851  -1.010  1.00  0.00     0.274 HD
ATOM     52  H31 UNL     1       9.892  -7.409  -1.133  1.00  0.00     0.274 HD
ENDBRANCH  48  49
ENDBRANCH  44  48
BRANCH  45  53
HETATM   53  O11 UNL     1      11.879  -7.224   1.279  1.00  0.00    -0.390 OA
ATOM     54  H11 UNL     1      12.632  -7.605   1.715  1.00  0.00     0.210 HD
ENDBRANCH  45  53
BRANCH  46  55
HETATM   55  O12 UNL     1      13.782  -5.432   2.601  1.00  0.00    -0.391 OA
ATOM     56  H12 UNL     1      14.029  -6.276   2.244  1.00  0.00     0.210 HD
ENDBRANCH  46  55
BRANCH  47  57
HETATM   57  N4  UNL     1      13.498  -3.259   1.116  1.00  0.00    -0.068 N 
ATOM     58  H43 UNL     1      13.956  -4.074   0.709  1.00  0.00     0.275 HD
ATOM     59  H42 UNL     1      13.169  -2.813   0.259  1.00  0.00     0.275 HD
ATOM     60  H41 UNL     1      14.168  -2.665   1.606  1.00  0.00     0.275 HD
ENDBRANCH  47  57
ENDBRANCH  41  42
ENDBRANCH   6  41
BRANCH   5  61
HETATM   61  O8  UNL     1      11.592  -0.534   4.318  1.00  0.00    -0.390 OA
ATOM     62  H8  UNL     1      12.406  -0.113   4.066  1.00  0.00     0.210 HD
ENDBRANCH   5  61
TORSDOF 21
ENDMDL
MODEL 5
REMARK VINA RESULT: -9.047028032      1.644      2.275
REMARK  21 active torsions:
REMARK  status: ('A' for Active; 'I' for Inactive)
REMARK    1  A    between atoms: C2_2  and  O1_3 
REMARK    2  A    between atoms: O1_3  and  C3_4 
REMARK    3  A    between atoms: C4_5  and  O2_6 
REMARK    4  A    between atoms: C5_8  and  C6_9 
REMARK    5  A    between atoms: C6_9  and  N1_10 
REMARK    6  A    between atoms: C7_15  and  O4_16 
REMARK    7  A    between atoms: O4_16  and  C8_17 
REMARK    8  A    between atoms: C9_19  and  C10_20 
REMARK    9  A    between atoms: C10_20  and  N2_21 
REMARK   10  A    between atoms: C11_25  and  O6_26 
REMARK   11  A    between atoms: O6_26  and  C12_27 
REMARK   12  A    between atoms: C15_31  and  O8_32 
REMARK   13  A    between atoms: C16_34  and  O9_35 
REMARK   14  A    between atoms: O9_35  and  C17_36 
REMARK   15  A    between atoms: C18_38  and  C19_39 
REMARK   16  A    between atoms: C19_39  and  N3_40 
REMARK   17  A    between atoms: C20_44  and  O11_45 
REMARK   18  A    between atoms: C21_47  and  O12_48 
REMARK   19  A    between atoms: C22_50  and  N4_51 
REMARK   20  A    between atoms: C23_55  and  O13_56 
REMARK   21  A    between atoms: C24_58  and  O14_59 
ROOT
HETATM    1  C12 UNL     1      11.373   1.625   2.272  1.00  0.00     0.292 C 
HETATM    2  O7  UNL     1      10.008   1.656   2.251  1.00  0.00    -0.351 OA
HETATM    3  C13 UNL     1       9.367   0.751   3.044  1.00  0.00     0.152 C 
HETATM    4  C14 UNL     1       8.588   1.487   4.119  1.00  0.00     0.042 C 
HETATM    5  C15 UNL     1      10.221  -0.321   3.624  1.00  0.00     0.178 C 
HETATM    6  C16 UNL     1      11.223  -0.831   2.619  1.00  0.00     0.189 C 
HETATM    7  C23 UNL     1      11.954   0.271   1.932  1.00  0.00     0.205 C 
ENDROOT
BRANCH   1   8
HETATM    8  O6  UNL     1      11.851   2.586   1.384  1.00  0.00    -0.348 OA
BRANCH   8   9
HETATM    9  C11 UNL     1      10.837   3.361   0.833  1.00  0.00     0.189 C 
HETATM   10  C9  UNL     1      11.011   4.821   1.087  1.00  0.00     0.181 C 
HETATM   11  O5  UNL     1      11.648   5.364  -0.018  1.00  0.00    -0.349 OA
HETATM   12  C8  UNL     1      11.122   4.677  -1.105  1.00  0.00     0.294 C 
HETATM   13  C24 UNL     1      10.958   3.235  -0.682  1.00  0.00     0.205 C 
BRANCH  10  14
HETATM   14  C10 UNL     1       9.727   5.567   1.305  1.00  0.00     0.264 C 
BRANCH  14  15
HETATM   15  N2  UNL     1       8.994   4.838   2.351  1.00  0.00    -0.077 N 
ATOM     16  H23 UNL     1       9.076   3.825   2.272  1.00  0.00     0.274 HD
ATOM     17  H22 UNL     1       9.415   4.927   3.276  1.00  0.00     0.274 HD
ATOM     18  H21 UNL     1       8.030   5.170   2.313  1.00  0.00     0.274 HD
ENDBRANCH  14  15
ENDBRANCH  10  14
BRANCH  12  19
HETATM   19  O4  UNL     1      11.817   4.834  -2.264  1.00  0.00    -0.326 OA
BRANCH  19  20
HETATM   20  C7  UNL     1      11.201   5.473  -3.290  1.00  0.00     0.300 C 
HETATM   21  O3  UNL     1      10.050   6.146  -2.957  1.00  0.00    -0.349 OA
HETATM   22  C5  UNL     1       9.310   6.588  -4.039  1.00  0.00     0.181 C 
HETATM   23  C4  UNL     1       8.878   5.483  -4.952  1.00  0.00     0.180 C 
HETATM   24  C3  UNL     1       9.495   4.146  -4.543  1.00  0.00     0.191 C 
HETATM   25  C25 UNL     1      10.977   4.433  -4.396  1.00  0.00     0.256 C 
HETATM   26  F1  UNL     1      11.622   3.247  -4.106  1.00  0.00    -0.241 F 
BRANCH  22  27
HETATM   27  C6  UNL     1      10.045   7.710  -4.726  1.00  0.00     0.264 C 
BRANCH  27  28
HETATM   28  N1  UNL     1       9.143   8.680  -5.315  1.00  0.00    -0.077 N 
ATOM     29  H13 UNL     1       9.026   9.490  -4.706  1.00  0.00     0.274 HD
ATOM     30  H12 UNL     1       9.571   9.141  -6.118  1.00  0.00     0.274 HD
ATOM     31  H11 UNL     1       8.242   8.271  -5.562  1.00  0.00     0.274 HD
ENDBRANCH  27  28
ENDBRANCH  22  27
BRANCH  23  32
HETATM   32  O2  UNL     1       9.266   5.802  -6.252  1.00  0.00    -0.390 OA
ATOM     33  H2  UNL     1       9.580   5.023  -6.695  1.00  0.00     0.210 HD
ENDBRANCH  23  32
BRANCH  24  34
HETATM   34  O1  UNL     1       8.916   3.734  -3.371  1.00  0.00    -0.381 OA
BRANCH  34  35
HETATM   35  C2  UNL     1       8.463   2.439  -3.362  1.00  0.00     0.164 C 
HETATM   36  C1  UNL     1       7.727   2.044  -2.119  1.00  0.00     0.033 C 
ENDBRANCH  34  35
ENDBRANCH  24  34
ENDBRANCH  19  20
ENDBRANCH  12  19
BRANCH  13  37
HETATM   37  O14 UNL     1      12.055   2.460  -1.047  1.00  0.00    -0.388 OA
ATOM     38  H14 UNL     1      12.105   1.658  -0.542  1.00  0.00     0.210 HD
ENDBRANCH  13  37
ENDBRANCH   8   9
ENDBRANCH   1   8
BRANCH   7  39
HETATM   39  O13 UNL     1      11.972   0.040   0.561  1.00  0.00    -0.388 OA
ATOM     40  H13 UNL     1      11.909  -0.886   0.354  1.00  0.00     0.210 HD
ENDBRANCH   7  39
BRANCH   6  41
HETATM   41  O9  UNL     1      10.536  -1.640   1.706  1.00  0.00    -0.348 OA
BRANCH  41  42
HETATM   42  C17 UNL     1      10.936  -2.954   1.763  1.00  0.00     0.294 C 
HETATM   43  O10 UNL     1      10.862  -3.570   0.533  1.00  0.00    -0.349 OA
HETATM   44  C18 UNL     1      10.951  -4.954   0.629  1.00  0.00     0.181 C 
HETATM   45  C20 UNL     1      12.207  -5.421   1.288  1.00  0.00     0.179 C 
HETATM   46  C21 UNL     1      12.574  -4.598   2.499  1.00  0.00     0.184 C 
HETATM   47  C22 UNL     1      12.376  -3.111   2.251  1.00  0.00     0.269 C 
BRANCH  44  48
HETATM   48  C19 UNL     1      10.901  -5.503  -0.788  1.00  0.00     0.264 C 
BRANCH  48  49
HETATM   49  N3  UNL     1      11.252  -4.524  -1.768  1.00  0.00    -0.077 N 
ATOM     50  H33 UNL     1      11.586  -3.667  -1.327  1.00  0.00     0.274 HD
ATOM     51  H32 UNL     1      12.099  -4.792  -2.268  1.00  0.00     0.274 HD
ATOM     52  H31 UNL     1      10.489  -4.328  -2.417  1.00  0.00     0.274 HD
ENDBRANCH  48  49
ENDBRANCH  44  48
BRANCH  45  53
HETATM   53  O11 UNL     1      11.965  -6.731   1.756  1.00  0.00    -0.390 OA
ATOM     54  H11 UNL     1      11.926  -6.683   2.704  1.00  0.00     0.210 HD
ENDBRANCH  45  53
BRANCH  46  55
HETATM   55  O12 UNL     1      13.928  -4.801   2.758  1.00  0.00    -0.391 OA
ATOM     56  H12 UNL     1      14.002  -5.231   3.602  1.00  0.00     0.210 HD
ENDBRANCH  46  55
BRANCH  47  57
HETATM   57  N4  UNL     1      13.336  -2.701   1.259  1.00  0.00    -0.068 N 
ATOM     58  H43 UNL     1      13.251  -3.260   0.410  1.00  0.00     0.275 HD
ATOM     59  H42 UNL     1      13.101  -1.785   0.875  1.00  0.00     0.275 HD
ATOM     60  H41 UNL     1      14.292  -2.716   1.616  1.00  0.00     0.275 HD
ENDBRANCH  47  57
ENDBRANCH  41  42
ENDBRANCH   6  41
BRANCH   5  61
HETATM   61  O8  UNL     1      10.807   0.031   4.834  1.00  0.00    -0.390 OA
ATOM     62  H8  UNL     1      11.629   0.497   4.736  1.00  0.00     0.210 HD
ENDBRANCH   5  61
TORSDOF 21
ENDMDL
