MODEL 1
REMARK VINA RESULT: -8.407501137      0.000      0.000
REMARK  19 active torsions:
REMARK  status: ('A' for Active; 'I' for Inactive)
REMARK    1  A    between atoms: C2_2  and  N1_3 
REMARK    2  A    between atoms: C4_8  and  N2_9 
REMARK       I    between atoms: N2_9  and  C5_11 
REMARK    3  A    between atoms: C6_15  and  O3_16 
REMARK    4  A    between atoms: O3_16  and  C7_17 
REMARK    5  A    between atoms: C8_18  and  C9_19 
REMARK    6  A    between atoms: C9_19  and  O4_20 
REMARK    7  A    between atoms: O4_20  and  C10_21 
REMARK    8  A    between atoms: C11_23  and  C12_24 
REMARK    9  A    between atoms: C12_24  and  N4_25 
REMARK   10  A    between atoms: C13_29  and  O6_30 
REMARK   11  A    between atoms: C15_33  and  N5_34 
REMARK   12  A    between atoms: C18_40  and  N6_41 
REMARK   13  A    between atoms: C19_45  and  O7_46 
REMARK   14  A    between atoms: O7_46  and  C20_47 
REMARK   15  A    between atoms: C21_49  and  C22_50 
REMARK   16  A    between atoms: C22_50  and  O9_51 
REMARK   17  A    between atoms: C23_54  and  O11_55 
REMARK   18  A    between atoms: C24_57  and  C25_58 
REMARK   19  A    between atoms: C25_58  and  O12_59 
ROOT
HETATM    1  C7  UNL     1       9.838   0.205   2.163  1.00  0.00     0.162 C 
HETATM    2  C8  UNL     1       8.885   0.806   3.177  1.00  0.00     0.041 C 
HETATM    3  C16 UNL     1       9.736   1.370   4.279  1.00  0.00     0.011 C 
HETATM    4  C17 UNL     1      10.563   2.493   3.717  1.00  0.00     0.036 C 
HETATM    5  C18 UNL     1      11.574   1.832   2.782  1.00  0.00     0.215 C 
HETATM    6  C19 UNL     1      10.877   1.148   1.654  1.00  0.00     0.184 C 
ENDROOT
BRANCH   2   7
HETATM    7  C9  UNL     1       7.904   1.745   2.594  1.00  0.00     0.178 C 
BRANCH   7   8
HETATM    8  O4  UNL     1       6.993   2.232   3.479  1.00  0.00    -0.359 OA
BRANCH   8   9
HETATM    9  C10 UNL     1       6.933   3.582   3.662  1.00  0.00     0.290 C 
HETATM   10  O5  UNL     1       5.684   4.156   3.406  1.00  0.00    -0.350 OA
HETATM   11  C11 UNL     1       4.700   3.677   4.256  1.00  0.00     0.178 C 
HETATM   12  C13 UNL     1       4.958   4.319   5.616  1.00  0.00     0.151 C 
HETATM   13  C14 UNL     1       6.295   3.739   6.089  1.00  0.00     0.072 C 
HETATM   14  C15 UNL     1       7.331   4.022   5.055  1.00  0.00     0.240 C 
BRANCH  11  15
HETATM   15  C12 UNL     1       3.331   3.975   3.740  1.00  0.00     0.264 C 
BRANCH  15  16
HETATM   16  N4  UNL     1       2.344   3.005   4.107  1.00  0.00    -0.077 N 
ATOM     17  H43 UNL     1       2.789   2.149   4.438  1.00  0.00     0.274 HD
ATOM     18  H42 UNL     1       1.862   3.291   4.959  1.00  0.00     0.274 HD
ATOM     19  H41 UNL     1       1.671   2.796   3.370  1.00  0.00     0.274 HD
ENDBRANCH  15  16
ENDBRANCH  11  15
BRANCH  12  20
HETATM   20  O6  UNL     1       3.943   4.106   6.512  1.00  0.00    -0.393 OA
ATOM     21  H6  UNL     1       4.190   3.529   7.225  1.00  0.00     0.210 HD
ENDBRANCH  12  20
BRANCH  14  22
HETATM   22  N5  UNL     1       7.488   5.484   4.982  1.00  0.00    -0.070 N 
ATOM     23  H53 UNL     1       8.115   5.791   4.238  1.00  0.00     0.274 HD
ATOM     24  H52 UNL     1       6.655   5.968   4.647  1.00  0.00     0.274 HD
ATOM     25  H51 UNL     1       7.784   5.778   5.913  1.00  0.00     0.274 HD
ENDBRANCH  14  22
ENDBRANCH   8   9
ENDBRANCH   7   8
ENDBRANCH   2   7
BRANCH   1  26
HETATM   26  O3  UNL     1      10.508  -0.809   2.850  1.00  0.00    -0.350 OA
BRANCH  26  27
HETATM   27  C6  UNL     1      11.236  -1.631   2.036  1.00  0.00     0.298 C 
HETATM   28  C2  UNL     1      12.346  -2.246   2.860  1.00  0.00     0.173 C 
HETATM   29  C1  UNL     1      12.067  -2.173   4.348  1.00  0.00     0.051 C 
HETATM   30  C3  UNL     1      12.324  -3.700   2.383  1.00  0.00     0.097 C 
HETATM   31  C4  UNL     1      11.518  -3.553   1.110  1.00  0.00     0.230 C 
HETATM   32  O2  UNL     1      10.496  -2.702   1.528  1.00  0.00    -0.334 OA
BRANCH  28  33
HETATM   33  N1  UNL     1      13.644  -1.702   2.525  1.00  0.00    -0.066 N 
ATOM     34  H13 UNL     1      13.868  -0.895   3.107  1.00  0.00     0.275 HD
ATOM     35  H12 UNL     1      14.394  -2.327   2.820  1.00  0.00     0.275 HD
ATOM     36  H11 UNL     1      13.719  -1.475   1.534  1.00  0.00     0.275 HD
ENDBRANCH  28  33
BRANCH  31  37
HETATM   37  N2  UNL     1      11.065  -4.787   0.570  1.00  0.00    -0.319 N 
HETATM   38  C5  UNL     1      11.010  -4.952  -0.836  1.00  0.00     0.330 C 
HETATM   39  N3  UNL     1      10.561  -6.178  -1.446  1.00  0.00    -0.040 NA
HETATM   40  O1  UNL     1      11.349  -4.038  -1.605  1.00  0.00    -0.251 OA
ATOM     41  H2  UNL     1      10.783  -5.547   1.189  1.00  0.00     0.166 HD
ENDBRANCH  31  37
ENDBRANCH  26  27
ENDBRANCH   1  26
BRANCH   6  42
HETATM   42  O7  UNL     1      10.408   2.006   0.669  1.00  0.00    -0.351 OA
BRANCH  42  43
HETATM   43  C20 UNL     1       9.972   1.341  -0.458  1.00  0.00     0.274 C 
HETATM   44  O8  UNL     1       9.202   2.243  -1.192  1.00  0.00    -0.329 OA
HETATM   45  C21 UNL     1       8.686   1.656  -2.346  1.00  0.00     0.289 C 
HETATM   46  O10 UNL     1       9.065   0.332  -2.407  1.00  0.00    -0.329 OA
HETATM   47  C23 UNL     1      10.465   0.298  -2.596  1.00  0.00     0.270 C 
HETATM   48  C24 UNL     1      11.081   0.840  -1.344  1.00  0.00     0.120 C 
BRANCH  45  49
HETATM   49  C22 UNL     1       7.172   1.697  -2.360  1.00  0.00     0.225 C 
BRANCH  49  50
HETATM   50  O9  UNL     1       6.695   2.933  -2.773  1.00  0.00    -0.396 OA
ATOM     51  H9  UNL     1       6.439   2.923  -3.687  1.00  0.00     0.209 HD
ENDBRANCH  49  50
ENDBRANCH  45  49
BRANCH  47  52
HETATM   52  O11 UNL     1      10.855   0.922  -3.753  1.00  0.00    -0.371 OA
ATOM     53  H11 UNL     1      10.552   0.468  -4.532  1.00  0.00     0.212 HD
ENDBRANCH  47  52
BRANCH  48  54
HETATM   54  C25 UNL     1      12.092   1.940  -1.608  1.00  0.00     0.178 C 
BRANCH  54  55
HETATM   55  O12 UNL     1      13.154   1.766  -0.716  1.00  0.00    -0.400 OA
ATOM     56  H12 UNL     1      13.078   2.430  -0.041  1.00  0.00     0.209 HD
ENDBRANCH  54  55
ENDBRANCH  48  54
ENDBRANCH  42  43
ENDBRANCH   6  42
BRANCH   5  57
HETATM   57  N6  UNL     1      12.626   2.713   2.408  1.00  0.00    -0.072 N 
ATOM     58  H63 UNL     1      12.539   3.612   2.882  1.00  0.00     0.274 HD
ATOM     59  H62 UNL     1      13.517   2.407   2.798  1.00  0.00     0.274 HD
ATOM     60  H61 UNL     1      12.690   2.837   1.397  1.00  0.00     0.274 HD
ENDBRANCH   5  57
TORSDOF 19
ENDMDL
MODEL 2
REMARK VINA RESULT: -8.089558113      4.207      7.914
REMARK  19 active torsions:
REMARK  status: ('A' for Active; 'I' for Inactive)
REMARK    1  A    between atoms: C2_2  and  N1_3 
REMARK    2  A    between atoms: C4_8  and  N2_9 
REMARK       I    between atoms: N2_9  and  C5_11 
REMARK    3  A    between atoms: C6_15  and  O3_16 
REMARK    4  A    between atoms: O3_16  and  C7_17 
REMARK    5  A    between atoms: C8_18  and  C9_19 
REMARK    6  A    between atoms: C9_19  and  O4_20 
REMARK    7  A    between atoms: O4_20  and  C10_21 
REMARK    8  A    between atoms: C11_23  and  C12_24 
REMARK    9  A    between atoms: C12_24  and  N4_25 
REMARK   10  A    between atoms: C13_29  and  O6_30 
REMARK   11  A    between atoms: C15_33  and  N5_34 
REMARK   12  A    between atoms: C18_40  and  N6_41 
REMARK   13  A    between atoms: C19_45  and  O7_46 
REMARK   14  A    between atoms: O7_46  and  C20_47 
REMARK   15  A    between atoms: C21_49  and  C22_50 
REMARK   16  A    between atoms: C22_50  and  O9_51 
REMARK   17  A    between atoms: C23_54  and  O11_55 
REMARK   18  A    between atoms: C24_57  and  C25_58 
REMARK   19  A    between atoms: C25_58  and  O12_59 
ROOT
HETATM    1  C7  UNL     1       9.500   3.171  -2.234  1.00  0.00     0.162 C 
HETATM    2  C8  UNL     1       8.846   1.980  -1.563  1.00  0.00     0.041 C 
HETATM    3  C16 UNL     1       9.711   0.790  -1.871  1.00  0.00     0.011 C 
HETATM    4  C17 UNL     1      11.052   0.995  -1.221  1.00  0.00     0.036 C 
HETATM    5  C18 UNL     1      11.715   2.134  -1.993  1.00  0.00     0.215 C 
HETATM    6  C19 UNL     1      10.926   3.392  -1.854  1.00  0.00     0.184 C 
ENDROOT
BRANCH   2   7
HETATM    7  C9  UNL     1       8.546   2.188  -0.132  1.00  0.00     0.178 C 
BRANCH   7   8
HETATM    8  O4  UNL     1       8.729   1.090   0.650  1.00  0.00    -0.359 OA
BRANCH   8   9
HETATM    9  C10 UNL     1       8.579   1.229   1.998  1.00  0.00     0.290 C 
HETATM   10  O5  UNL     1       8.917   0.099   2.749  1.00  0.00    -0.350 OA
HETATM   11  C11 UNL     1      10.252  -0.245   2.611  1.00  0.00     0.178 C 
HETATM   12  C13 UNL     1      11.044   0.787   3.409  1.00  0.00     0.151 C 
HETATM   13  C14 UNL     1      10.834   2.114   2.672  1.00  0.00     0.072 C 
HETATM   14  C15 UNL     1       9.370   2.382   2.579  1.00  0.00     0.240 C 
BRANCH  11  15
HETATM   15  C12 UNL     1      10.514  -1.640   3.074  1.00  0.00     0.264 C 
BRANCH  15  16
HETATM   16  N4  UNL     1      11.628  -2.269   2.434  1.00  0.00    -0.077 N 
ATOM     17  H43 UNL     1      11.782  -1.867   1.508  1.00  0.00     0.274 HD
ATOM     18  H42 UNL     1      12.501  -1.999   2.887  1.00  0.00     0.274 HD
ATOM     19  H41 UNL     1      11.556  -3.285   2.374  1.00  0.00     0.274 HD
ENDBRANCH  15  16
ENDBRANCH  11  15
BRANCH  12  20
HETATM   20  O6  UNL     1      12.368   0.461   3.543  1.00  0.00    -0.393 OA
ATOM     21  H6  UNL     1      12.824   1.003   4.176  1.00  0.00     0.210 HD
ENDBRANCH  12  20
BRANCH  14  22
HETATM   22  N5  UNL     1       8.869   2.558   3.952  1.00  0.00    -0.070 N 
ATOM     23  H53 UNL     1       9.398   3.242   4.494  1.00  0.00     0.274 HD
ATOM     24  H52 UNL     1       7.968   3.034   4.000  1.00  0.00     0.274 HD
ATOM     25  H51 UNL     1       8.862   1.626   4.366  1.00  0.00     0.274 HD
ENDBRANCH  14  22
ENDBRANCH   8   9
ENDBRANCH   7   8
ENDBRANCH   2   7
BRANCH   1  26
HETATM   26  O3  UNL     1       9.482   2.876  -3.599  1.00  0.00    -0.350 OA
BRANCH  26  27
HETATM   27  C6  UNL     1       8.969   3.882  -4.369  1.00  0.00     0.298 C 
HETATM   28  C2  UNL     1       9.446   3.677  -5.790  1.00  0.00     0.173 C 
HETATM   29  C1  UNL     1       9.913   2.257  -6.041  1.00  0.00     0.051 C 
HETATM   30  C3  UNL     1       8.178   3.973  -6.594  1.00  0.00     0.097 C 
HETATM   31  C4  UNL     1       7.353   4.683  -5.542  1.00  0.00     0.230 C 
HETATM   32  O2  UNL     1       7.572   3.875  -4.427  1.00  0.00    -0.334 OA
BRANCH  28  33
HETATM   33  N1  UNL     1      10.441   4.651  -6.180  1.00  0.00    -0.066 N 
ATOM     34  H13 UNL     1      11.063   4.876  -5.404  1.00  0.00     0.275 HD
ATOM     35  H12 UNL     1      11.123   4.247  -6.822  1.00  0.00     0.275 HD
ATOM     36  H11 UNL     1      10.019   5.493  -6.571  1.00  0.00     0.275 HD
ENDBRANCH  28  33
BRANCH  31  37
HETATM   37  N2  UNL     1       5.983   4.836  -5.891  1.00  0.00    -0.319 N 
HETATM   38  C5  UNL     1       5.297   6.018  -5.517  1.00  0.00     0.330 C 
HETATM   39  N3  UNL     1       3.910   6.233  -5.841  1.00  0.00    -0.040 NA
HETATM   40  O1  UNL     1       5.872   6.923  -4.889  1.00  0.00    -0.251 OA
ATOM     41  H2  UNL     1       5.498   4.101  -6.406  1.00  0.00     0.166 HD
ENDBRANCH  31  37
ENDBRANCH  26  27
ENDBRANCH   1  26
BRANCH   6  42
HETATM   42  O7  UNL     1      11.078   4.028  -0.629  1.00  0.00    -0.351 OA
BRANCH  42  43
HETATM   43  C20 UNL     1      10.204   5.083  -0.461  1.00  0.00     0.274 C 
HETATM   44  O8  UNL     1      10.126   5.334   0.909  1.00  0.00    -0.329 OA
HETATM   45  C21 UNL     1       9.240   6.372   1.190  1.00  0.00     0.289 C 
HETATM   46  O10 UNL     1       8.669   6.829   0.021  1.00  0.00    -0.329 OA
HETATM   47  C23 UNL     1       9.689   7.440  -0.741  1.00  0.00     0.270 C 
HETATM   48  C24 UNL     1      10.633   6.352  -1.148  1.00  0.00     0.120 C 
BRANCH  45  49
HETATM   49  C22 UNL     1       8.116   5.912   2.096  1.00  0.00     0.225 C 
BRANCH  49  50
HETATM   50  O9  UNL     1       8.559   5.689   3.391  1.00  0.00    -0.396 OA
ATOM     51  H9  UNL     1       8.092   4.973   3.804  1.00  0.00     0.209 HD
ENDBRANCH  49  50
ENDBRANCH  45  49
BRANCH  47  52
HETATM   52  O11 UNL     1      10.269   8.499  -0.090  1.00  0.00    -0.371 OA
ATOM     53  H11 UNL     1      11.132   8.708  -0.430  1.00  0.00     0.212 HD
ENDBRANCH  47  52
BRANCH  48  54
HETATM   54  C25 UNL     1      12.081   6.670  -0.827  1.00  0.00     0.178 C 
BRANCH  54  55
HETATM   55  O12 UNL     1      12.868   6.181  -1.873  1.00  0.00    -0.400 OA
ATOM     56  H12 UNL     1      12.753   5.239  -1.907  1.00  0.00     0.209 HD
ENDBRANCH  54  55
ENDBRANCH  48  54
ENDBRANCH  42  43
ENDBRANCH   6  42
BRANCH   5  57
HETATM   57  N6  UNL     1      13.104   2.248  -1.709  1.00  0.00    -0.072 N 
ATOM     58  H63 UNL     1      13.320   3.152  -1.290  1.00  0.00     0.274 HD
ATOM     59  H62 UNL     1      13.372   1.641  -0.934  1.00  0.00     0.274 HD
ATOM     60  H61 UNL     1      13.685   2.076  -2.529  1.00  0.00     0.274 HD
ENDBRANCH   5  57
TORSDOF 19
ENDMDL
MODEL 3
REMARK VINA RESULT: -8.073987968      3.480      5.608
REMARK  19 active torsions:
REMARK  status: ('A' for Active; 'I' for Inactive)
REMARK    1  A    between atoms: C2_2  and  N1_3 
REMARK    2  A    between atoms: C4_8  and  N2_9 
REMARK       I    between atoms: N2_9  and  C5_11 
REMARK    3  A    between atoms: C6_15  and  O3_16 
REMARK    4  A    between atoms: O3_16  and  C7_17 
REMARK    5  A    between atoms: C8_18  and  C9_19 
REMARK    6  A    between atoms: C9_19  and  O4_20 
REMARK    7  A    between atoms: O4_20  and  C10_21 
REMARK    8  A    between atoms: C11_23  and  C12_24 
REMARK    9  A    between atoms: C12_24  and  N4_25 
REMARK   10  A    between atoms: C13_29  and  O6_30 
REMARK   11  A    between atoms: C15_33  and  N5_34 
REMARK   12  A    between atoms: C18_40  and  N6_41 
REMARK   13  A    between atoms: C19_45  and  O7_46 
REMARK   14  A    between atoms: O7_46  and  C20_47 
REMARK   15  A    between atoms: C21_49  and  C22_50 
REMARK   16  A    between atoms: C22_50  and  O9_51 
REMARK   17  A    between atoms: C23_54  and  O11_55 
REMARK   18  A    between atoms: C24_57  and  C25_58 
REMARK   19  A    between atoms: C25_58  and  O12_59 
ROOT
HETATM    1  C7  UNL     1      10.029   4.714  -0.913  1.00  0.00     0.162 C 
HETATM    2  C8  UNL     1      10.334   5.875   0.011  1.00  0.00     0.041 C 
HETATM    3  C16 UNL     1      11.673   6.412  -0.408  1.00  0.00     0.011 C 
HETATM    4  C17 UNL     1      11.552   6.964  -1.802  1.00  0.00     0.036 C 
HETATM    5  C18 UNL     1      11.348   5.752  -2.708  1.00  0.00     0.215 C 
HETATM    6  C19 UNL     1      10.078   5.048  -2.367  1.00  0.00     0.184 C 
ENDROOT
BRANCH   2   7
HETATM    7  C9  UNL     1       9.251   6.877   0.092  1.00  0.00     0.178 C 
BRANCH   7   8
HETATM    8  O4  UNL     1       8.659   6.972   1.314  1.00  0.00    -0.359 OA
BRANCH   8   9
HETATM    9  C10 UNL     1       7.406   6.455   1.462  1.00  0.00     0.290 C 
HETATM   10  O5  UNL     1       7.360   5.074   1.675  1.00  0.00    -0.350 OA
HETATM   11  C11 UNL     1       7.999   4.701   2.847  1.00  0.00     0.178 C 
HETATM   12  C13 UNL     1       7.081   5.125   3.990  1.00  0.00     0.151 C 
HETATM   13  C14 UNL     1       7.062   6.657   3.945  1.00  0.00     0.072 C 
HETATM   14  C15 UNL     1       6.618   7.090   2.588  1.00  0.00     0.240 C 
BRANCH  11  15
HETATM   15  C12 UNL     1       8.295   3.238   2.874  1.00  0.00     0.264 C 
BRANCH  15  16
HETATM   16  N4  UNL     1       9.543   2.904   3.489  1.00  0.00    -0.077 N 
ATOM     17  H43 UNL     1      10.308   3.411   3.043  1.00  0.00     0.274 HD
ATOM     18  H42 UNL     1       9.596   3.300   4.427  1.00  0.00     0.274 HD
ATOM     19  H41 UNL     1       9.743   1.905   3.511  1.00  0.00     0.274 HD
ENDBRANCH  15  16
ENDBRANCH  11  15
BRANCH  12  20
HETATM   20  O6  UNL     1       7.476   4.637   5.207  1.00  0.00    -0.393 OA
ATOM     21  H6  UNL     1       6.896   4.887   5.916  1.00  0.00     0.210 HD
ENDBRANCH  12  20
BRANCH  14  22
HETATM   22  N5  UNL     1       5.231   6.629   2.415  1.00  0.00    -0.070 N 
ATOM     23  H53 UNL     1       4.694   7.192   1.755  1.00  0.00     0.274 HD
ATOM     24  H52 UNL     1       5.154   5.745   1.912  1.00  0.00     0.274 HD
ATOM     25  H51 UNL     1       4.828   6.603   3.352  1.00  0.00     0.274 HD
ENDBRANCH  14  22
ENDBRANCH   8   9
ENDBRANCH   7   8
ENDBRANCH   2   7
BRANCH   1  26
HETATM   26  O3  UNL     1      11.041   3.782  -0.673  1.00  0.00    -0.350 OA
BRANCH  26  27
HETATM   27  C6  UNL     1      10.574   2.527  -0.398  1.00  0.00     0.298 C 
HETATM   28  C2  UNL     1      11.134   1.578  -1.435  1.00  0.00     0.173 C 
HETATM   29  C1  UNL     1      12.351   2.147  -2.138  1.00  0.00     0.051 C 
HETATM   30  C3  UNL     1      11.525   0.372  -0.580  1.00  0.00     0.097 C 
HETATM   31  C4  UNL     1      10.750   0.676   0.684  1.00  0.00     0.230 C 
HETATM   32  O2  UNL     1      11.000   2.038   0.840  1.00  0.00    -0.334 OA
BRANCH  28  33
HETATM   33  N1  UNL     1      10.126   1.134  -2.373  1.00  0.00    -0.066 N 
ATOM     34  H13 UNL     1       9.516   1.902  -2.652  1.00  0.00     0.275 HD
ATOM     35  H12 UNL     1      10.536   0.916  -3.281  1.00  0.00     0.275 HD
ATOM     36  H11 UNL     1       9.588   0.348  -2.011  1.00  0.00     0.275 HD
ENDBRANCH  28  33
BRANCH  31  37
HETATM   37  N2  UNL     1      11.133  -0.118   1.799  1.00  0.00    -0.319 N 
HETATM   38  C5  UNL     1      10.151  -0.513   2.742  1.00  0.00     0.330 C 
HETATM   39  N3  UNL     1      10.475  -1.318   3.892  1.00  0.00    -0.040 NA
HETATM   40  O1  UNL     1       8.963  -0.177   2.611  1.00  0.00    -0.251 OA
ATOM     41  H2  UNL     1      12.105  -0.401   1.920  1.00  0.00     0.166 HD
ENDBRANCH  31  37
ENDBRANCH  26  27
ENDBRANCH   1  26
BRANCH   6  42
HETATM   42  O7  UNL     1       8.932   5.684  -2.826  1.00  0.00    -0.351 OA
BRANCH  42  43
HETATM   43  C20 UNL     1       8.613   5.342  -4.124  1.00  0.00     0.274 C 
HETATM   44  O8  UNL     1       8.882   3.980  -4.265  1.00  0.00    -0.329 OA
HETATM   45  C21 UNL     1       8.617   3.538  -5.560  1.00  0.00     0.289 C 
HETATM   46  O10 UNL     1       8.196   4.594  -6.339  1.00  0.00    -0.329 OA
HETATM   47  C23 UNL     1       6.936   5.008  -5.849  1.00  0.00     0.270 C 
HETATM   48  C24 UNL     1       7.171   5.576  -4.484  1.00  0.00     0.120 C 
BRANCH  45  49
HETATM   49  C22 UNL     1       9.856   2.958  -6.212  1.00  0.00     0.225 C 
BRANCH  49  50
HETATM   50  O9  UNL     1      10.581   2.172  -5.329  1.00  0.00    -0.396 OA
ATOM     51  H9  UNL     1      11.473   2.038  -5.627  1.00  0.00     0.209 HD
ENDBRANCH  49  50
ENDBRANCH  45  49
BRANCH  47  52
HETATM   52  O11 UNL     1       5.995   4.011  -5.910  1.00  0.00    -0.371 OA
ATOM     53  H11 UNL     1       6.181   3.298  -5.310  1.00  0.00     0.212 HD
ENDBRANCH  47  52
BRANCH  48  54
HETATM   54  C25 UNL     1       6.253   4.987  -3.430  1.00  0.00     0.178 C 
BRANCH  54  55
HETATM   55  O12 UNL     1       6.590   3.639  -3.276  1.00  0.00    -0.400 OA
ATOM     56  H12 UNL     1       5.980   3.256  -2.656  1.00  0.00     0.209 HD
ENDBRANCH  54  55
ENDBRANCH  48  54
ENDBRANCH  42  43
ENDBRANCH   6  42
BRANCH   5  57
HETATM   57  N6  UNL     1      11.522   6.067  -4.084  1.00  0.00    -0.072 N 
ATOM     58  H63 UNL     1      11.525   7.076  -4.233  1.00  0.00     0.274 HD
ATOM     59  H62 UNL     1      12.471   5.853  -4.392  1.00  0.00     0.274 HD
ATOM     60  H61 UNL     1      10.831   5.610  -4.680  1.00  0.00     0.274 HD
ENDBRANCH   5  57
TORSDOF 19
ENDMDL
MODEL 4
REMARK VINA RESULT: -7.984840729      4.358      8.256
REMARK  19 active torsions:
REMARK  status: ('A' for Active; 'I' for Inactive)
REMARK    1  A    between atoms: C2_2  and  N1_3 
REMARK    2  A    between atoms: C4_8  and  N2_9 
REMARK       I    between atoms: N2_9  and  C5_11 
REMARK    3  A    between atoms: C6_15  and  O3_16 
REMARK    4  A    between atoms: O3_16  and  C7_17 
REMARK    5  A    between atoms: C8_18  and  C9_19 
REMARK    6  A    between atoms: C9_19  and  O4_20 
REMARK    7  A    between atoms: O4_20  and  C10_21 
REMARK    8  A    between atoms: C11_23  and  C12_24 
REMARK    9  A    between atoms: C12_24  and  N4_25 
REMARK   10  A    between atoms: C13_29  and  O6_30 
REMARK   11  A    between atoms: C15_33  and  N5_34 
REMARK   12  A    between atoms: C18_40  and  N6_41 
REMARK   13  A    between atoms: C19_45  and  O7_46 
REMARK   14  A    between atoms: O7_46  and  C20_47 
REMARK   15  A    between atoms: C21_49  and  C22_50 
REMARK   16  A    between atoms: C22_50  and  O9_51 
REMARK   17  A    between atoms: C23_54  and  O11_55 
REMARK   18  A    between atoms: C24_57  and  C25_58 
REMARK   19  A    between atoms: C25_58  and  O12_59 
ROOT
HETATM    1  C7  UNL     1       8.909   3.412  -1.950  1.00  0.00     0.162 C 
HETATM    2  C8  UNL     1       8.578   2.174  -1.141  1.00  0.00     0.041 C 
HETATM    3  C16 UNL     1       9.184   1.011  -1.875  1.00  0.00     0.011 C 
HETATM    4  C17 UNL     1      10.680   1.169  -1.867  1.00  0.00     0.036 C 
HETATM    5  C18 UNL     1      10.973   2.362  -2.774  1.00  0.00     0.215 C 
HETATM    6  C19 UNL     1      10.364   3.606  -2.220  1.00  0.00     0.184 C 
ENDROOT
BRANCH   2   7
HETATM    7  C9  UNL     1       8.941   2.276   0.287  1.00  0.00     0.178 C 
BRANCH   7   8
HETATM    8  O4  UNL     1       8.814   1.117   0.988  1.00  0.00    -0.359 OA
BRANCH   8   9
HETATM    9  C10 UNL     1       8.698   1.196   2.344  1.00  0.00     0.290 C 
HETATM   10  O5  UNL     1       9.041   0.029   3.034  1.00  0.00    -0.350 OA
HETATM   11  C11 UNL     1      10.368  -0.322   2.848  1.00  0.00     0.178 C 
HETATM   12  C13 UNL     1      11.192   0.663   3.671  1.00  0.00     0.151 C 
HETATM   13  C14 UNL     1      10.980   2.025   3.001  1.00  0.00     0.072 C 
HETATM   14  C15 UNL     1       9.517   2.313   2.957  1.00  0.00     0.240 C 
BRANCH  11  15
HETATM   15  C12 UNL     1      10.625  -1.740   3.240  1.00  0.00     0.264 C 
BRANCH  15  16
HETATM   16  N4  UNL     1      11.720  -2.349   2.550  1.00  0.00    -0.077 N 
ATOM     17  H43 UNL     1      12.307  -1.637   2.112  1.00  0.00     0.274 HD
ATOM     18  H42 UNL     1      12.388  -2.740   3.214  1.00  0.00     0.274 HD
ATOM     19  H41 UNL     1      11.443  -3.052   1.865  1.00  0.00     0.274 HD
ENDBRANCH  15  16
ENDBRANCH  11  15
BRANCH  12  20
HETATM   20  O6  UNL     1      12.515   0.317   3.757  1.00  0.00    -0.393 OA
ATOM     21  H6  UNL     1      13.051   0.722   3.086  1.00  0.00     0.210 HD
ENDBRANCH  12  20
BRANCH  14  22
HETATM   22  N5  UNL     1       9.053   2.432   4.349  1.00  0.00    -0.070 N 
ATOM     23  H53 UNL     1       8.746   3.372   4.598  1.00  0.00     0.274 HD
ATOM     24  H52 UNL     1       8.164   1.962   4.524  1.00  0.00     0.274 HD
ATOM     25  H51 UNL     1       9.818   2.085   4.927  1.00  0.00     0.274 HD
ENDBRANCH  14  22
ENDBRANCH   8   9
ENDBRANCH   7   8
ENDBRANCH   2   7
BRANCH   1  26
HETATM   26  O3  UNL     1       8.287   3.217  -3.185  1.00  0.00    -0.350 OA
BRANCH  26  27
HETATM   27  C6  UNL     1       7.723   4.353  -3.697  1.00  0.00     0.298 C 
HETATM   28  C2  UNL     1       8.129   4.465  -5.150  1.00  0.00     0.173 C 
HETATM   29  C1  UNL     1       8.599   3.141  -5.721  1.00  0.00     0.051 C 
HETATM   30  C3  UNL     1       6.818   4.897  -5.811  1.00  0.00     0.097 C 
HETATM   31  C4  UNL     1       6.040   5.348  -4.593  1.00  0.00     0.230 C 
HETATM   32  O2  UNL     1       6.326   4.327  -3.689  1.00  0.00    -0.334 OA
BRANCH  28  33
HETATM   33  N1  UNL     1       9.091   5.522  -5.370  1.00  0.00    -0.066 N 
ATOM     34  H13 UNL     1      10.047   5.168  -5.323  1.00  0.00     0.275 HD
ATOM     35  H12 UNL     1       9.083   5.834  -6.342  1.00  0.00     0.275 HD
ATOM     36  H11 UNL     1       8.954   6.303  -4.730  1.00  0.00     0.275 HD
ENDBRANCH  28  33
BRANCH  31  37
HETATM   37  N2  UNL     1       4.652   5.541  -4.836  1.00  0.00    -0.319 N 
HETATM   38  C5  UNL     1       3.955   6.548  -4.124  1.00  0.00     0.330 C 
HETATM   39  N3  UNL     1       2.549   6.792  -4.325  1.00  0.00    -0.040 NA
HETATM   40  O1  UNL     1       4.533   7.264  -3.291  1.00  0.00    -0.251 OA
ATOM     41  H2  UNL     1       4.164   4.959  -5.517  1.00  0.00     0.166 HD
ENDBRANCH  31  37
ENDBRANCH  26  27
ENDBRANCH   1  26
BRANCH   6  42
HETATM   42  O7  UNL     1      11.056   4.150  -1.147  1.00  0.00    -0.351 OA
BRANCH  42  43
HETATM   43  C20 UNL     1      11.518   5.425  -1.399  1.00  0.00     0.274 C 
HETATM   44  O8  UNL     1      10.823   5.900  -2.511  1.00  0.00    -0.329 OA
HETATM   45  C21 UNL     1      11.239   7.181  -2.868  1.00  0.00     0.289 C 
HETATM   46  O10 UNL     1      12.251   7.595  -2.028  1.00  0.00    -0.329 OA
HETATM   47  C23 UNL     1      11.695   7.757  -0.739  1.00  0.00     0.270 C 
HETATM   48  C24 UNL     1      11.305   6.392  -0.264  1.00  0.00     0.120 C 
BRANCH  45  49
HETATM   49  C22 UNL     1      11.780   7.215  -4.282  1.00  0.00     0.225 C 
BRANCH  49  50
HETATM   50  O9  UNL     1      10.933   7.902  -5.140  1.00  0.00    -0.396 OA
ATOM     51  H9  UNL     1      11.071   7.652  -6.046  1.00  0.00     0.209 HD
ENDBRANCH  49  50
ENDBRANCH  45  49
BRANCH  47  52
HETATM   52  O11 UNL     1      10.690   8.690  -0.713  1.00  0.00    -0.371 OA
ATOM     53  H11 UNL     1      11.020   9.579  -0.644  1.00  0.00     0.212 HD
ENDBRANCH  47  52
BRANCH  48  54
HETATM   54  C25 UNL     1       9.874   6.323   0.235  1.00  0.00     0.178 C 
BRANCH  54  55
HETATM   55  O12 UNL     1       9.849   5.467   1.340  1.00  0.00    -0.400 OA
ATOM     56  H12 UNL     1       8.980   5.087   1.394  1.00  0.00     0.209 HD
ENDBRANCH  54  55
ENDBRANCH  48  54
ENDBRANCH  42  43
ENDBRANCH   6  42
BRANCH   5  57
HETATM   57  N6  UNL     1      12.349   2.456  -3.121  1.00  0.00    -0.072 N 
ATOM     58  H63 UNL     1      12.748   3.340  -2.805  1.00  0.00     0.274 HD
ATOM     59  H62 UNL     1      12.913   1.813  -2.565  1.00  0.00     0.274 HD
ATOM     60  H61 UNL     1      12.510   2.318  -4.119  1.00  0.00     0.274 HD
ENDBRANCH   5  57
TORSDOF 19
ENDMDL
MODEL 5
REMARK VINA RESULT: -7.913546899      1.146      1.420
REMARK  19 active torsions:
REMARK  status: ('A' for Active; 'I' for Inactive)
REMARK    1  A    between atoms: C2_2  and  N1_3 
REMARK    2  A    between atoms: C4_8  and  N2_9 
REMARK       I    between atoms: N2_9  and  C5_11 
REMARK    3  A    between atoms: C6_15  and  O3_16 
REMARK    4  A    between atoms: O3_16  and  C7_17 
REMARK    5  A    between atoms: C8_18  and  C9_19 
REMARK    6  A    between atoms: C9_19  and  O4_20 
REMARK    7  A    between atoms: O4_20  and  C10_21 
REMARK    8  A    between atoms: C11_23  and  C12_24 
REMARK    9  A    between atoms: C12_24  and  N4_25 
REMARK   10  A    between atoms: C13_29  and  O6_30 
REMARK   11  A    between atoms: C15_33  and  N5_34 
REMARK   12  A    between atoms: C18_40  and  N6_41 
REMARK   13  A    between atoms: C19_45  and  O7_46 
REMARK   14  A    between atoms: O7_46  and  C20_47 
REMARK   15  A    between atoms: C21_49  and  C22_50 
REMARK   16  A    between atoms: C22_50  and  O9_51 
REMARK   17  A    between atoms: C23_54  and  O11_55 
REMARK   18  A    between atoms: C24_57  and  C25_58 
REMARK   19  A    between atoms: C25_58  and  O12_59 
ROOT
HETATM    1  C7  UNL     1       9.630   0.378   2.221  1.00  0.00     0.162 C 
HETATM    2  C8  UNL     1       8.822   1.094   3.284  1.00  0.00     0.041 C 
HETATM    3  C16 UNL     1       9.806   1.576   4.313  1.00  0.00     0.011 C 
HETATM    4  C17 UNL     1      10.709   2.593   3.670  1.00  0.00     0.036 C 
HETATM    5  C18 UNL     1      11.572   1.812   2.682  1.00  0.00     0.215 C 
HETATM    6  C19 UNL     1      10.727   1.193   1.620  1.00  0.00     0.184 C 
ENDROOT
BRANCH   2   7
HETATM    7  C9  UNL     1       7.911   2.128   2.751  1.00  0.00     0.178 C 
BRANCH   7   8
HETATM    8  O4  UNL     1       6.860   2.428   3.561  1.00  0.00    -0.359 OA
BRANCH   8   9
HETATM    9  C10 UNL     1       7.101   3.182   4.672  1.00  0.00     0.290 C 
HETATM   10  O5  UNL     1       7.383   4.528   4.420  1.00  0.00    -0.350 OA
HETATM   11  C11 UNL     1       6.323   5.184   3.814  1.00  0.00     0.178 C 
HETATM   12  C13 UNL     1       5.267   5.384   4.897  1.00  0.00     0.151 C 
HETATM   13  C14 UNL     1       4.787   3.974   5.259  1.00  0.00     0.072 C 
HETATM   14  C15 UNL     1       5.967   3.161   5.675  1.00  0.00     0.240 C 
BRANCH  11  15
HETATM   15  C12 UNL     1       6.751   6.473   3.196  1.00  0.00     0.264 C 
BRANCH  15  16
HETATM   16  N4  UNL     1       5.966   6.872   2.068  1.00  0.00    -0.077 N 
ATOM     17  H43 UNL     1       6.513   6.803   1.210  1.00  0.00     0.274 HD
ATOM     18  H42 UNL     1       5.246   6.177   1.871  1.00  0.00     0.274 HD
ATOM     19  H41 UNL     1       5.552   7.800   2.155  1.00  0.00     0.274 HD
ENDBRANCH  15  16
ENDBRANCH  11  15
BRANCH  12  20
HETATM   20  O6  UNL     1       4.243   6.205   4.504  1.00  0.00    -0.393 OA
ATOM     21  H6  UNL     1       3.432   6.040   4.969  1.00  0.00     0.210 HD
ENDBRANCH  12  20
BRANCH  14  22
HETATM   22  N5  UNL     1       6.507   3.769   6.902  1.00  0.00    -0.070 N 
ATOM     23  H53 UNL     1       7.231   3.209   7.350  1.00  0.00     0.274 HD
ATOM     24  H52 UNL     1       7.080   4.595   6.729  1.00  0.00     0.274 HD
ATOM     25  H51 UNL     1       5.700   3.950   7.500  1.00  0.00     0.274 HD
ENDBRANCH  14  22
ENDBRANCH   8   9
ENDBRANCH   7   8
ENDBRANCH   2   7
BRANCH   1  26
HETATM   26  O3  UNL     1      10.233  -0.694   2.881  1.00  0.00    -0.350 OA
BRANCH  26  27
HETATM   27  C6  UNL     1      10.955  -1.509   2.055  1.00  0.00     0.298 C 
HETATM   28  C2  UNL     1      12.144  -2.032   2.832  1.00  0.00     0.173 C 
HETATM   29  C1  UNL     1      11.949  -1.915   4.330  1.00  0.00     0.051 C 
HETATM   30  C3  UNL     1      12.173  -3.502   2.409  1.00  0.00     0.097 C 
HETATM   31  C4  UNL     1      11.287  -3.448   1.184  1.00  0.00     0.230 C 
HETATM   32  O2  UNL     1      10.246  -2.636   1.632  1.00  0.00    -0.334 OA
BRANCH  28  33
HETATM   33  N1  UNL     1      13.388  -1.434   2.399  1.00  0.00    -0.066 N 
ATOM     34  H13 UNL     1      14.099  -1.490   3.128  1.00  0.00     0.275 HD
ATOM     35  H12 UNL     1      13.843  -2.004   1.686  1.00  0.00     0.275 HD
ATOM     36  H11 UNL     1      13.260  -0.474   2.080  1.00  0.00     0.275 HD
ENDBRANCH  28  33
BRANCH  31  37
HETATM   37  N2  UNL     1      10.871  -4.724   0.717  1.00  0.00    -0.319 N 
HETATM   38  C5  UNL     1      11.045  -5.056  -0.650  1.00  0.00     0.330 C 
HETATM   39  N3  UNL     1      10.645  -6.332  -1.185  1.00  0.00    -0.040 NA
HETATM   40  O1  UNL     1      11.553  -4.250  -1.447  1.00  0.00    -0.251 OA
ATOM     41  H2  UNL     1      10.451  -5.396   1.360  1.00  0.00     0.166 HD
ENDBRANCH  31  37
ENDBRANCH  26  27
ENDBRANCH   1  26
BRANCH   6  42
HETATM   42  O7  UNL     1      10.285   2.084   0.652  1.00  0.00    -0.351 OA
BRANCH  42  43
HETATM   43  C20 UNL     1       9.874   1.457  -0.506  1.00  0.00     0.274 C 
HETATM   44  O8  UNL     1       9.146   2.392  -1.241  1.00  0.00    -0.329 OA
HETATM   45  C21 UNL     1       8.659   1.845  -2.426  1.00  0.00     0.289 C 
HETATM   46  O10 UNL     1       9.014   0.516  -2.509  1.00  0.00    -0.329 OA
HETATM   47  C23 UNL     1      10.418   0.459  -2.653  1.00  0.00     0.270 C 
HETATM   48  C24 UNL     1      11.003   0.957  -1.368  1.00  0.00     0.120 C 
BRANCH  45  49
HETATM   49  C22 UNL     1       7.147   1.916  -2.489  1.00  0.00     0.225 C 
BRANCH  49  50
HETATM   50  O9  UNL     1       6.705   3.190  -2.816  1.00  0.00    -0.396 OA
ATOM     51  H9  UNL     1       7.430   3.788  -2.957  1.00  0.00     0.209 HD
ENDBRANCH  49  50
ENDBRANCH  45  49
BRANCH  47  52
HETATM   52  O11 UNL     1      10.859   1.105  -3.780  1.00  0.00    -0.371 OA
ATOM     53  H11 UNL     1      11.781   0.953  -3.951  1.00  0.00     0.212 HD
ENDBRANCH  47  52
BRANCH  48  54
HETATM   54  C25 UNL     1      12.043   2.043  -1.570  1.00  0.00     0.178 C 
BRANCH  54  55
HETATM   55  O12 UNL     1      13.135   1.745  -0.750  1.00  0.00    -0.400 OA
ATOM     56  H12 UNL     1      13.680   2.522  -0.698  1.00  0.00     0.209 HD
ENDBRANCH  54  55
ENDBRANCH  48  54
ENDBRANCH  42  43
ENDBRANCH   6  42
BRANCH   5  57
HETATM   57  N6  UNL     1      12.685   2.566   2.217  1.00  0.00    -0.072 N 
ATOM     58  H63 UNL     1      13.174   2.075   1.469  1.00  0.00     0.274 HD
ATOM     59  H62 UNL     1      12.379   3.390   1.699  1.00  0.00     0.274 HD
ATOM     60  H61 UNL     1      13.325   2.821   2.968  1.00  0.00     0.274 HD
ENDBRANCH   5  57
TORSDOF 19
ENDMDL
