MODEL 1
REMARK VINA RESULT: -6.093568965      0.000      0.000
REMARK  2 active torsions:
REMARK  status: ('A' for Active; 'I' for Inactive)
REMARK       I    between atoms: C1_2  and  N1_3 
REMARK    1  A    between atoms: C1_2  and  C10_16 
REMARK    2  A    between atoms: N1_3  and  C2_5 
ROOT
HETATM    1  C2  UNL     1      26.951   2.994   3.432  1.00  0.00     0.151 A 
HETATM    2  N2  UNL     1      27.426   4.234   3.585  1.00  0.00    -0.339 N 
ATOM      3  H2  UNL     1      28.395   4.455   3.355  1.00  0.00     0.168 HD
HETATM    4  C3  UNL     1      26.613   5.161   4.040  1.00  0.00     0.024 A 
HETATM    5  C4  UNL     1      25.327   4.784   4.325  1.00  0.00     0.009 A 
HETATM    6  S1  UNL     1      25.332   3.129   3.933  1.00  0.00    -0.057 SA
HETATM    7  C5  UNL     1      24.160   5.571   4.852  1.00  0.00     0.048 C 
HETATM    8  C6  UNL     1      23.887   6.785   4.027  1.00  0.00     0.005 C 
HETATM    9  C7  UNL     1      24.924   7.839   4.435  1.00  0.00     0.001 C 
HETATM   10  C8  UNL     1      26.143   7.566   3.580  1.00  0.00     0.006 C 
HETATM   11  C9  UNL     1      27.094   6.596   4.240  1.00  0.00     0.058 C 
ENDROOT
BRANCH   1  12
HETATM   12  N1  UNL     1      27.608   1.939   2.991  1.00  0.00    -0.307 N 
HETATM   13  C1  UNL     1      26.911   0.750   2.637  1.00  0.00     0.227 C 
HETATM   14  O1  UNL     1      26.153   0.829   1.636  1.00  0.00    -0.273 OA
ATOM     15  H1  UNL     1      28.623   1.976   2.903  1.00  0.00     0.171 HD
BRANCH  13  16
HETATM   16  C10 UNL     1      27.117  -0.466   3.446  1.00  0.00     0.080 C 
HETATM   17  C11 UNL     1      27.142  -0.165   4.930  1.00  0.00     0.024 C 
HETATM   18  C12 UNL     1      28.347   0.607   5.355  1.00  0.00     0.075 C 
HETATM   19  S2  UNL     1      29.887  -0.082   4.732  1.00  0.00    -0.169 SA
HETATM   20  C13 UNL     1      29.599  -0.703   3.074  1.00  0.00     0.075 C 
HETATM   21  C14 UNL     1      28.250  -1.313   2.985  1.00  0.00     0.024 C 
ENDBRANCH  13  16
ENDBRANCH   1  12
TORSDOF 2
ENDMDL
MODEL 2
REMARK VINA RESULT: -6.024857705      1.820      2.852
REMARK  2 active torsions:
REMARK  status: ('A' for Active; 'I' for Inactive)
REMARK       I    between atoms: C1_2  and  N1_3 
REMARK    1  A    between atoms: C1_2  and  C10_16 
REMARK    2  A    between atoms: N1_3  and  C2_5 
ROOT
HETATM    1  C2  UNL     1      27.976   3.322   4.203  1.00  0.00     0.151 A 
HETATM    2  N2  UNL     1      26.736   2.822   4.216  1.00  0.00    -0.339 N 
ATOM      3  H2  UNL     1      26.572   1.835   4.415  1.00  0.00     0.168 HD
HETATM    4  C3  UNL     1      25.734   3.634   3.967  1.00  0.00     0.024 A 
HETATM    5  C4  UNL     1      26.037   4.946   3.710  1.00  0.00     0.009 A 
HETATM    6  S1  UNL     1      27.733   4.964   3.835  1.00  0.00    -0.057 SA
HETATM    7  C5  UNL     1      25.155   6.120   3.392  1.00  0.00     0.048 C 
HETATM    8  C6  UNL     1      24.084   6.308   4.414  1.00  0.00     0.005 C 
HETATM    9  C7  UNL     1      22.997   5.268   4.111  1.00  0.00     0.001 C 
HETATM   10  C8  UNL     1      23.425   4.007   4.831  1.00  0.00     0.006 C 
HETATM   11  C9  UNL     1      24.294   3.127   3.966  1.00  0.00     0.058 C 
ENDROOT
BRANCH   1  12
HETATM   12  N1  UNL     1      29.099   2.669   4.428  1.00  0.00    -0.307 N 
HETATM   13  C1  UNL     1      29.331   1.401   3.825  1.00  0.00     0.227 C 
HETATM   14  O1  UNL     1      29.454   1.397   2.572  1.00  0.00    -0.273 OA
ATOM     15  H1  UNL     1      29.807   3.076   5.038  1.00  0.00     0.171 HD
BRANCH  13  16
HETATM   16  C10 UNL     1      29.409   0.205   4.684  1.00  0.00     0.080 C 
HETATM   17  C11 UNL     1      29.820  -1.028   3.906  1.00  0.00     0.024 C 
HETATM   18  C12 UNL     1      28.777  -1.495   2.945  1.00  0.00     0.075 C 
HETATM   19  S2  UNL     1      27.140  -1.617   3.680  1.00  0.00    -0.169 SA
HETATM   20  C13 UNL     1      26.936  -0.262   4.837  1.00  0.00     0.075 C 
HETATM   21  C14 UNL     1      28.213   0.000   5.545  1.00  0.00     0.024 C 
ENDBRANCH  13  16
ENDBRANCH   1  12
TORSDOF 2
ENDMDL
MODEL 3
REMARK VINA RESULT: -5.773431912      1.404      1.774
REMARK  2 active torsions:
REMARK  status: ('A' for Active; 'I' for Inactive)
REMARK       I    between atoms: C1_2  and  N1_3 
REMARK    1  A    between atoms: C1_2  and  C10_16 
REMARK    2  A    between atoms: N1_3  and  C2_5 
ROOT
HETATM    1  C2  UNL     1      25.624   1.906   3.182  1.00  0.00     0.151 A 
HETATM    2  N2  UNL     1      26.428   2.969   3.284  1.00  0.00    -0.339 N 
ATOM      3  H2  UNL     1      27.391   2.929   2.949  1.00  0.00     0.168 HD
HETATM    4  C3  UNL     1      25.947   4.065   3.824  1.00  0.00     0.024 A 
HETATM    5  C4  UNL     1      24.643   4.037   4.247  1.00  0.00     0.009 A 
HETATM    6  S1  UNL     1      24.162   2.454   3.857  1.00  0.00    -0.057 SA
HETATM    7  C5  UNL     1      23.792   5.092   4.896  1.00  0.00     0.048 C 
HETATM    8  C6  UNL     1      23.771   6.358   4.106  1.00  0.00     0.005 C 
HETATM    9  C7  UNL     1      25.090   7.085   4.399  1.00  0.00     0.001 C 
HETATM   10  C8  UNL     1      26.095   6.520   3.417  1.00  0.00     0.006 C 
HETATM   11  C9  UNL     1      26.813   5.314   3.970  1.00  0.00     0.058 C 
ENDROOT
BRANCH   1  12
HETATM   12  N1  UNL     1      25.924   0.727   2.673  1.00  0.00    -0.307 N 
HETATM   13  C1  UNL     1      26.970  -0.057   3.234  1.00  0.00     0.227 C 
HETATM   14  O1  UNL     1      26.775  -0.491   4.399  1.00  0.00    -0.273 OA
ATOM     15  H1  UNL     1      25.402   0.374   1.872  1.00  0.00     0.171 HD
BRANCH  13  16
HETATM   16  C10 UNL     1      28.186  -0.304   2.435  1.00  0.00     0.080 C 
HETATM   17  C11 UNL     1      28.787  -1.664   2.721  1.00  0.00     0.024 C 
HETATM   18  C12 UNL     1      29.376  -1.774   4.087  1.00  0.00     0.075 C 
HETATM   19  S2  UNL     1      30.463  -0.403   4.504  1.00  0.00    -0.169 SA
HETATM   20  C13 UNL     1      29.776   1.097   3.801  1.00  0.00     0.075 C 
HETATM   21  C14 UNL     1      29.171   0.809   2.477  1.00  0.00     0.024 C 
ENDBRANCH  13  16
ENDBRANCH   1  12
TORSDOF 2
ENDMDL
MODEL 4
REMARK VINA RESULT: -5.389715394      1.172      1.898
REMARK  2 active torsions:
REMARK  status: ('A' for Active; 'I' for Inactive)
REMARK       I    between atoms: C1_2  and  N1_3 
REMARK    1  A    between atoms: C1_2  and  C10_16 
REMARK    2  A    between atoms: N1_3  and  C2_5 
ROOT
HETATM    1  C2  UNL     1      27.164   3.493   3.330  1.00  0.00     0.151 A 
HETATM    2  N2  UNL     1      25.858   3.645   3.565  1.00  0.00    -0.339 N 
ATOM      3  H2  UNL     1      25.249   2.834   3.676  1.00  0.00     0.168 HD
HETATM    4  C3  UNL     1      25.377   4.864   3.651  1.00  0.00     0.024 A 
HETATM    5  C4  UNL     1      26.260   5.901   3.491  1.00  0.00     0.009 A 
HETATM    6  S1  UNL     1      27.733   5.093   3.227  1.00  0.00    -0.057 SA
HETATM    7  C5  UNL     1      26.054   7.389   3.526  1.00  0.00     0.048 C 
HETATM    8  C6  UNL     1      25.376   7.830   4.781  1.00  0.00     0.005 C 
HETATM    9  C7  UNL     1      23.884   7.516   4.610  1.00  0.00     0.001 C 
HETATM   10  C8  UNL     1      23.715   6.080   5.057  1.00  0.00     0.006 C 
HETATM   11  C9  UNL     1      23.893   5.106   3.917  1.00  0.00     0.058 C 
ENDROOT
BRANCH   1  12
HETATM   12  N1  UNL     1      27.825   2.358   3.213  1.00  0.00    -0.307 N 
HETATM   13  C1  UNL     1      27.128   1.121   3.134  1.00  0.00     0.227 C 
HETATM   14  O1  UNL     1      26.428   0.944   2.103  1.00  0.00    -0.273 OA
ATOM     15  H1  UNL     1      28.844   2.368   3.178  1.00  0.00     0.171 HD
BRANCH  13  16
HETATM   16  C10 UNL     1      27.265   0.151   4.236  1.00  0.00     0.080 C 
HETATM   17  C11 UNL     1      28.434   0.480   5.140  1.00  0.00     0.024 C 
HETATM   18  C12 UNL     1      29.761   0.281   4.485  1.00  0.00     0.075 C 
HETATM   19  S2  UNL     1      29.913  -1.308   3.657  1.00  0.00    -0.169 SA
HETATM   20  C13 UNL     1      28.331  -1.712   2.914  1.00  0.00     0.075 C 
HETATM   21  C14 UNL     1      27.225  -1.270   3.798  1.00  0.00     0.024 C 
ENDBRANCH  13  16
ENDBRANCH   1  12
TORSDOF 2
ENDMDL
MODEL 5
REMARK VINA RESULT: -5.294487003      1.341      2.003
REMARK  2 active torsions:
REMARK  status: ('A' for Active; 'I' for Inactive)
REMARK       I    between atoms: C1_2  and  N1_3 
REMARK    1  A    between atoms: C1_2  and  C10_16 
REMARK    2  A    between atoms: N1_3  and  C2_5 
ROOT
HETATM    1  C2  UNL     1      27.843   3.431   3.964  1.00  0.00     0.151 A 
HETATM    2  N2  UNL     1      27.774   4.766   3.933  1.00  0.00    -0.339 N 
ATOM      3  H2  UNL     1      28.601   5.327   3.726  1.00  0.00     0.168 HD
HETATM    4  C3  UNL     1      26.616   5.336   4.176  1.00  0.00     0.024 A 
HETATM    5  C4  UNL     1      25.554   4.513   4.444  1.00  0.00     0.009 A 
HETATM    6  S1  UNL     1      26.251   2.965   4.339  1.00  0.00    -0.057 SA
HETATM    7  C5  UNL     1      24.118   4.823   4.760  1.00  0.00     0.048 C 
HETATM    8  C6  UNL     1      23.496   5.702   3.726  1.00  0.00     0.005 C 
HETATM    9  C7  UNL     1      23.982   7.130   4.010  1.00  0.00     0.001 C 
HETATM   10  C8  UNL     1      25.306   7.262   3.287  1.00  0.00     0.006 C 
HETATM   11  C9  UNL     1      26.471   6.856   4.157  1.00  0.00     0.058 C 
ENDROOT
BRANCH   1  12
HETATM   12  N1  UNL     1      28.908   2.684   3.748  1.00  0.00    -0.307 N 
HETATM   13  C1  UNL     1      28.768   1.324   3.356  1.00  0.00     0.227 C 
HETATM   14  O1  UNL     1      28.265   1.122   2.220  1.00  0.00    -0.273 OA
ATOM     15  H1  UNL     1      29.838   3.084   3.863  1.00  0.00     0.171 HD
BRANCH  13  16
HETATM   16  C10 UNL     1      29.209   0.264   4.283  1.00  0.00     0.080 C 
HETATM   17  C11 UNL     1      29.621  -0.996   3.550  1.00  0.00     0.024 C 
HETATM   18  C12 UNL     1      28.477  -1.706   2.906  1.00  0.00     0.075 C 
HETATM   19  S2  UNL     1      27.076  -1.939   4.010  1.00  0.00    -0.169 SA
HETATM   20  C13 UNL     1      26.927  -0.484   5.049  1.00  0.00     0.075 C 
HETATM   21  C14 UNL     1      28.273   0.022   5.413  1.00  0.00     0.024 C 
ENDBRANCH  13  16
ENDBRANCH   1  12
TORSDOF 2
ENDMDL
