MODEL 1
REMARK VINA RESULT: -6.070562202      0.000      0.000
REMARK  1 active torsions:
REMARK  status: ('A' for Active; 'I' for Inactive)
REMARK    1  A    between atoms: C1_2  and  C2_3 
REMARK       I    between atoms: C1_2  and  N3_14 
ROOT
HETATM    1  O1  UNL     1      24.821   3.078   4.320  1.00  0.00    -0.265 OA
HETATM    2  C1  UNL     1      26.048   3.314   3.964  1.00  0.00     0.276 C 
HETATM    3  N3  UNL     1      26.838   2.232   3.590  1.00  0.00    -0.326 N 
HETATM    4  C8  UNL     1      26.214   0.887   3.629  1.00  0.00     0.132 C 
HETATM    5  C9  UNL     1      27.157   0.072   4.506  1.00  0.00     0.030 C 
HETATM    6  C10 UNL     1      28.427  -0.159   3.711  1.00  0.00    -0.031 C 
HETATM    7  C11 UNL     1      29.554  -0.200   4.721  1.00  0.00     0.036 C 
HETATM    8  C12 UNL     1      30.734  -1.023   4.216  1.00  0.00     0.168 C 
HETATM    9  O3  UNL     1      30.235  -2.314   4.046  1.00  0.00    -0.391 OA
HETATM   10  C13 UNL     1      29.451  -2.323   2.929  1.00  0.00     0.168 C 
HETATM   11  C14 UNL     1      28.268  -1.433   2.948  1.00  0.00     0.036 C 
HETATM   12  C15 UNL     1      28.736   0.943   2.744  1.00  0.00     0.054 C 
HETATM   13  C16 UNL     1      28.183   2.300   3.175  1.00  0.00     0.068 C 
ENDROOT
BRANCH   2  14
HETATM   14  C2  UNL     1      26.430   4.718   4.008  1.00  0.00     0.124 A 
HETATM   15  N1  UNL     1      27.608   5.325   4.111  1.00  0.00    -0.295 N 
HETATM   16  N2  UNL     1      27.488   6.666   4.111  1.00  0.00    -0.301 N 
ATOM     17  H1  UNL     1      28.499   4.833   4.182  1.00  0.00     0.187 HD
HETATM   18  C3  UNL     1      26.213   6.976   4.006  1.00  0.00     0.058 A 
ATOM     19  H2  UNL     1      28.258   7.331   4.181  1.00  0.00     0.186 HD
HETATM   20  C4  UNL     1      25.517   5.786   3.939  1.00  0.00     0.004 A 
HETATM   21  C7  UNL     1      25.402   8.221   3.941  1.00  0.00     0.226 C 
HETATM   22  C5  UNL     1      24.051   5.937   3.821  1.00  0.00     0.069 C 
HETATM   23  C6  UNL     1      23.637   6.999   4.819  1.00  0.00     0.172 C 
HETATM   24  O2  UNL     1      24.266   8.197   4.695  1.00  0.00    -0.385 OA
ENDBRANCH   2  14
TORSDOF 1
ENDMDL
MODEL 2
REMARK VINA RESULT: -6.024613508      1.898      2.242
REMARK  1 active torsions:
REMARK  status: ('A' for Active; 'I' for Inactive)
REMARK    1  A    between atoms: C1_2  and  C2_3 
REMARK       I    between atoms: C1_2  and  N3_14 
ROOT
HETATM    1  O1  UNL     1      23.369   2.411   5.420  1.00  0.00    -0.265 OA
HETATM    2  C1  UNL     1      24.226   2.964   4.615  1.00  0.00     0.276 C 
HETATM    3  N3  UNL     1      25.202   2.154   4.044  1.00  0.00    -0.326 N 
HETATM    4  C8  UNL     1      25.188   0.715   4.403  1.00  0.00     0.132 C 
HETATM    5  C9  UNL     1      26.599   0.452   4.915  1.00  0.00     0.030 C 
HETATM    6  C10 UNL     1      27.530   0.502   3.719  1.00  0.00    -0.031 C 
HETATM    7  C11 UNL     1      28.848   1.039   4.234  1.00  0.00     0.036 C 
HETATM    8  C12 UNL     1      30.020   0.571   3.379  1.00  0.00     0.168 C 
HETATM    9  O3  UNL     1      30.027  -0.819   3.493  1.00  0.00    -0.391 OA
HETATM   10  C13 UNL     1      28.990  -1.310   2.755  1.00  0.00     0.168 C 
HETATM   11  C14 UNL     1      27.632  -0.879   3.157  1.00  0.00     0.036 C 
HETATM   12  C15 UNL     1      27.064   1.426   2.637  1.00  0.00     0.054 C 
HETATM   13  C16 UNL     1      26.206   2.580   3.152  1.00  0.00     0.068 C 
ENDROOT
BRANCH   2  14
HETATM   14  C2  UNL     1      24.034   4.394   4.420  1.00  0.00     0.124 A 
HETATM   15  N1  UNL     1      22.955   5.130   4.171  1.00  0.00    -0.295 N 
HETATM   16  N2  UNL     1      23.249   6.439   4.067  1.00  0.00    -0.301 N 
ATOM     17  H1  UNL     1      22.015   4.747   4.071  1.00  0.00     0.187 HD
HETATM   18  C3  UNL     1      24.544   6.598   4.248  1.00  0.00     0.058 A 
ATOM     19  H2  UNL     1      22.580   7.185   3.879  1.00  0.00     0.186 HD
HETATM   20  C4  UNL     1      25.072   5.342   4.471  1.00  0.00     0.004 A 
HETATM   21  C7  UNL     1      25.504   7.733   4.271  1.00  0.00     0.226 C 
HETATM   22  C5  UNL     1      26.534   5.321   4.694  1.00  0.00     0.069 C 
HETATM   23  C6  UNL     1      27.150   6.224   3.646  1.00  0.00     0.172 C 
HETATM   24  O2  UNL     1      26.676   7.497   3.616  1.00  0.00    -0.385 OA
ENDBRANCH   2  14
TORSDOF 1
ENDMDL
MODEL 3
REMARK VINA RESULT: -5.064351241      1.857      2.206
REMARK  1 active torsions:
REMARK  status: ('A' for Active; 'I' for Inactive)
REMARK    1  A    between atoms: C1_2  and  C2_3 
REMARK       I    between atoms: C1_2  and  N3_14 
ROOT
HETATM    1  O1  UNL     1      23.367   1.656   3.130  1.00  0.00    -0.265 OA
HETATM    2  C1  UNL     1      24.395   2.387   3.442  1.00  0.00     0.276 C 
HETATM    3  N3  UNL     1      25.660   1.824   3.310  1.00  0.00    -0.326 N 
HETATM    4  C8  UNL     1      25.736   0.424   2.822  1.00  0.00     0.132 C 
HETATM    5  C9  UNL     1      26.555  -0.291   3.889  1.00  0.00     0.030 C 
HETATM    6  C10 UNL     1      27.985   0.197   3.764  1.00  0.00    -0.031 C 
HETATM    7  C11 UNL     1      28.561   0.174   5.163  1.00  0.00     0.036 C 
HETATM    8  C12 UNL     1      30.077   0.011   5.147  1.00  0.00     0.168 C 
HETATM    9  O3  UNL     1      30.307  -1.227   4.546  1.00  0.00    -0.391 OA
HETATM   10  C13 UNL     1      30.071  -1.099   3.207  1.00  0.00     0.168 C 
HETATM   11  C14 UNL     1      28.699  -0.709   2.814  1.00  0.00     0.036 C 
HETATM   12  C15 UNL     1      28.095   1.603   3.259  1.00  0.00     0.054 C 
HETATM   13  C16 UNL     1      26.881   2.465   3.599  1.00  0.00     0.068 C 
ENDROOT
BRANCH   2  14
HETATM   14  C2  UNL     1      24.065   3.729   3.897  1.00  0.00     0.124 A 
HETATM   15  N1  UNL     1      22.921   4.295   4.271  1.00  0.00    -0.295 N 
HETATM   16  N2  UNL     1      23.086   5.583   4.623  1.00  0.00    -0.301 N 
ATOM     17  H1  UNL     1      22.024   3.809   4.288  1.00  0.00     0.187 HD
HETATM   18  C3  UNL     1      24.357   5.900   4.489  1.00  0.00     0.058 A 
ATOM     19  H2  UNL     1      22.348   6.211   4.942  1.00  0.00     0.186 HD
HETATM   20  C4  UNL     1      25.004   4.767   4.037  1.00  0.00     0.004 A 
HETATM   21  C7  UNL     1      25.202   7.104   4.702  1.00  0.00     0.226 C 
HETATM   22  C5  UNL     1      26.457   4.935   3.822  1.00  0.00     0.069 C 
HETATM   23  C6  UNL     1      26.645   6.252   3.099  1.00  0.00     0.172 C 
HETATM   24  O2  UNL     1      26.111   7.340   3.712  1.00  0.00    -0.385 OA
ENDBRANCH   2  14
TORSDOF 1
ENDMDL
MODEL 4
REMARK VINA RESULT: -3.783791083      1.700      7.431
REMARK  1 active torsions:
REMARK  status: ('A' for Active; 'I' for Inactive)
REMARK    1  A    between atoms: C1_2  and  C2_3 
REMARK       I    between atoms: C1_2  and  N3_14 
ROOT
HETATM    1  O1  UNL     1      24.085   1.496   3.832  1.00  0.00    -0.265 OA
HETATM    2  C1  UNL     1      25.218   2.126   3.752  1.00  0.00     0.276 C 
HETATM    3  N3  UNL     1      25.253   3.459   4.145  1.00  0.00    -0.326 N 
HETATM    4  C8  UNL     1      23.985   4.061   4.627  1.00  0.00     0.132 C 
HETATM    5  C9  UNL     1      23.812   5.297   3.753  1.00  0.00     0.030 C 
HETATM    6  C10 UNL     1      24.860   6.305   4.183  1.00  0.00    -0.031 C 
HETATM    7  C11 UNL     1      25.233   7.081   2.939  1.00  0.00     0.036 C 
HETATM    8  C12 UNL     1      25.748   8.475   3.276  1.00  0.00     0.168 C 
HETATM    9  O3  UNL     1      24.680   9.119   3.902  1.00  0.00    -0.391 OA
HETATM   10  C13 UNL     1      24.555   8.606   5.161  1.00  0.00     0.168 C 
HETATM   11  C14 UNL     1      24.265   7.158   5.257  1.00  0.00     0.036 C 
HETATM   12  C15 UNL     1      26.113   5.677   4.710  1.00  0.00     0.054 C 
HETATM   13  C16 UNL     1      26.389   4.293   4.127  1.00  0.00     0.068 C 
ENDROOT
BRANCH   2  14
HETATM   14  C2  UNL     1      26.320   1.320   3.247  1.00  0.00     0.124 A 
HETATM   15  N1  UNL     1      26.474   0.603   2.138  1.00  0.00    -0.295 N 
HETATM   16  N2  UNL     1      27.682   0.013   2.081  1.00  0.00    -0.301 N 
ATOM     17  H1  UNL     1      25.760   0.511   1.415  1.00  0.00     0.187 HD
HETATM   18  C3  UNL     1      28.361   0.332   3.163  1.00  0.00     0.058 A 
ATOM     19  H2  UNL     1      28.017  -0.583   1.324  1.00  0.00     0.186 HD
HETATM   20  C4  UNL     1      27.544   1.149   3.919  1.00  0.00     0.004 A 
HETATM   21  C7  UNL     1      29.708   0.045   3.722  1.00  0.00     0.226 C 
HETATM   22  C5  UNL     1      28.143   1.610   5.190  1.00  0.00     0.069 C 
HETATM   23  C6  UNL     1      28.804   0.405   5.826  1.00  0.00     0.172 C 
HETATM   24  O2  UNL     1      29.720  -0.237   5.056  1.00  0.00    -0.385 OA
ENDBRANCH   2  14
TORSDOF 1
ENDMDL
MODEL 5
REMARK VINA RESULT: -3.774892618      1.611      2.440
REMARK  1 active torsions:
REMARK  status: ('A' for Active; 'I' for Inactive)
REMARK    1  A    between atoms: C1_2  and  C2_3 
REMARK       I    between atoms: C1_2  and  N3_14 
ROOT
HETATM    1  O1  UNL     1      28.200   4.718   3.754  1.00  0.00    -0.265 OA
HETATM    2  C1  UNL     1      27.397   3.749   4.076  1.00  0.00     0.276 C 
HETATM    3  N3  UNL     1      27.943   2.483   4.263  1.00  0.00    -0.326 N 
HETATM    4  C8  UNL     1      29.408   2.339   4.077  1.00  0.00     0.132 C 
HETATM    5  C9  UNL     1      29.538   1.218   3.053  1.00  0.00     0.030 C 
HETATM    6  C10 UNL     1      29.148  -0.073   3.745  1.00  0.00    -0.031 C 
HETATM    7  C11 UNL     1      28.513  -0.945   2.683  1.00  0.00     0.036 C 
HETATM    8  C12 UNL     1      28.649  -2.426   3.013  1.00  0.00     0.168 C 
HETATM    9  O3  UNL     1      30.021  -2.674   3.036  1.00  0.00    -0.391 OA
HETATM   10  C13 UNL     1      30.531  -2.133   4.181  1.00  0.00     0.168 C 
HETATM   11  C14 UNL     1      30.382  -0.669   4.340  1.00  0.00     0.036 C 
HETATM   12  C15 UNL     1      28.135   0.113   4.832  1.00  0.00     0.054 C 
HETATM   13  C16 UNL     1      27.227   1.321   4.614  1.00  0.00     0.068 C 
ENDROOT
BRANCH   2  14
HETATM   14  C2  UNL     1      26.000   4.139   4.199  1.00  0.00     0.124 A 
HETATM   15  N1  UNL     1      24.878   3.435   4.319  1.00  0.00    -0.295 N 
HETATM   16  N2  UNL     1      23.792   4.225   4.406  1.00  0.00    -0.301 N 
ATOM     17  H1  UNL     1      24.844   2.415   4.342  1.00  0.00     0.187 HD
HETATM   18  C3  UNL     1      24.178   5.483   4.346  1.00  0.00     0.058 A 
ATOM     19  H2  UNL     1      22.829   3.903   4.503  1.00  0.00     0.186 HD
HETATM   20  C4  UNL     1      25.552   5.472   4.216  1.00  0.00     0.004 A 
HETATM   21  C7  UNL     1      23.528   6.819   4.388  1.00  0.00     0.226 C 
HETATM   22  C5  UNL     1      26.171   6.812   4.128  1.00  0.00     0.069 C 
HETATM   23  C6  UNL     1      25.327   7.623   3.167  1.00  0.00     0.172 C 
HETATM   24  O2  UNL     1      24.007   7.711   3.475  1.00  0.00    -0.385 OA
ENDBRANCH   2  14
TORSDOF 1
ENDMDL
