MODEL 1
REMARK VINA RESULT: -7.708127667      0.000      0.000
REMARK  8 active torsions:
REMARK  status: ('A' for Active; 'I' for Inactive)
REMARK    1  A    between atoms: C2_2  and  N1_3 
REMARK    2  A    between atoms: N1_3  and  C3_5 
REMARK    3  A    between atoms: C3_5  and  C4_6 
REMARK    4  A    between atoms: C4_6  and  O2_8 
REMARK    5  A    between atoms: O2_8  and  C5_9 
REMARK    6  A    between atoms: C9_13  and  C11_15 
REMARK    7  A    between atoms: C13_17  and  O3_18 
REMARK    8  A    between atoms: C16_24  and  O4_25 
ROOT
HETATM    1  C3  UNL     1     -12.058  24.283 -35.102  1.00  0.00     0.111 C 
HETATM    2  C9  UNL     1     -11.801  23.404 -36.185  1.00  0.00    -0.016 C 
HETATM    3  C10 UNL     1     -10.388  22.829 -36.315  1.00  0.00     0.052 C 
ENDROOT
BRANCH   2   4
HETATM    4  C11 UNL     1     -12.548  23.257 -37.441  1.00  0.00     0.010 A 
HETATM    5  C12 UNL     1     -13.481  22.213 -37.647  1.00  0.00     0.053 A 
HETATM    6  C13 UNL     1     -14.282  22.098 -38.755  1.00  0.00     0.090 A 
HETATM    7  C14 UNL     1     -14.218  23.026 -39.762  1.00  0.00     0.091 A 
HETATM    8 CL1  UNL     1     -15.213  22.924 -41.205  1.00  0.00    -0.079 Cl
HETATM    9  C15 UNL     1     -13.324  24.055 -39.605  1.00  0.00     0.092 A 
HETATM   10 CL2  UNL     1     -13.232  25.248 -40.900  1.00  0.00    -0.079 Cl
HETATM   11  C16 UNL     1     -12.514  24.173 -38.487  1.00  0.00     0.100 A 
BRANCH   6  12
HETATM   12  O3  UNL     1     -15.172  21.042 -38.879  1.00  0.00    -0.359 OA
ATOM     13  H3  UNL     1     -15.473  20.759 -39.734  1.00  0.00     0.217 HD
ENDBRANCH   6  12
BRANCH  11  14
HETATM   14  O4  UNL     1     -11.658  25.230 -38.466  1.00  0.00    -0.358 OA
ATOM     15  H4  UNL     1     -11.674  25.888 -39.151  1.00  0.00     0.217 HD
ENDBRANCH  11  14
ENDBRANCH   2   4
BRANCH   1  16
HETATM   16  N1  UNL     1     -12.162  23.746 -33.872  1.00  0.00    -0.385 N 
ATOM     17  H1  UNL     1     -13.109  23.467 -33.613  1.00  0.00     0.159 HD
BRANCH  16  18
HETATM   18  C2  UNL     1     -11.213  23.509 -32.903  1.00  0.00     0.115 C 
HETATM   19  C1  UNL     1     -11.586  24.367 -31.663  1.00  0.00     0.026 C 
ENDBRANCH  16  18
ENDBRANCH   1  16
BRANCH   1  20
HETATM   20  C4  UNL     1     -12.167  25.723 -34.996  1.00  0.00     0.311 C 
HETATM   21  O1  UNL     1     -11.400  26.521 -34.435  1.00  0.00    -0.258 OA
BRANCH  20  22
HETATM   22  O2  UNL     1     -13.279  26.397 -35.582  1.00  0.00    -0.306 OA
BRANCH  22  23
HETATM   23  C5  UNL     1     -14.566  26.105 -35.061  1.00  0.00     0.060 C 
HETATM   24  C6  UNL     1     -15.234  24.963 -35.754  1.00  0.00     0.046 C 
HETATM   25  C7  UNL     1     -14.602  25.985 -33.584  1.00  0.00     0.046 C 
HETATM   26  C8  UNL     1     -15.403  27.358 -35.446  1.00  0.00     0.046 C 
ENDBRANCH  22  23
ENDBRANCH  20  22
ENDBRANCH   1  20
TORSDOF 8
ENDMDL
MODEL 2
REMARK VINA RESULT: -7.325451258      2.835      4.974
REMARK  8 active torsions:
REMARK  status: ('A' for Active; 'I' for Inactive)
REMARK    1  A    between atoms: C2_2  and  N1_3 
REMARK    2  A    between atoms: N1_3  and  C3_5 
REMARK    3  A    between atoms: C3_5  and  C4_6 
REMARK    4  A    between atoms: C4_6  and  O2_8 
REMARK    5  A    between atoms: O2_8  and  C5_9 
REMARK    6  A    between atoms: C9_13  and  C11_15 
REMARK    7  A    between atoms: C13_17  and  O3_18 
REMARK    8  A    between atoms: C16_24  and  O4_25 
ROOT
HETATM    1  C3  UNL     1     -13.361  23.923 -36.657  1.00  0.00     0.111 C 
HETATM    2  C9  UNL     1     -11.945  23.904 -36.573  1.00  0.00    -0.016 C 
HETATM    3  C10 UNL     1     -11.303  22.894 -35.620  1.00  0.00     0.052 C 
ENDROOT
BRANCH   2   4
HETATM    4  C11 UNL     1     -10.993  24.959 -36.945  1.00  0.00     0.010 A 
HETATM    5  C12 UNL     1     -10.784  26.105 -36.142  1.00  0.00     0.053 A 
HETATM    6  C13 UNL     1      -9.830  27.060 -36.389  1.00  0.00     0.090 A 
HETATM    7  C14 UNL     1      -8.995  26.949 -37.471  1.00  0.00     0.091 A 
HETATM    8 CL1  UNL     1      -7.762  28.144 -37.839  1.00  0.00    -0.079 Cl
HETATM    9  C15 UNL     1      -9.165  25.853 -38.279  1.00  0.00     0.092 A 
HETATM   10 CL2  UNL     1      -8.099  25.708 -39.676  1.00  0.00    -0.079 Cl
HETATM   11  C16 UNL     1     -10.128  24.888 -38.032  1.00  0.00     0.100 A 
BRANCH   6  12
HETATM   12  O3  UNL     1      -9.690  28.155 -35.550  1.00  0.00    -0.359 OA
ATOM     13  H3  UNL     1     -10.452  28.586 -35.183  1.00  0.00     0.217 HD
ENDBRANCH   6  12
BRANCH  11  14
HETATM   14  O4  UNL     1     -10.203  23.862 -38.923  1.00  0.00    -0.358 OA
ATOM     15  H4  UNL     1      -9.465  23.642 -39.480  1.00  0.00     0.217 HD
ENDBRANCH  11  14
ENDBRANCH   2   4
BRANCH   1  16
HETATM   16  N1  UNL     1     -13.961  22.917 -37.318  1.00  0.00    -0.385 N 
ATOM     17  H1  UNL     1     -14.728  22.476 -36.810  1.00  0.00     0.159 HD
BRANCH  16  18
HETATM   18  C2  UNL     1     -13.721  22.379 -38.563  1.00  0.00     0.115 C 
HETATM   19  C1  UNL     1     -15.081  21.897 -39.136  1.00  0.00     0.026 C 
ENDBRANCH  16  18
ENDBRANCH   1  16
BRANCH   1  20
HETATM   20  C4  UNL     1     -14.377  24.789 -36.098  1.00  0.00     0.311 C 
HETATM   21  O1  UNL     1     -15.007  25.705 -36.651  1.00  0.00    -0.258 OA
BRANCH  20  22
HETATM   22  O2  UNL     1     -14.766  24.642 -34.734  1.00  0.00    -0.306 OA
BRANCH  22  23
HETATM   23  C5  UNL     1     -14.057  25.404 -33.769  1.00  0.00     0.060 C 
HETATM   24  C6  UNL     1     -13.049  24.602 -33.013  1.00  0.00     0.046 C 
HETATM   25  C7  UNL     1     -13.505  26.675 -34.297  1.00  0.00     0.046 C 
HETATM   26  C8  UNL     1     -15.151  25.770 -32.725  1.00  0.00     0.046 C 
ENDBRANCH  22  23
ENDBRANCH  20  22
ENDBRANCH   1  20
TORSDOF 8
ENDMDL
MODEL 3
REMARK VINA RESULT: -7.271391413      5.976      8.456
REMARK  8 active torsions:
REMARK  status: ('A' for Active; 'I' for Inactive)
REMARK    1  A    between atoms: C2_2  and  N1_3 
REMARK    2  A    between atoms: N1_3  and  C3_5 
REMARK    3  A    between atoms: C3_5  and  C4_6 
REMARK    4  A    between atoms: C4_6  and  O2_8 
REMARK    5  A    between atoms: O2_8  and  C5_9 
REMARK    6  A    between atoms: C9_13  and  C11_15 
REMARK    7  A    between atoms: C13_17  and  O3_18 
REMARK    8  A    between atoms: C16_24  and  O4_25 
ROOT
HETATM    1  C3  UNL     1      -9.798  27.923 -35.114  1.00  0.00     0.111 C 
HETATM    2  C9  UNL     1      -9.198  28.577 -34.008  1.00  0.00    -0.016 C 
HETATM    3  C10 UNL     1      -8.850  27.727 -32.783  1.00  0.00     0.052 C 
ENDROOT
BRANCH   2   4
HETATM    4  C11 UNL     1      -9.214  30.006 -33.672  1.00  0.00     0.010 A 
HETATM    5  C12 UNL     1     -10.180  30.567 -32.803  1.00  0.00     0.053 A 
HETATM    6  C13 UNL     1     -10.170  31.870 -32.372  1.00  0.00     0.090 A 
HETATM    7  C14 UNL     1      -9.184  32.732 -32.778  1.00  0.00     0.091 A 
HETATM    8 CL1  UNL     1      -9.127  34.411 -32.264  1.00  0.00    -0.079 Cl
HETATM    9  C15 UNL     1      -8.228  32.231 -33.624  1.00  0.00     0.092 A 
HETATM   10 CL2  UNL     1      -6.961  33.336 -34.155  1.00  0.00    -0.079 Cl
HETATM   11  C16 UNL     1      -8.236  30.915 -34.061  1.00  0.00     0.100 A 
BRANCH   6  12
HETATM   12  O3  UNL     1     -11.156  32.341 -31.518  1.00  0.00    -0.359 OA
ATOM     13  H3  UNL     1     -11.384  33.263 -31.502  1.00  0.00     0.217 HD
ENDBRANCH   6  12
BRANCH  11  14
HETATM   14  O4  UNL     1      -7.240  30.552 -34.913  1.00  0.00    -0.358 OA
ATOM     15  H4  UNL     1      -6.361  30.380 -34.596  1.00  0.00     0.217 HD
ENDBRANCH  11  14
ENDBRANCH   2   4
BRANCH   1  16
HETATM   16  N1  UNL     1      -9.014  27.141 -35.879  1.00  0.00    -0.385 N 
ATOM     17  H1  UNL     1      -8.460  26.461 -35.358  1.00  0.00     0.159 HD
BRANCH  16  18
HETATM   18  C2  UNL     1      -8.831  27.100 -37.243  1.00  0.00     0.115 C 
HETATM   19  C1  UNL     1      -7.755  28.160 -37.603  1.00  0.00     0.026 C 
ENDBRANCH  16  18
ENDBRANCH   1  16
BRANCH   1  20
HETATM   20  C4  UNL     1     -11.160  27.838 -35.599  1.00  0.00     0.311 C 
HETATM   21  O1  UNL     1     -11.927  28.758 -35.924  1.00  0.00    -0.258 OA
BRANCH  20  22
HETATM   22  O2  UNL     1     -11.783  26.564 -35.749  1.00  0.00    -0.306 OA
BRANCH  22  23
HETATM   23  C5  UNL     1     -12.618  26.120 -34.691  1.00  0.00     0.060 C 
HETATM   24  C6  UNL     1     -12.050  26.401 -33.339  1.00  0.00     0.046 C 
HETATM   25  C7  UNL     1     -14.032  26.545 -34.824  1.00  0.00     0.046 C 
HETATM   26  C8  UNL     1     -12.583  24.571 -34.832  1.00  0.00     0.046 C 
ENDBRANCH  22  23
ENDBRANCH  20  22
ENDBRANCH   1  20
TORSDOF 8
ENDMDL
MODEL 4
REMARK VINA RESULT: -7.167869985      2.977      4.515
REMARK  8 active torsions:
REMARK  status: ('A' for Active; 'I' for Inactive)
REMARK    1  A    between atoms: C2_2  and  N1_3 
REMARK    2  A    between atoms: N1_3  and  C3_5 
REMARK    3  A    between atoms: C3_5  and  C4_6 
REMARK    4  A    between atoms: C4_6  and  O2_8 
REMARK    5  A    between atoms: O2_8  and  C5_9 
REMARK    6  A    between atoms: C9_13  and  C11_15 
REMARK    7  A    between atoms: C13_17  and  O3_18 
REMARK    8  A    between atoms: C16_24  and  O4_25 
ROOT
HETATM    1  C3  UNL     1     -12.788  24.227 -36.556  1.00  0.00     0.111 C 
HETATM    2  C9  UNL     1     -11.583  23.799 -37.169  1.00  0.00    -0.016 C 
HETATM    3  C10 UNL     1     -10.863  22.594 -36.559  1.00  0.00     0.052 C 
ENDROOT
BRANCH   2   4
HETATM    4  C11 UNL     1     -10.689  24.556 -38.054  1.00  0.00     0.010 A 
HETATM    5  C12 UNL     1     -10.752  24.447 -39.464  1.00  0.00     0.053 A 
HETATM    6  C13 UNL     1     -10.016  25.212 -40.333  1.00  0.00     0.090 A 
HETATM    7  C14 UNL     1      -9.145  26.161 -39.863  1.00  0.00     0.091 A 
HETATM    8 CL1  UNL     1      -8.174  27.163 -40.929  1.00  0.00    -0.079 Cl
HETATM    9  C15 UNL     1      -9.050  26.299 -38.501  1.00  0.00     0.092 A 
HETATM   10 CL2  UNL     1      -7.927  27.512 -37.889  1.00  0.00    -0.079 Cl
HETATM   11  C16 UNL     1      -9.792  25.526 -37.621  1.00  0.00     0.100 A 
BRANCH   6  12
HETATM   12  O3  UNL     1     -10.138  25.043 -41.704  1.00  0.00    -0.359 OA
ATOM     13  H3  UNL     1     -10.763  25.556 -42.203  1.00  0.00     0.217 HD
ENDBRANCH   6  12
BRANCH  11  14
HETATM   14  O4  UNL     1      -9.588  25.751 -36.295  1.00  0.00    -0.358 OA
ATOM     15  H4  UNL     1      -8.830  26.237 -35.991  1.00  0.00     0.217 HD
ENDBRANCH  11  14
ENDBRANCH   2   4
BRANCH   1  16
HETATM   16  N1  UNL     1     -13.888  23.474 -36.743  1.00  0.00    -0.385 N 
ATOM     17  H1  UNL     1     -14.104  22.843 -35.972  1.00  0.00     0.159 HD
BRANCH  16  18
HETATM   18  C2  UNL     1     -14.772  23.409 -37.797  1.00  0.00     0.115 C 
HETATM   19  C1  UNL     1     -16.199  23.263 -37.202  1.00  0.00     0.026 C 
ENDBRANCH  16  18
ENDBRANCH   1  16
BRANCH   1  20
HETATM   20  C4  UNL     1     -13.113  25.315 -35.657  1.00  0.00     0.311 C 
HETATM   21  O1  UNL     1     -14.172  25.955 -35.562  1.00  0.00    -0.258 OA
BRANCH  20  22
HETATM   22  O2  UNL     1     -12.139  25.780 -34.723  1.00  0.00    -0.306 OA
BRANCH  22  23
HETATM   23  C5  UNL     1     -12.250  25.323 -33.385  1.00  0.00     0.060 C 
HETATM   24  C6  UNL     1     -13.553  25.679 -32.749  1.00  0.00     0.046 C 
HETATM   25  C7  UNL     1     -11.892  23.895 -33.208  1.00  0.00     0.046 C 
HETATM   26  C8  UNL     1     -11.185  26.166 -32.627  1.00  0.00     0.046 C 
ENDBRANCH  22  23
ENDBRANCH  20  22
ENDBRANCH   1  20
TORSDOF 8
ENDMDL
MODEL 5
REMARK VINA RESULT: -7.159391009      2.916      4.308
REMARK  8 active torsions:
REMARK  status: ('A' for Active; 'I' for Inactive)
REMARK    1  A    between atoms: C2_2  and  N1_3 
REMARK    2  A    between atoms: N1_3  and  C3_5 
REMARK    3  A    between atoms: C3_5  and  C4_6 
REMARK    4  A    between atoms: C4_6  and  O2_8 
REMARK    5  A    between atoms: O2_8  and  C5_9 
REMARK    6  A    between atoms: C9_13  and  C11_15 
REMARK    7  A    between atoms: C13_17  and  O3_18 
REMARK    8  A    between atoms: C16_24  and  O4_25 
ROOT
HETATM    1  C3  UNL     1     -12.554  24.186 -36.787  1.00  0.00     0.111 C 
HETATM    2  C9  UNL     1     -11.847  23.629 -37.884  1.00  0.00    -0.016 C 
HETATM    3  C10 UNL     1     -11.418  22.163 -37.782  1.00  0.00     0.052 C 
ENDROOT
BRANCH   2   4
HETATM    4  C11 UNL     1     -11.103  24.326 -38.941  1.00  0.00     0.010 A 
HETATM    5  C12 UNL     1     -11.670  24.599 -40.208  1.00  0.00     0.053 A 
HETATM    6  C13 UNL     1     -11.058  25.341 -41.186  1.00  0.00     0.090 A 
HETATM    7  C14 UNL     1      -9.813  25.878 -40.979  1.00  0.00     0.091 A 
HETATM    8 CL1  UNL     1      -8.980  26.829 -42.199  1.00  0.00    -0.079 Cl
HETATM    9  C15 UNL     1      -9.224  25.634 -39.764  1.00  0.00     0.092 A 
HETATM   10 CL2  UNL     1      -7.621  26.316 -39.494  1.00  0.00    -0.079 Cl
HETATM   11  C16 UNL     1      -9.841  24.885 -38.775  1.00  0.00     0.100 A 
BRANCH   6  12
HETATM   12  O3  UNL     1     -11.684  25.565 -42.403  1.00  0.00    -0.359 OA
ATOM     13  H3  UNL     1     -11.176  25.662 -43.200  1.00  0.00     0.217 HD
ENDBRANCH   6  12
BRANCH  11  14
HETATM   14  O4  UNL     1      -9.139  24.703 -37.624  1.00  0.00    -0.358 OA
ATOM     15  H4  UNL     1      -8.778  25.442 -37.149  1.00  0.00     0.217 HD
ENDBRANCH  11  14
ENDBRANCH   2   4
BRANCH   1  16
HETATM   16  N1  UNL     1     -13.838  23.821 -36.620  1.00  0.00    -0.385 N 
ATOM     17  H1  UNL     1     -13.963  22.893 -36.213  1.00  0.00     0.159 HD
BRANCH  16  18
HETATM   18  C2  UNL     1     -15.012  24.482 -36.902  1.00  0.00     0.115 C 
HETATM   19  C1  UNL     1     -16.123  23.411 -37.072  1.00  0.00     0.026 C 
ENDBRANCH  16  18
ENDBRANCH   1  16
BRANCH   1  20
HETATM   20  C4  UNL     1     -12.167  25.054 -35.695  1.00  0.00     0.311 C 
HETATM   21  O1  UNL     1     -12.155  26.294 -35.655  1.00  0.00    -0.258 OA
BRANCH  20  22
HETATM   22  O2  UNL     1     -11.722  24.491 -34.462  1.00  0.00    -0.306 OA
BRANCH  22  23
HETATM   23  C5  UNL     1     -12.336  24.960 -33.272  1.00  0.00     0.060 C 
HETATM   24  C6  UNL     1     -11.593  26.087 -32.634  1.00  0.00     0.046 C 
HETATM   25  C7  UNL     1     -13.787  25.231 -33.413  1.00  0.00     0.046 C 
HETATM   26  C8  UNL     1     -12.180  23.763 -32.291  1.00  0.00     0.046 C 
ENDBRANCH  22  23
ENDBRANCH  20  22
ENDBRANCH   1  20
TORSDOF 8
ENDMDL
