MODEL 1
REMARK VINA RESULT: -8.703425976      0.000      0.000
REMARK  7 active torsions:
REMARK  status: ('A' for Active; 'I' for Inactive)
REMARK    1  A    between atoms: C2_2  and  C3_3 
REMARK    2  A    between atoms: C3_3  and  C4_4 
REMARK       I    between atoms: C4_4  and  N1_6 
REMARK    3  A    between atoms: N1_6  and  N2_8 
REMARK    4  A    between atoms: C5_10  and  C6_11 
REMARK    5  A    between atoms: C7_12  and  O2_13 
REMARK    6  A    between atoms: N4_19  and  C9_20 
REMARK    7  A    between atoms: C14_25  and  C15_26 
ROOT
HETATM    1  C6  UNL     1     -11.093  24.346 -36.430  1.00  0.00     0.105 A 
HETATM    2  C7  UNL     1     -10.015  24.955 -36.972  1.00  0.00     0.171 A 
HETATM    3  N3  UNL     1      -9.956  26.214 -36.510  1.00  0.00    -0.312 N 
ATOM      4  H3  UNL     1      -9.253  26.915 -36.742  1.00  0.00     0.170 HD
HETATM    5  C8  UNL     1     -10.995  26.370 -35.690  1.00  0.00     0.181 A 
HETATM    6  S1  UNL     1     -11.305  27.763 -34.909  1.00  0.00    -0.040 SA
HETATM    7  N4  UNL     1     -11.720  25.244 -35.611  1.00  0.00    -0.314 N 
ENDROOT
BRANCH   1   8
HETATM    8  C5  UNL     1     -11.542  22.981 -36.652  1.00  0.00     0.141 C 
HETATM    9  N2  UNL     1     -11.263  21.910 -36.127  1.00  0.00    -0.307 N 
ATOM     10  H2  UNL     1     -11.800  21.164 -36.570  1.00  0.00     0.186 HD
BRANCH   9  11
HETATM   11  N1  UNL     1     -10.498  21.398 -35.178  1.00  0.00    -0.270 N 
HETATM   12  C4  UNL     1      -9.061  21.516 -35.105  1.00  0.00     0.235 C 
HETATM   13  O1  UNL     1      -8.475  22.153 -36.003  1.00  0.00    -0.272 OA
ATOM     14  H1  UNL     1     -10.962  20.875 -34.436  1.00  0.00     0.190 HD
BRANCH  12  15
HETATM   15  C3  UNL     1      -8.288  20.909 -34.004  1.00  0.00     0.104 C 
BRANCH  15  16
HETATM   16  C2  UNL     1      -7.198  19.996 -34.512  1.00  0.00     0.005 C 
HETATM   17  C1  UNL     1      -5.875  20.716 -34.563  1.00  0.00     0.005 C 
ENDBRANCH  15  16
ENDBRANCH  12  15
ENDBRANCH   9  11
ENDBRANCH   1   8
BRANCH   2  18
HETATM   18  O2  UNL     1      -9.041  24.473 -37.875  1.00  0.00    -0.344 OA
ATOM     19  H2  UNL     1      -8.557  24.919 -38.560  1.00  0.00     0.219 HD
ENDBRANCH   2  18
BRANCH   7  20
HETATM   20  C9  UNL     1     -12.906  25.070 -34.815  1.00  0.00     0.102 C 
HETATM   21  C10 UNL     1     -14.084  25.849 -35.363  1.00  0.00     0.026 C 
HETATM   22  C11 UNL     1     -14.858  26.566 -34.302  1.00  0.00     0.002 C 
HETATM   23  C12 UNL     1     -15.059  25.834 -33.029  1.00  0.00     0.001 C 
HETATM   24  C13 UNL     1     -14.001  24.819 -32.689  1.00  0.00     0.012 C 
HETATM   25  C14 UNL     1     -12.704  25.338 -33.338  1.00  0.00     0.074 C 
BRANCH  25  26
HETATM   26  C15 UNL     1     -11.537  24.556 -32.827  1.00  0.00     0.359 C 
HETATM   27  F1  UNL     1     -11.359  24.799 -31.478  1.00  0.00    -0.214 F 
HETATM   28  F2  UNL     1     -11.832  23.193 -32.965  1.00  0.00    -0.214 F 
ENDBRANCH  25  26
ENDBRANCH   7  20
TORSDOF 7
ENDMDL
MODEL 2
REMARK VINA RESULT: -8.619936866      3.562      5.636
REMARK  7 active torsions:
REMARK  status: ('A' for Active; 'I' for Inactive)
REMARK    1  A    between atoms: C2_2  and  C3_3 
REMARK    2  A    between atoms: C3_3  and  C4_4 
REMARK       I    between atoms: C4_4  and  N1_6 
REMARK    3  A    between atoms: N1_6  and  N2_8 
REMARK    4  A    between atoms: C5_10  and  C6_11 
REMARK    5  A    between atoms: C7_12  and  O2_13 
REMARK    6  A    between atoms: N4_19  and  C9_20 
REMARK    7  A    between atoms: C14_25  and  C15_26 
ROOT
HETATM    1  C6  UNL     1     -10.746  26.958 -35.686  1.00  0.00     0.105 A 
HETATM    2  C7  UNL     1      -9.706  26.798 -36.534  1.00  0.00     0.171 A 
HETATM    3  N3  UNL     1      -9.686  25.523 -36.953  1.00  0.00    -0.312 N 
ATOM      4  H3  UNL     1      -9.017  25.104 -37.599  1.00  0.00     0.170 HD
HETATM    5  C8  UNL     1     -10.712  24.910 -36.362  1.00  0.00     0.181 A 
HETATM    6  S1  UNL     1     -11.056  23.337 -36.592  1.00  0.00    -0.040 SA
HETATM    7  N4  UNL     1     -11.390  25.757 -35.574  1.00  0.00    -0.314 N 
ENDROOT
BRANCH   1   8
HETATM    8  C5  UNL     1     -11.143  28.173 -34.994  1.00  0.00     0.141 C 
HETATM    9  N2  UNL     1     -10.527  29.159 -34.608  1.00  0.00    -0.307 N 
ATOM     10  H2  UNL     1     -11.172  29.808 -34.157  1.00  0.00     0.186 HD
BRANCH   9  11
HETATM   11  N1  UNL     1      -9.305  29.662 -34.580  1.00  0.00    -0.270 N 
HETATM   12  C4  UNL     1      -8.954  30.990 -34.135  1.00  0.00     0.235 C 
HETATM   13  O1  UNL     1      -9.869  31.739 -33.738  1.00  0.00    -0.272 OA
ATOM     14  H1  UNL     1      -8.546  29.062 -34.901  1.00  0.00     0.190 HD
BRANCH  12  15
HETATM   15  C3  UNL     1      -7.557  31.467 -34.140  1.00  0.00     0.104 C 
BRANCH  15  16
HETATM   16  C2  UNL     1      -7.089  31.839 -35.526  1.00  0.00     0.005 C 
HETATM   17  C1  UNL     1      -6.129  30.809 -36.063  1.00  0.00     0.005 C 
ENDBRANCH  15  16
ENDBRANCH  12  15
ENDBRANCH   9  11
ENDBRANCH   1   8
BRANCH   2  18
HETATM   18  O2  UNL     1      -8.734  27.719 -36.986  1.00  0.00    -0.344 OA
ATOM     19  H2  UNL     1      -8.056  27.630 -37.646  1.00  0.00     0.219 HD
ENDBRANCH   2  18
BRANCH   7  20
HETATM   20  C9  UNL     1     -12.551  25.421 -34.792  1.00  0.00     0.102 C 
HETATM   21  C10 UNL     1     -13.833  25.918 -35.428  1.00  0.00     0.026 C 
HETATM   22  C11 UNL     1     -14.767  26.554 -34.447  1.00  0.00     0.002 C 
HETATM   23  C12 UNL     1     -14.875  25.897 -33.123  1.00  0.00     0.001 C 
HETATM   24  C13 UNL     1     -13.658  25.131 -32.678  1.00  0.00     0.012 C 
HETATM   25  C14 UNL     1     -12.459  25.835 -33.338  1.00  0.00     0.074 C 
BRANCH  25  26
HETATM   26  C15 UNL     1     -11.186  25.331 -32.739  1.00  0.00     0.359 C 
HETATM   27  F1  UNL     1     -10.330  26.387 -32.485  1.00  0.00    -0.214 F 
HETATM   28  F2  UNL     1     -11.489  24.742 -31.505  1.00  0.00    -0.214 F 
ENDBRANCH  25  26
ENDBRANCH   7  20
TORSDOF 7
ENDMDL
MODEL 3
REMARK VINA RESULT: -8.483497284      3.656      5.110
REMARK  7 active torsions:
REMARK  status: ('A' for Active; 'I' for Inactive)
REMARK    1  A    between atoms: C2_2  and  C3_3 
REMARK    2  A    between atoms: C3_3  and  C4_4 
REMARK       I    between atoms: C4_4  and  N1_6 
REMARK    3  A    between atoms: N1_6  and  N2_8 
REMARK    4  A    between atoms: C5_10  and  C6_11 
REMARK    5  A    between atoms: C7_12  and  O2_13 
REMARK    6  A    between atoms: N4_19  and  C9_20 
REMARK    7  A    between atoms: C14_25  and  C15_26 
ROOT
HETATM    1  C6  UNL     1     -11.022  26.910 -34.375  1.00  0.00     0.105 A 
HETATM    2  C7  UNL     1     -10.255  27.274 -33.324  1.00  0.00     0.171 A 
HETATM    3  N3  UNL     1     -10.406  26.365 -32.348  1.00  0.00    -0.312 N 
ATOM      4  H3  UNL     1      -9.954  26.372 -31.433  1.00  0.00     0.170 HD
HETATM    5  C8  UNL     1     -11.263  25.452 -32.805  1.00  0.00     0.181 A 
HETATM    6  S1  UNL     1     -11.732  24.162 -31.931  1.00  0.00    -0.040 SA
HETATM    7  N4  UNL     1     -11.666  25.749 -34.049  1.00  0.00    -0.314 N 
ENDROOT
BRANCH   1   8
HETATM    8  C5  UNL     1     -11.167  27.603 -35.646  1.00  0.00     0.141 C 
HETATM    9  N2  UNL     1     -10.600  27.500 -36.727  1.00  0.00    -0.307 N 
ATOM     10  H2  UNL     1     -10.993  28.176 -37.382  1.00  0.00     0.186 HD
BRANCH   9  11
HETATM   11  N1  UNL     1      -9.649  26.806 -37.327  1.00  0.00    -0.270 N 
HETATM   12  C4  UNL     1      -8.521  27.366 -38.033  1.00  0.00     0.235 C 
HETATM   13  O1  UNL     1      -8.418  28.608 -38.090  1.00  0.00    -0.272 OA
ATOM     14  H1  UNL     1      -9.718  25.790 -37.290  1.00  0.00     0.190 HD
BRANCH  12  15
HETATM   15  C3  UNL     1      -7.505  26.510 -38.675  1.00  0.00     0.104 C 
BRANCH  15  16
HETATM   16  C2  UNL     1      -6.773  27.230 -39.783  1.00  0.00     0.005 C 
HETATM   17  C1  UNL     1      -5.368  27.576 -39.361  1.00  0.00     0.005 C 
ENDBRANCH  15  16
ENDBRANCH  12  15
ENDBRANCH   9  11
ENDBRANCH   1   8
BRANCH   2  18
HETATM   18  O2  UNL     1      -9.399  28.384 -33.147  1.00  0.00    -0.344 OA
ATOM     19  H2  UNL     1      -8.506  28.434 -32.826  1.00  0.00     0.219 HD
ENDBRANCH   2  18
BRANCH   7  20
HETATM   20  C9  UNL     1     -12.588  24.972 -34.835  1.00  0.00     0.102 C 
HETATM   21  C10 UNL     1     -11.901  24.251 -35.976  1.00  0.00     0.026 C 
HETATM   22  C11 UNL     1     -12.654  24.342 -37.267  1.00  0.00     0.002 C 
HETATM   23  C12 UNL     1     -14.128  24.222 -37.175  1.00  0.00     0.001 C 
HETATM   24  C13 UNL     1     -14.736  24.660 -35.870  1.00  0.00     0.012 C 
HETATM   25  C14 UNL     1     -13.795  25.748 -35.318  1.00  0.00     0.074 C 
BRANCH  25  26
HETATM   26  C15 UNL     1     -14.451  26.447 -34.172  1.00  0.00     0.359 C 
HETATM   27  F1  UNL     1     -15.495  27.230 -34.628  1.00  0.00    -0.214 F 
HETATM   28  F2  UNL     1     -15.004  25.476 -33.328  1.00  0.00    -0.214 F 
ENDBRANCH  25  26
ENDBRANCH   7  20
TORSDOF 7
ENDMDL
MODEL 4
REMARK VINA RESULT: -8.409732342      2.241      3.435
REMARK  7 active torsions:
REMARK  status: ('A' for Active; 'I' for Inactive)
REMARK    1  A    between atoms: C2_2  and  C3_3 
REMARK    2  A    between atoms: C3_3  and  C4_4 
REMARK       I    between atoms: C4_4  and  N1_6 
REMARK    3  A    between atoms: N1_6  and  N2_8 
REMARK    4  A    between atoms: C5_10  and  C6_11 
REMARK    5  A    between atoms: C7_12  and  O2_13 
REMARK    6  A    between atoms: N4_19  and  C9_20 
REMARK    7  A    between atoms: C14_25  and  C15_26 
ROOT
HETATM    1  C6  UNL     1     -11.190  24.205 -36.254  1.00  0.00     0.105 A 
HETATM    2  C7  UNL     1     -10.123  24.791 -36.841  1.00  0.00     0.171 A 
HETATM    3  N3  UNL     1     -10.060  26.070 -36.438  1.00  0.00    -0.312 N 
ATOM      4  H3  UNL     1      -9.362  26.762 -36.713  1.00  0.00     0.170 HD
HETATM    5  C8  UNL     1     -11.085  26.261 -35.608  1.00  0.00     0.181 A 
HETATM    6  S1  UNL     1     -11.387  27.687 -34.887  1.00  0.00    -0.040 SA
HETATM    7  N4  UNL     1     -11.806  25.139 -35.467  1.00  0.00    -0.314 N 
ENDROOT
BRANCH   1   8
HETATM    8  C5  UNL     1     -11.639  22.831 -36.406  1.00  0.00     0.141 C 
HETATM    9  N2  UNL     1     -11.479  21.987 -37.280  1.00  0.00    -0.307 N 
ATOM     10  H2  UNL     1     -11.960  21.128 -37.016  1.00  0.00     0.186 HD
BRANCH   9  11
HETATM   11  N1  UNL     1     -10.891  21.820 -38.452  1.00  0.00    -0.270 N 
HETATM   12  C4  UNL     1     -11.550  21.410 -39.670  1.00  0.00     0.235 C 
HETATM   13  O1  UNL     1     -12.777  21.192 -39.631  1.00  0.00    -0.272 OA
ATOM     14  H1  UNL     1      -9.888  21.995 -38.500  1.00  0.00     0.190 HD
BRANCH  12  15
HETATM   15  C3  UNL     1     -10.809  21.249 -40.936  1.00  0.00     0.104 C 
BRANCH  15  16
HETATM   16  C2  UNL     1     -11.167  22.315 -41.944  1.00  0.00     0.005 C 
HETATM   17  C1  UNL     1     -10.579  23.645 -41.548  1.00  0.00     0.005 C 
ENDBRANCH  15  16
ENDBRANCH  12  15
ENDBRANCH   9  11
ENDBRANCH   1   8
BRANCH   2  18
HETATM   18  O2  UNL     1      -9.163  24.271 -37.738  1.00  0.00    -0.344 OA
ATOM     19  H2  UNL     1      -9.270  23.799 -38.555  1.00  0.00     0.219 HD
ENDBRANCH   2  18
BRANCH   7  20
HETATM   20  C9  UNL     1     -12.978  24.998 -34.644  1.00  0.00     0.102 C 
HETATM   21  C10 UNL     1     -14.165  25.754 -35.203  1.00  0.00     0.026 C 
HETATM   22  C11 UNL     1     -14.922  26.516 -34.160  1.00  0.00     0.002 C 
HETATM   23  C12 UNL     1     -15.101  25.837 -32.855  1.00  0.00     0.001 C 
HETATM   24  C13 UNL     1     -14.037  24.836 -32.491  1.00  0.00     0.012 C 
HETATM   25  C14 UNL     1     -12.752  25.327 -33.183  1.00  0.00     0.074 C 
BRANCH  25  26
HETATM   26  C15 UNL     1     -11.576  24.566 -32.660  1.00  0.00     0.359 C 
HETATM   27  F1  UNL     1     -11.504  24.691 -31.285  1.00  0.00    -0.214 F 
HETATM   28  F2  UNL     1     -11.777  23.208 -32.939  1.00  0.00    -0.214 F 
ENDBRANCH  25  26
ENDBRANCH   7  20
TORSDOF 7
ENDMDL
MODEL 5
REMARK VINA RESULT: -8.352270194      3.052      4.905
REMARK  7 active torsions:
REMARK  status: ('A' for Active; 'I' for Inactive)
REMARK    1  A    between atoms: C2_2  and  C3_3 
REMARK    2  A    between atoms: C3_3  and  C4_4 
REMARK       I    between atoms: C4_4  and  N1_6 
REMARK    3  A    between atoms: N1_6  and  N2_8 
REMARK    4  A    between atoms: C5_10  and  C6_11 
REMARK    5  A    between atoms: C7_12  and  O2_13 
REMARK    6  A    between atoms: N4_19  and  C9_20 
REMARK    7  A    between atoms: C14_25  and  C15_26 
ROOT
HETATM    1  C6  UNL     1     -10.684  25.734 -36.269  1.00  0.00     0.105 A 
HETATM    2  C7  UNL     1      -9.786  25.243 -37.153  1.00  0.00     0.171 A 
HETATM    3  N3  UNL     1     -10.101  23.966 -37.420  1.00  0.00    -0.312 N 
ATOM      4  H3  UNL     1      -9.606  23.336 -38.051  1.00  0.00     0.170 HD
HETATM    5  C8  UNL     1     -11.187  23.681 -36.701  1.00  0.00     0.181 A 
HETATM    6  S1  UNL     1     -11.907  22.223 -36.725  1.00  0.00    -0.040 SA
HETATM    7  N4  UNL     1     -11.579  24.741 -35.979  1.00  0.00    -0.314 N 
ENDROOT
BRANCH   1   8
HETATM    8  C5  UNL     1     -10.726  27.072 -35.702  1.00  0.00     0.141 C 
HETATM    9  N2  UNL     1      -9.917  27.991 -35.659  1.00  0.00    -0.307 N 
ATOM     10  H2  UNL     1     -10.328  28.782 -35.164  1.00  0.00     0.186 HD
BRANCH   9  11
HETATM   11  N1  UNL     1      -8.690  28.299 -36.041  1.00  0.00    -0.270 N 
HETATM   12  C4  UNL     1      -7.934  29.444 -35.591  1.00  0.00     0.235 C 
HETATM   13  O1  UNL     1      -8.469  30.219 -34.773  1.00  0.00    -0.272 OA
ATOM     14  H1  UNL     1      -8.238  27.676 -36.710  1.00  0.00     0.190 HD
BRANCH  12  15
HETATM   15  C3  UNL     1      -6.565  29.709 -36.074  1.00  0.00     0.104 C 
BRANCH  15  16
HETATM   16  C2  UNL     1      -6.546  30.146 -37.519  1.00  0.00     0.005 C 
HETATM   17  C1  UNL     1      -5.858  29.118 -38.381  1.00  0.00     0.005 C 
ENDBRANCH  15  16
ENDBRANCH  12  15
ENDBRANCH   9  11
ENDBRANCH   1   8
BRANCH   2  18
HETATM   18  O2  UNL     1      -8.669  25.853 -37.767  1.00  0.00    -0.344 OA
ATOM     19  H2  UNL     1      -7.877  26.218 -37.389  1.00  0.00     0.219 HD
ENDBRANCH   2  18
BRANCH   7  20
HETATM   20  C9  UNL     1     -12.714  24.776 -35.096  1.00  0.00     0.102 C 
HETATM   21  C10 UNL     1     -13.843  25.622 -35.646  1.00  0.00     0.026 C 
HETATM   22  C11 UNL     1     -14.459  26.520 -34.619  1.00  0.00     0.002 C 
HETATM   23  C12 UNL     1     -14.640  25.941 -33.267  1.00  0.00     0.001 C 
HETATM   24  C13 UNL     1     -13.670  24.854 -32.891  1.00  0.00     0.012 C 
HETATM   25  C14 UNL     1     -12.378  25.162 -33.671  1.00  0.00     0.074 C 
BRANCH  25  26
HETATM   26  C15 UNL     1     -11.264  24.310 -33.155  1.00  0.00     0.359 C 
HETATM   27  F1  UNL     1     -11.020  24.600 -31.826  1.00  0.00    -0.214 F 
HETATM   28  F2  UNL     1     -11.674  22.972 -33.215  1.00  0.00    -0.214 F 
ENDBRANCH  25  26
ENDBRANCH   7  20
TORSDOF 7
ENDMDL
