MODEL 1
REMARK VINA RESULT: -8.360651460      0.000      0.000
REMARK  11 active torsions:
REMARK  status: ('A' for Active; 'I' for Inactive)
REMARK    1  A    between atoms: O1_2  and  C2_3 
REMARK    2  A    between atoms: C2_3  and  C3_4 
REMARK    3  A    between atoms: C5_6  and  N1_7 
REMARK       I    between atoms: N1_7  and  C6_9 
REMARK    4  A    between atoms: C8_12  and  O3_13 
REMARK    5  A    between atoms: C9_15  and  O4_16 
REMARK    6  A    between atoms: O4_16  and  C10_17 
REMARK    7  A    between atoms: C13_21  and  O6_22 
REMARK    8  A    between atoms: C14_24  and  O7_25 
REMARK    9  A    between atoms: C15_27  and  N2_28 
REMARK   10  A    between atoms: N2_28  and  C16_30 
REMARK   11  A    between atoms: C21_35  and  O8_36 
ROOT
HETATM    1  C10 UNL     1      28.730   6.136  11.437  1.00  0.00     0.288 C 
HETATM    2  O5  UNL     1      29.305   6.553  12.691  1.00  0.00    -0.351 OA
HETATM    3  C11 UNL     1      30.330   5.777  13.111  1.00  0.00     0.152 C 
HETATM    4  C12 UNL     1      30.604   6.068  14.553  1.00  0.00     0.042 C 
HETATM    5  C13 UNL     1      29.953   4.333  12.871  1.00  0.00     0.177 C 
HETATM    6  C14 UNL     1      30.168   4.094  11.399  1.00  0.00     0.176 C 
HETATM    7  C15 UNL     1      29.653   5.339  10.661  1.00  0.00     0.164 C 
ENDROOT
BRANCH   1   8
HETATM    8  O4  UNL     1      28.332   7.346  10.902  1.00  0.00    -0.327 OA
BRANCH   8   9
HETATM    9  C9  UNL     1      26.939   7.444  10.839  1.00  0.00     0.294 C 
HETATM   10  C8  UNL     1      26.370   8.381   9.852  1.00  0.00     0.196 C 
HETATM   11  C5  UNL     1      25.067   9.023  10.367  1.00  0.00     0.120 C 
HETATM   12  C4  UNL     1      24.336   7.999  11.192  1.00  0.00     0.062 C 
HETATM   13  C3  UNL     1      25.237   7.532  12.298  1.00  0.00     0.150 C 
HETATM   14  O9  UNL     1      26.536   7.979  12.114  1.00  0.00    -0.351 OA
BRANCH  10  15
HETATM   15  O3  UNL     1      27.198   9.463   9.558  1.00  0.00    -0.389 OA
ATOM     16  H3  UNL     1      28.049   9.074   9.401  1.00  0.00     0.210 HD
ENDBRANCH  10  15
BRANCH  11  17
HETATM   17  N1  UNL     1      24.322   9.408   9.181  1.00  0.00    -0.354 N 
HETATM   18  C6  UNL     1      22.950   9.126   8.985  1.00  0.00     0.214 C 
HETATM   19  C7  UNL     1      22.308   9.574   7.726  1.00  0.00     0.117 C 
HETATM   20  O2  UNL     1      22.249   8.513   9.823  1.00  0.00    -0.274 OA
ATOM     21  H1  UNL     1      24.817   9.912   8.446  1.00  0.00     0.162 HD
ENDBRANCH  11  17
BRANCH  13  22
HETATM   22  C2  UNL     1      24.700   7.877  13.666  1.00  0.00     0.199 C 
BRANCH  22  23
HETATM   23  O1  UNL     1      23.572   8.660  13.630  1.00  0.00    -0.393 OA
HETATM   24  C1  UNL     1      22.565   7.996  14.330  1.00  0.00     0.201 C 
ENDBRANCH  22  23
ENDBRANCH  13  22
ENDBRANCH   8   9
ENDBRANCH   1   8
BRANCH   7  25
HETATM   25  N2  UNL     1      29.181   4.860   9.419  1.00  0.00    -0.404 N 
ATOM     26  H2  UNL     1      28.718   5.510   8.784  1.00  0.00     0.154 HD
BRANCH  25  27
HETATM   27  C16 UNL     1      29.327   3.527   9.030  1.00  0.00     0.105 C 
HETATM   28  C17 UNL     1      28.219   3.030   8.112  1.00  0.00     0.027 C 
HETATM   29  C18 UNL     1      28.234   3.679   6.761  1.00  0.00     0.002 C 
HETATM   30  C19 UNL     1      29.443   3.137   5.997  1.00  0.00     0.003 C 
HETATM   31  C20 UNL     1      30.423   2.536   6.983  1.00  0.00     0.034 C 
HETATM   32  C21 UNL     1      30.612   3.423   8.194  1.00  0.00     0.140 C 
BRANCH  32  33
HETATM   33  O8  UNL     1      31.073   4.645   7.768  1.00  0.00    -0.394 OA
ATOM     34  H8  UNL     1      31.235   5.248   8.484  1.00  0.00     0.210 HD
ENDBRANCH  32  33
ENDBRANCH  25  27
ENDBRANCH   7  25
BRANCH   6  35
HETATM   35  O7  UNL     1      31.524   3.960  11.168  1.00  0.00    -0.391 OA
ATOM     36  H7  UNL     1      31.664   3.864  10.233  1.00  0.00     0.210 HD
ENDBRANCH   6  35
BRANCH   5  37
HETATM   37  O6  UNL     1      30.667   3.452  13.668  1.00  0.00    -0.390 OA
ATOM     38  H6  UNL     1      30.726   2.581  13.293  1.00  0.00     0.210 HD
ENDBRANCH   5  37
TORSDOF 11
ENDMDL
MODEL 2
REMARK VINA RESULT: -7.963985794      2.270      5.078
REMARK  11 active torsions:
REMARK  status: ('A' for Active; 'I' for Inactive)
REMARK    1  A    between atoms: O1_2  and  C2_3 
REMARK    2  A    between atoms: C2_3  and  C3_4 
REMARK    3  A    between atoms: C5_6  and  N1_7 
REMARK       I    between atoms: N1_7  and  C6_9 
REMARK    4  A    between atoms: C8_12  and  O3_13 
REMARK    5  A    between atoms: C9_15  and  O4_16 
REMARK    6  A    between atoms: O4_16  and  C10_17 
REMARK    7  A    between atoms: C13_21  and  O6_22 
REMARK    8  A    between atoms: C14_24  and  O7_25 
REMARK    9  A    between atoms: C15_27  and  N2_28 
REMARK   10  A    between atoms: N2_28  and  C16_30 
REMARK   11  A    between atoms: C21_35  and  O8_36 
ROOT
HETATM    1  C10 UNL     1      28.881   4.352   9.965  1.00  0.00     0.288 C 
HETATM    2  O5  UNL     1      28.268   3.845   8.763  1.00  0.00    -0.351 OA
HETATM    3  C11 UNL     1      29.124   3.193   7.943  1.00  0.00     0.152 C 
HETATM    4  C12 UNL     1      28.486   3.033   6.599  1.00  0.00     0.042 C 
HETATM    5  C13 UNL     1      30.412   3.982   7.886  1.00  0.00     0.177 C 
HETATM    6  C14 UNL     1      31.143   3.662   9.163  1.00  0.00     0.176 C 
HETATM    7  C15 UNL     1      30.098   3.642  10.289  1.00  0.00     0.164 C 
ENDROOT
BRANCH   1   8
HETATM    8  O4  UNL     1      27.836   4.262  10.865  1.00  0.00    -0.327 OA
BRANCH   8   9
HETATM    9  C9  UNL     1      27.431   5.524  11.306  1.00  0.00     0.294 C 
HETATM   10  C8  UNL     1      26.409   6.226  10.506  1.00  0.00     0.196 C 
HETATM   11  C5  UNL     1      26.627   7.752  10.524  1.00  0.00     0.120 C 
HETATM   12  C4  UNL     1      27.157   8.132  11.879  1.00  0.00     0.062 C 
HETATM   13  C3  UNL     1      28.415   7.357  12.146  1.00  0.00     0.150 C 
HETATM   14  O9  UNL     1      28.601   6.358  11.204  1.00  0.00    -0.351 OA
BRANCH  10  15
HETATM   15  O3  UNL     1      26.422   5.889   9.154  1.00  0.00    -0.389 OA
ATOM     16  H3  UNL     1      27.245   5.432   9.031  1.00  0.00     0.210 HD
ENDBRANCH  10  15
BRANCH  11  17
HETATM   17  N1  UNL     1      25.326   8.339  10.256  1.00  0.00    -0.354 N 
HETATM   18  C6  UNL     1      25.046   9.161   9.140  1.00  0.00     0.214 C 
HETATM   19  C7  UNL     1      23.673   9.698   8.984  1.00  0.00     0.117 C 
HETATM   20  O2  UNL     1      25.902   9.459   8.275  1.00  0.00    -0.274 OA
ATOM     21  H1  UNL     1      24.569   8.147  10.912  1.00  0.00     0.162 HD
ENDBRANCH  11  17
BRANCH  13  22
HETATM   22  C2  UNL     1      29.625   8.249  12.284  1.00  0.00     0.199 C 
BRANCH  22  23
HETATM   23  O1  UNL     1      30.731   7.600  12.773  1.00  0.00    -0.393 OA
HETATM   24  C1  UNL     1      30.783   7.814  14.150  1.00  0.00     0.201 C 
ENDBRANCH  22  23
ENDBRANCH  13  22
ENDBRANCH   8   9
ENDBRANCH   1   8
BRANCH   7  25
HETATM   25  N2  UNL     1      30.791   4.074  11.441  1.00  0.00    -0.404 N 
ATOM     26  H2  UNL     1      31.100   5.045  11.495  1.00  0.00     0.154 HD
BRANCH  25  27
HETATM   27  C16 UNL     1      31.070   3.219  12.508  1.00  0.00     0.105 C 
HETATM   28  C17 UNL     1      32.480   3.364  13.062  1.00  0.00     0.027 C 
HETATM   29  C18 UNL     1      32.717   4.680  13.738  1.00  0.00     0.002 C 
HETATM   30  C19 UNL     1      31.940   4.674  15.055  1.00  0.00     0.003 C 
HETATM   31  C20 UNL     1      30.874   3.599  14.996  1.00  0.00     0.034 C 
HETATM   32  C21 UNL     1      30.145   3.609  13.672  1.00  0.00     0.140 C 
BRANCH  32  33
HETATM   33  O8  UNL     1      29.567   4.844  13.504  1.00  0.00    -0.394 OA
ATOM     34  H8  UNL     1      30.039   5.536  13.951  1.00  0.00     0.210 HD
ENDBRANCH  32  33
ENDBRANCH  25  27
ENDBRANCH   7  25
BRANCH   6  35
HETATM   35  O7  UNL     1      31.705   2.404   9.046  1.00  0.00    -0.391 OA
ATOM     36  H7  UNL     1      31.920   2.087   9.915  1.00  0.00     0.210 HD
ENDBRANCH   6  35
BRANCH   5  37
HETATM   37  O6  UNL     1      31.161   3.705   6.753  1.00  0.00    -0.390 OA
ATOM     38  H6  UNL     1      32.093   3.824   6.891  1.00  0.00     0.210 HD
ENDBRANCH   5  37
TORSDOF 11
ENDMDL
MODEL 3
REMARK VINA RESULT: -7.851708688      2.236      4.983
REMARK  11 active torsions:
REMARK  status: ('A' for Active; 'I' for Inactive)
REMARK    1  A    between atoms: O1_2  and  C2_3 
REMARK    2  A    between atoms: C2_3  and  C3_4 
REMARK    3  A    between atoms: C5_6  and  N1_7 
REMARK       I    between atoms: N1_7  and  C6_9 
REMARK    4  A    between atoms: C8_12  and  O3_13 
REMARK    5  A    between atoms: C9_15  and  O4_16 
REMARK    6  A    between atoms: O4_16  and  C10_17 
REMARK    7  A    between atoms: C13_21  and  O6_22 
REMARK    8  A    between atoms: C14_24  and  O7_25 
REMARK    9  A    between atoms: C15_27  and  N2_28 
REMARK   10  A    between atoms: N2_28  and  C16_30 
REMARK   11  A    between atoms: C21_35  and  O8_36 
ROOT
HETATM    1  C10 UNL     1      29.024   4.211  10.142  1.00  0.00     0.288 C 
HETATM    2  O5  UNL     1      28.523   4.130   8.793  1.00  0.00    -0.351 OA
HETATM    3  C11 UNL     1      29.374   3.535   7.926  1.00  0.00     0.152 C 
HETATM    4  C12 UNL     1      28.927   3.823   6.528  1.00  0.00     0.042 C 
HETATM    5  C13 UNL     1      30.768   4.049   8.209  1.00  0.00     0.177 C 
HETATM    6  C14 UNL     1      31.239   3.302   9.429  1.00  0.00     0.176 C 
HETATM    7  C15 UNL     1      30.048   3.222  10.397  1.00  0.00     0.164 C 
ENDROOT
BRANCH   1   8
HETATM    8  O4  UNL     1      27.856   4.117  10.874  1.00  0.00    -0.327 OA
BRANCH   8   9
HETATM    9  C9  UNL     1      27.411   5.373  11.292  1.00  0.00     0.294 C 
HETATM   10  C8  UNL     1      26.358   6.021  10.487  1.00  0.00     0.196 C 
HETATM   11  C5  UNL     1      26.522   7.553  10.467  1.00  0.00     0.120 C 
HETATM   12  C4  UNL     1      27.052   7.984  11.809  1.00  0.00     0.062 C 
HETATM   13  C3  UNL     1      28.338   7.259  12.079  1.00  0.00     0.150 C 
HETATM   14  O9  UNL     1      28.550   6.245  11.159  1.00  0.00    -0.351 OA
BRANCH  10  15
HETATM   15  O3  UNL     1      26.369   5.654   9.143  1.00  0.00    -0.389 OA
ATOM     16  H3  UNL     1      25.724   4.960   9.081  1.00  0.00     0.210 HD
ENDBRANCH  10  15
BRANCH  11  17
HETATM   17  N1  UNL     1      25.198   8.088  10.200  1.00  0.00    -0.354 N 
HETATM   18  C6  UNL     1      24.914   9.011   9.167  1.00  0.00     0.214 C 
HETATM   19  C7  UNL     1      23.518   9.480   9.001  1.00  0.00     0.117 C 
HETATM   20  O2  UNL     1      25.786   9.452   8.382  1.00  0.00    -0.274 OA
ATOM     21  H1  UNL     1      24.428   7.781  10.793  1.00  0.00     0.162 HD
ENDBRANCH  11  17
BRANCH  13  22
HETATM   22  C2  UNL     1      29.517   8.196  12.185  1.00  0.00     0.199 C 
BRANCH  22  23
HETATM   23  O1  UNL     1      30.642   7.604  12.704  1.00  0.00    -0.393 OA
HETATM   24  C1  UNL     1      30.723   7.942  14.054  1.00  0.00     0.201 C 
ENDBRANCH  22  23
ENDBRANCH  13  22
ENDBRANCH   8   9
ENDBRANCH   1   8
BRANCH   7  25
HETATM   25  N2  UNL     1      30.622   3.228  11.687  1.00  0.00    -0.404 N 
ATOM     26  H2  UNL     1      30.875   2.338  12.117  1.00  0.00     0.154 HD
BRANCH  25  27
HETATM   27  C16 UNL     1      30.856   4.408  12.394  1.00  0.00     0.105 C 
HETATM   28  C17 UNL     1      30.026   4.540  13.662  1.00  0.00     0.027 C 
HETATM   29  C18 UNL     1      30.400   3.547  14.720  1.00  0.00     0.002 C 
HETATM   30  C19 UNL     1      31.763   3.955  15.280  1.00  0.00     0.003 C 
HETATM   31  C20 UNL     1      32.446   4.883  14.296  1.00  0.00     0.034 C 
HETATM   32  C21 UNL     1      32.315   4.383  12.875  1.00  0.00     0.140 C 
BRANCH  32  33
HETATM   33  O8  UNL     1      32.880   3.133  12.801  1.00  0.00    -0.394 OA
ATOM     34  H8  UNL     1      32.850   2.665  13.627  1.00  0.00     0.210 HD
ENDBRANCH  32  33
ENDBRANCH  25  27
ENDBRANCH   7  25
BRANCH   6  35
HETATM   35  O7  UNL     1      31.600   2.023   9.050  1.00  0.00    -0.391 OA
ATOM     36  H7  UNL     1      30.919   1.669   8.490  1.00  0.00     0.210 HD
ENDBRANCH   6  35
BRANCH   5  37
HETATM   37  O6  UNL     1      31.622   3.905   7.128  1.00  0.00    -0.390 OA
ATOM     38  H6  UNL     1      32.510   4.185   7.321  1.00  0.00     0.210 HD
ENDBRANCH   5  37
TORSDOF 11
ENDMDL
MODEL 4
REMARK VINA RESULT: -7.657685163      1.188      2.718
REMARK  11 active torsions:
REMARK  status: ('A' for Active; 'I' for Inactive)
REMARK    1  A    between atoms: O1_2  and  C2_3 
REMARK    2  A    between atoms: C2_3  and  C3_4 
REMARK    3  A    between atoms: C5_6  and  N1_7 
REMARK       I    between atoms: N1_7  and  C6_9 
REMARK    4  A    between atoms: C8_12  and  O3_13 
REMARK    5  A    between atoms: C9_15  and  O4_16 
REMARK    6  A    between atoms: O4_16  and  C10_17 
REMARK    7  A    between atoms: C13_21  and  O6_22 
REMARK    8  A    between atoms: C14_24  and  O7_25 
REMARK    9  A    between atoms: C15_27  and  N2_28 
REMARK   10  A    between atoms: N2_28  and  C16_30 
REMARK   11  A    between atoms: C21_35  and  O8_36 
ROOT
HETATM    1  C10 UNL     1      28.823   6.382  11.474  1.00  0.00     0.288 C 
HETATM    2  O5  UNL     1      29.571   6.788  12.637  1.00  0.00    -0.351 OA
HETATM    3  C11 UNL     1      30.353   5.813  13.156  1.00  0.00     0.152 C 
HETATM    4  C12 UNL     1      30.789   6.216  14.529  1.00  0.00     0.042 C 
HETATM    5  C13 UNL     1      29.562   4.525  13.151  1.00  0.00     0.177 C 
HETATM    6  C14 UNL     1      29.606   4.024  11.731  1.00  0.00     0.176 C 
HETATM    7  C15 UNL     1      29.427   5.245  10.816  1.00  0.00     0.164 C 
ENDROOT
BRANCH   1   8
HETATM    8  O4  UNL     1      28.758   7.565  10.763  1.00  0.00    -0.327 OA
BRANCH   8   9
HETATM    9  C9  UNL     1      27.574   8.257  11.029  1.00  0.00     0.294 C 
HETATM   10  C8  UNL     1      26.714   7.738  12.110  1.00  0.00     0.196 C 
HETATM   11  C5  UNL     1      25.220   7.967  11.803  1.00  0.00     0.120 C 
HETATM   12  C4  UNL     1      25.089   9.273  11.069  1.00  0.00     0.062 C 
HETATM   13  C3  UNL     1      25.940   9.225   9.834  1.00  0.00     0.150 C 
HETATM   14  O9  UNL     1      26.775   8.119   9.839  1.00  0.00    -0.351 OA
BRANCH  10  15
HETATM   15  O3  UNL     1      26.821   6.363  12.306  1.00  0.00    -0.389 OA
ATOM     16  H3  UNL     1      27.692   6.147  11.996  1.00  0.00     0.210 HD
ENDBRANCH  10  15
BRANCH  11  17
HETATM   17  N1  UNL     1      24.553   7.991  13.093  1.00  0.00    -0.354 N 
HETATM   18  C6  UNL     1      23.148   7.956  13.256  1.00  0.00     0.214 C 
HETATM   19  C7  UNL     1      22.594   7.987  14.630  1.00  0.00     0.117 C 
HETATM   20  O2  UNL     1      22.348   7.902  12.293  1.00  0.00    -0.274 OA
ATOM     21  H1  UNL     1      25.131   8.035  13.932  1.00  0.00     0.162 HD
ENDBRANCH  11  17
BRANCH  13  22
HETATM   22  C2  UNL     1      25.126   9.325   8.566  1.00  0.00     0.199 C 
BRANCH  22  23
HETATM   23  O1  UNL     1      23.868   8.787   8.680  1.00  0.00    -0.393 OA
HETATM   24  C1  UNL     1      22.955   9.719   8.189  1.00  0.00     0.201 C 
ENDBRANCH  22  23
ENDBRANCH  13  22
ENDBRANCH   8   9
ENDBRANCH   1   8
BRANCH   7  25
HETATM   25  N2  UNL     1      28.760   4.752   9.673  1.00  0.00    -0.404 N 
ATOM     26  H2  UNL     1      28.121   5.369   9.171  1.00  0.00     0.154 HD
BRANCH  25  27
HETATM   27  C16 UNL     1      28.945   3.450   9.206  1.00  0.00     0.105 C 
HETATM   28  C17 UNL     1      28.107   3.111   7.981  1.00  0.00     0.027 C 
HETATM   29  C18 UNL     1      28.518   3.868   6.755  1.00  0.00     0.002 C 
HETATM   30  C19 UNL     1      29.863   3.307   6.291  1.00  0.00     0.003 C 
HETATM   31  C20 UNL     1      30.509   2.557   7.437  1.00  0.00     0.034 C 
HETATM   32  C21 UNL     1      30.402   3.324   8.736  1.00  0.00     0.140 C 
BRANCH  32  33
HETATM   33  O8  UNL     1      31.017   4.542   8.573  1.00  0.00    -0.394 OA
ATOM     34  H8  UNL     1      31.962   4.493   8.657  1.00  0.00     0.210 HD
ENDBRANCH  32  33
ENDBRANCH  25  27
ENDBRANCH   7  25
BRANCH   6  35
HETATM   35  O7  UNL     1      30.849   3.464  11.501  1.00  0.00    -0.391 OA
ATOM     36  H7  UNL     1      30.740   2.530  11.368  1.00  0.00     0.210 HD
ENDBRANCH   6  35
BRANCH   5  37
HETATM   37  O6  UNL     1      30.040   3.598  14.064  1.00  0.00    -0.390 OA
ATOM     38  H6  UNL     1      30.226   3.981  14.913  1.00  0.00     0.210 HD
ENDBRANCH   5  37
TORSDOF 11
ENDMDL
MODEL 5
REMARK VINA RESULT: -7.649071056      2.174      3.140
REMARK  11 active torsions:
REMARK  status: ('A' for Active; 'I' for Inactive)
REMARK    1  A    between atoms: O1_2  and  C2_3 
REMARK    2  A    between atoms: C2_3  and  C3_4 
REMARK    3  A    between atoms: C5_6  and  N1_7 
REMARK       I    between atoms: N1_7  and  C6_9 
REMARK    4  A    between atoms: C8_12  and  O3_13 
REMARK    5  A    between atoms: C9_15  and  O4_16 
REMARK    6  A    between atoms: O4_16  and  C10_17 
REMARK    7  A    between atoms: C13_21  and  O6_22 
REMARK    8  A    between atoms: C14_24  and  O7_25 
REMARK    9  A    between atoms: C15_27  and  N2_28 
REMARK   10  A    between atoms: N2_28  and  C16_30 
REMARK   11  A    between atoms: C21_35  and  O8_36 
ROOT
HETATM    1  C10 UNL     1      29.349   3.581  11.321  1.00  0.00     0.288 C 
HETATM    2  O5  UNL     1      29.200   3.784  12.740  1.00  0.00    -0.351 OA
HETATM    3  C11 UNL     1      30.345   4.137  13.368  1.00  0.00     0.152 C 
HETATM    4  C12 UNL     1      30.164   3.969  14.843  1.00  0.00     0.042 C 
HETATM    5  C13 UNL     1      31.464   3.283  12.817  1.00  0.00     0.177 C 
HETATM    6  C14 UNL     1      31.823   3.887  11.485  1.00  0.00     0.176 C 
HETATM    7  C15 UNL     1      30.505   4.274  10.796  1.00  0.00     0.164 C 
ENDROOT
BRANCH   1   8
HETATM    8  O4  UNL     1      28.109   3.976  10.856  1.00  0.00    -0.327 OA
BRANCH   8   9
HETATM    9  C9  UNL     1      27.753   5.232  11.353  1.00  0.00     0.294 C 
HETATM   10  C8  UNL     1      26.672   5.955  10.656  1.00  0.00     0.196 C 
HETATM   11  C5  UNL     1      26.902   7.479  10.681  1.00  0.00     0.120 C 
HETATM   12  C4  UNL     1      27.549   7.832  11.992  1.00  0.00     0.062 C 
HETATM   13  C3  UNL     1      28.819   7.044  12.136  1.00  0.00     0.150 C 
HETATM   14  O9  UNL     1      28.916   6.061  11.165  1.00  0.00    -0.351 OA
BRANCH  10  15
HETATM   15  O3  UNL     1      26.565   5.642   9.302  1.00  0.00    -0.389 OA
ATOM     16  H3  UNL     1      25.883   4.983   9.264  1.00  0.00     0.210 HD
ENDBRANCH  10  15
BRANCH  11  17
HETATM   17  N1  UNL     1      25.587   8.078  10.537  1.00  0.00    -0.354 N 
HETATM   18  C6  UNL     1      25.234   8.963   9.492  1.00  0.00     0.214 C 
HETATM   19  C7  UNL     1      23.855   9.507   9.460  1.00  0.00     0.117 C 
HETATM   20  O2  UNL     1      26.030   9.312   8.590  1.00  0.00    -0.274 OA
ATOM     21  H1  UNL     1      24.876   7.847  11.230  1.00  0.00     0.162 HD
ENDBRANCH  11  17
BRANCH  13  22
HETATM   22  C2  UNL     1      30.043   7.926  12.185  1.00  0.00     0.199 C 
BRANCH  22  23
HETATM   23  O1  UNL     1      31.097   7.364  12.862  1.00  0.00    -0.393 OA
HETATM   24  C1  UNL     1      30.864   7.517  14.228  1.00  0.00     0.201 C 
ENDBRANCH  22  23
ENDBRANCH  13  22
ENDBRANCH   8   9
ENDBRANCH   1   8
BRANCH   7  25
HETATM   25  N2  UNL     1      30.756   4.125   9.415  1.00  0.00    -0.404 N 
ATOM     26  H2  UNL     1      31.233   4.877   8.917  1.00  0.00     0.154 HD
BRANCH  25  27
HETATM   27  C16 UNL     1      30.373   2.985   8.706  1.00  0.00     0.105 C 
HETATM   28  C17 UNL     1      28.930   3.016   8.225  1.00  0.00     0.027 C 
HETATM   29  C18 UNL     1      28.679   4.051   7.170  1.00  0.00     0.002 C 
HETATM   30  C19 UNL     1      29.354   3.576   5.882  1.00  0.00     0.003 C 
HETATM   31  C20 UNL     1      30.390   2.525   6.224  1.00  0.00     0.034 C 
HETATM   32  C21 UNL     1      31.218   2.927   7.424  1.00  0.00     0.140 C 
BRANCH  32  33
HETATM   33  O8  UNL     1      31.842   4.118   7.142  1.00  0.00    -0.394 OA
ATOM     34  H8  UNL     1      32.498   4.354   7.786  1.00  0.00     0.210 HD
ENDBRANCH  32  33
ENDBRANCH  25  27
ENDBRANCH   7  25
BRANCH   6  35
HETATM   35  O7  UNL     1      32.570   5.029  11.707  1.00  0.00    -0.391 OA
ATOM     36  H7  UNL     1      32.363   5.662  11.029  1.00  0.00     0.210 HD
ENDBRANCH   6  35
BRANCH   5  37
HETATM   37  O6  UNL     1      32.547   3.197  13.678  1.00  0.00    -0.390 OA
ATOM     38  H6  UNL     1      33.229   2.620  13.355  1.00  0.00     0.210 HD
ENDBRANCH   5  37
TORSDOF 11
ENDMDL
