MODEL 1
REMARK VINA RESULT: -7.379002842      0.000      0.000
REMARK  13 active torsions:
REMARK  status: ('A' for Active; 'I' for Inactive)
REMARK    1  A    between atoms: C2_2  and  C3_3 
REMARK    2  A    between atoms: C5_6  and  C6_7 
REMARK    3  A    between atoms: C6_7  and  O2_8 
REMARK    4  A    between atoms: C7_10  and  O3_11 
REMARK    5  A    between atoms: C8_13  and  O4_14 
REMARK    6  A    between atoms: O4_14  and  C9_15 
REMARK    7  A    between atoms: C10_16  and  N1_17 
REMARK    8  A    between atoms: C12_22  and  N2_23 
REMARK    9  A    between atoms: C13_27  and  O5_28 
REMARK   10  A    between atoms: O5_28  and  C14_29 
REMARK   11  A    between atoms: C19_34  and  N3_35 
REMARK   12  A    between atoms: C20_39  and  N4_40 
REMARK   13  A    between atoms: N4_40  and  C21_42 
ROOT
HETATM    1  C9  UNL     1      27.934   5.626  10.210  1.00  0.00     0.180 C 
HETATM    2  C10 UNL     1      27.647   4.482   9.292  1.00  0.00     0.216 C 
HETATM    3  C11 UNL     1      28.866   3.821   8.725  1.00  0.00     0.071 C 
HETATM    4  C12 UNL     1      30.149   4.378   9.307  1.00  0.00     0.216 C 
HETATM    5  C13 UNL     1      30.087   4.421  10.808  1.00  0.00     0.177 C 
HETATM    6  C20 UNL     1      29.049   5.452  11.177  1.00  0.00     0.139 C 
ENDROOT
BRANCH   1   7
HETATM    7  O4  UNL     1      26.783   5.929  10.926  1.00  0.00    -0.349 OA
BRANCH   7   8
HETATM    8  C8  UNL     1      26.525   7.252  11.122  1.00  0.00     0.295 C 
HETATM    9  C7  UNL     1      25.809   7.761   9.869  1.00  0.00     0.204 C 
HETATM   10  C5  UNL     1      24.421   8.254  10.242  1.00  0.00     0.182 C 
HETATM   11  O1  UNL     1      24.608   9.227  11.195  1.00  0.00    -0.342 OA
HETATM   12  C3  UNL     1      25.130   8.687  12.334  1.00  0.00     0.182 C 
HETATM   13  C4  UNL     1      24.044   8.500  13.414  1.00  0.00     0.084 C 
HETATM   14  O6  UNL     1      25.802   7.521  12.261  1.00  0.00    -0.319 OA
BRANCH   9  15
HETATM   15  O3  UNL     1      26.480   8.853   9.317  1.00  0.00    -0.388 OA
ATOM     16  H3  UNL     1      26.008   9.086   8.527  1.00  0.00     0.210 HD
ENDBRANCH   9  15
BRANCH  10  17
HETATM   17  C6  UNL     1      23.749   8.909   9.052  1.00  0.00     0.199 C 
BRANCH  17  18
HETATM   18  O2  UNL     1      22.381   8.682   9.023  1.00  0.00    -0.398 OA
ATOM     19  H2  UNL     1      21.894   9.330   9.519  1.00  0.00     0.209 HD
ENDBRANCH  17  18
ENDBRANCH  10  17
BRANCH  12  20
HETATM   20  C2  UNL     1      26.044   9.734  12.919  1.00  0.00     0.030 C 
HETATM   21  C1  UNL     1      26.325  10.849  12.257  1.00  0.00     0.012 C 
ENDBRANCH  12  20
ENDBRANCH   7   8
ENDBRANCH   1   7
BRANCH   2  22
HETATM   22  N1  UNL     1      26.905   3.463  10.014  1.00  0.00    -0.072 N 
ATOM     23  H13 UNL     1      27.469   2.636  10.204  1.00  0.00     0.274 HD
ATOM     24  H12 UNL     1      26.716   3.733  10.980  1.00  0.00     0.274 HD
ATOM     25  H11 UNL     1      26.053   3.241   9.501  1.00  0.00     0.274 HD
ENDBRANCH   2  22
BRANCH   6  26
HETATM   26  N4  UNL     1      29.676   6.619  11.641  1.00  0.00    -0.413 N 
ATOM     27  H4  UNL     1      30.443   7.016  11.099  1.00  0.00     0.153 HD
BRANCH  26  28
HETATM   28  C21 UNL     1      29.283   7.253  12.822  1.00  0.00     0.110 C 
HETATM   29  C22 UNL     1      30.581   7.696  13.532  1.00  0.00     0.026 C 
ENDBRANCH  26  28
ENDBRANCH   6  26
BRANCH   5  30
HETATM   30  O5  UNL     1      31.303   4.878  11.293  1.00  0.00    -0.374 OA
BRANCH  30  31
HETATM   31  C14 UNL     1      31.507   4.672  12.624  1.00  0.00     0.152 C 
HETATM   32  C15 UNL     1      32.908   5.032  13.082  1.00  0.00     0.034 C 
HETATM   33  C16 UNL     1      32.814   5.128  14.611  1.00  0.00     0.003 C 
HETATM   34  C17 UNL     1      31.884   4.078  15.158  1.00  0.00     0.002 C 
HETATM   35  C18 UNL     1      31.982   2.861  14.275  1.00  0.00     0.035 C 
HETATM   36  C19 UNL     1      31.302   3.215  12.952  1.00  0.00     0.212 C 
BRANCH  36  37
HETATM   37  N3  UNL     1      31.777   2.345  11.888  1.00  0.00    -0.073 N 
ATOM     38  H33 UNL     1      31.907   2.861  11.019  1.00  0.00     0.274 HD
ATOM     39  H32 UNL     1      32.741   2.056  12.051  1.00  0.00     0.274 HD
ATOM     40  H31 UNL     1      31.167   1.539  11.752  1.00  0.00     0.274 HD
ENDBRANCH  36  37
ENDBRANCH  30  31
ENDBRANCH   5  30
BRANCH   4  41
HETATM   41  N2  UNL     1      31.219   3.560   8.783  1.00  0.00    -0.072 N 
ATOM     42  H23 UNL     1      30.911   2.897   8.071  1.00  0.00     0.274 HD
ATOM     43  H22 UNL     1      31.875   4.077   8.197  1.00  0.00     0.274 HD
ATOM     44  H21 UNL     1      31.659   3.116   9.588  1.00  0.00     0.274 HD
ENDBRANCH   4  41
TORSDOF 13
ENDMDL
MODEL 2
REMARK VINA RESULT: -6.535107014      0.828      1.257
REMARK  13 active torsions:
REMARK  status: ('A' for Active; 'I' for Inactive)
REMARK    1  A    between atoms: C2_2  and  C3_3 
REMARK    2  A    between atoms: C5_6  and  C6_7 
REMARK    3  A    between atoms: C6_7  and  O2_8 
REMARK    4  A    between atoms: C7_10  and  O3_11 
REMARK    5  A    between atoms: C8_13  and  O4_14 
REMARK    6  A    between atoms: O4_14  and  C9_15 
REMARK    7  A    between atoms: C10_16  and  N1_17 
REMARK    8  A    between atoms: C12_22  and  N2_23 
REMARK    9  A    between atoms: C13_27  and  O5_28 
REMARK   10  A    between atoms: O5_28  and  C14_29 
REMARK   11  A    between atoms: C19_34  and  N3_35 
REMARK   12  A    between atoms: C20_39  and  N4_40 
REMARK   13  A    between atoms: N4_40  and  C21_42 
ROOT
HETATM    1  C9  UNL     1      27.834   5.609   9.893  1.00  0.00     0.180 C 
HETATM    2  C10 UNL     1      27.699   4.365   9.076  1.00  0.00     0.216 C 
HETATM    3  C11 UNL     1      28.993   3.663   8.796  1.00  0.00     0.071 C 
HETATM    4  C12 UNL     1      30.164   4.302   9.514  1.00  0.00     0.216 C 
HETATM    5  C13 UNL     1      29.855   4.511  10.969  1.00  0.00     0.177 C 
HETATM    6  C20 UNL     1      28.773   5.561  11.044  1.00  0.00     0.139 C 
ENDROOT
BRANCH   1   7
HETATM    7  O4  UNL     1      26.581   5.972  10.372  1.00  0.00    -0.349 OA
BRANCH   7   8
HETATM    8  C8  UNL     1      26.430   7.276  10.736  1.00  0.00     0.295 C 
HETATM    9  C7  UNL     1      25.907   8.028   9.511  1.00  0.00     0.204 C 
HETATM   10  C5  UNL     1      24.539   8.613   9.820  1.00  0.00     0.182 C 
HETATM   11  O1  UNL     1      24.712   9.419  10.920  1.00  0.00    -0.342 OA
HETATM   12  C3  UNL     1      25.053   8.673  12.010  1.00  0.00     0.182 C 
HETATM   13  C4  UNL     1      23.842   8.459  12.943  1.00  0.00     0.084 C 
HETATM   14  O6  UNL     1      25.616   7.462  11.829  1.00  0.00    -0.319 OA
BRANCH   9  15
HETATM   15  O3  UNL     1      26.734   9.105   9.194  1.00  0.00    -0.388 OA
ATOM     16  H3  UNL     1      26.902   9.049   8.260  1.00  0.00     0.210 HD
ENDBRANCH   9  15
BRANCH  10  17
HETATM   17  C6  UNL     1      24.067   9.496   8.682  1.00  0.00     0.199 C 
BRANCH  17  18
HETATM   18  O2  UNL     1      22.940   8.991   8.050  1.00  0.00    -0.398 OA
ATOM     19  H2  UNL     1      23.148   8.549   7.234  1.00  0.00     0.209 HD
ENDBRANCH  17  18
ENDBRANCH  10  17
BRANCH  12  20
HETATM   20  C2  UNL     1      25.992   9.523  12.828  1.00  0.00     0.030 C 
HETATM   21  C1  UNL     1      26.401  10.708  12.395  1.00  0.00     0.012 C 
ENDBRANCH  12  20
ENDBRANCH   7   8
ENDBRANCH   1   7
BRANCH   2  22
HETATM   22  N1  UNL     1      26.845   3.422   9.777  1.00  0.00    -0.072 N 
ATOM     23  H13 UNL     1      27.379   2.703  10.264  1.00  0.00     0.274 HD
ATOM     24  H12 UNL     1      26.392   3.840  10.589  1.00  0.00     0.274 HD
ATOM     25  H11 UNL     1      26.172   3.025   9.121  1.00  0.00     0.274 HD
ENDBRANCH   2  22
BRANCH   6  26
HETATM   26  N4  UNL     1      29.319   6.782  11.470  1.00  0.00    -0.413 N 
ATOM     27  H4  UNL     1      30.060   7.211  10.917  1.00  0.00     0.153 HD
BRANCH  26  28
HETATM   28  C21 UNL     1      28.878   7.429  12.627  1.00  0.00     0.110 C 
HETATM   29  C22 UNL     1      30.144   7.919  13.362  1.00  0.00     0.026 C 
ENDBRANCH  26  28
ENDBRANCH   6  26
BRANCH   5  30
HETATM   30  O5  UNL     1      30.975   5.039  11.593  1.00  0.00    -0.374 OA
BRANCH  30  31
HETATM   31  C14 UNL     1      31.381   4.373  12.710  1.00  0.00     0.152 C 
HETATM   32  C15 UNL     1      30.334   4.342  13.807  1.00  0.00     0.034 C 
HETATM   33  C16 UNL     1      30.796   3.239  14.769  1.00  0.00     0.003 C 
HETATM   34  C17 UNL     1      32.296   3.233  14.896  1.00  0.00     0.002 C 
HETATM   35  C18 UNL     1      32.783   4.653  14.756  1.00  0.00     0.035 C 
HETATM   36  C19 UNL     1      32.600   5.043  13.289  1.00  0.00     0.212 C 
BRANCH  36  37
HETATM   37  N3  UNL     1      32.544   6.489  13.151  1.00  0.00    -0.073 N 
ATOM     38  H33 UNL     1      32.082   6.760  12.284  1.00  0.00     0.274 HD
ATOM     39  H32 UNL     1      31.890   6.898  13.818  1.00  0.00     0.274 HD
ATOM     40  H31 UNL     1      33.467   6.916  13.228  1.00  0.00     0.274 HD
ENDBRANCH  36  37
ENDBRANCH  30  31
ENDBRANCH   5  30
BRANCH   4  41
HETATM   41  N2  UNL     1      31.303   3.447   9.269  1.00  0.00    -0.072 N 
ATOM     42  H23 UNL     1      32.034   3.894   8.716  1.00  0.00     0.274 HD
ATOM     43  H22 UNL     1      31.866   3.272  10.102  1.00  0.00     0.274 HD
ATOM     44  H21 UNL     1      30.935   2.597   8.843  1.00  0.00     0.274 HD
ENDBRANCH   4  41
TORSDOF 13
ENDMDL
MODEL 3
REMARK VINA RESULT: -6.379670445      1.085      1.839
REMARK  13 active torsions:
REMARK  status: ('A' for Active; 'I' for Inactive)
REMARK    1  A    between atoms: C2_2  and  C3_3 
REMARK    2  A    between atoms: C5_6  and  C6_7 
REMARK    3  A    between atoms: C6_7  and  O2_8 
REMARK    4  A    between atoms: C7_10  and  O3_11 
REMARK    5  A    between atoms: C8_13  and  O4_14 
REMARK    6  A    between atoms: O4_14  and  C9_15 
REMARK    7  A    between atoms: C10_16  and  N1_17 
REMARK    8  A    between atoms: C12_22  and  N2_23 
REMARK    9  A    between atoms: C13_27  and  O5_28 
REMARK   10  A    between atoms: O5_28  and  C14_29 
REMARK   11  A    between atoms: C19_34  and  N3_35 
REMARK   12  A    between atoms: C20_39  and  N4_40 
REMARK   13  A    between atoms: N4_40  and  C21_42 
ROOT
HETATM    1  C9  UNL     1      27.984   5.351  10.111  1.00  0.00     0.180 C 
HETATM    2  C10 UNL     1      27.762   4.134   9.273  1.00  0.00     0.216 C 
HETATM    3  C11 UNL     1      29.018   3.481   8.782  1.00  0.00     0.071 C 
HETATM    4  C12 UNL     1      30.265   4.128   9.350  1.00  0.00     0.216 C 
HETATM    5  C13 UNL     1      30.164   4.276  10.841  1.00  0.00     0.177 C 
HETATM    6  C20 UNL     1      29.080   5.290  11.112  1.00  0.00     0.139 C 
ENDROOT
BRANCH   1   7
HETATM    7  O4  UNL     1      26.805   5.660  10.778  1.00  0.00    -0.349 OA
BRANCH   7   8
HETATM    8  C8  UNL     1      26.135   6.762  10.340  1.00  0.00     0.295 C 
HETATM    9  C7  UNL     1      24.733   6.709  10.950  1.00  0.00     0.204 C 
HETATM   10  C5  UNL     1      24.523   7.920  11.845  1.00  0.00     0.182 C 
HETATM   11  O1  UNL     1      24.728   9.020  11.047  1.00  0.00    -0.342 OA
HETATM   12  C3  UNL     1      26.028   9.080  10.640  1.00  0.00     0.182 C 
HETATM   13  C4  UNL     1      26.826  10.113  11.464  1.00  0.00     0.084 C 
HETATM   14  O6  UNL     1      26.765   7.952  10.624  1.00  0.00    -0.319 OA
BRANCH   9  15
HETATM   15  O3  UNL     1      23.753   6.776   9.959  1.00  0.00    -0.388 OA
ATOM     16  H3  UNL     1      22.919   6.658  10.398  1.00  0.00     0.210 HD
ENDBRANCH   9  15
BRANCH  10  17
HETATM   17  C6  UNL     1      23.089   7.977  12.335  1.00  0.00     0.199 C 
BRANCH  17  18
HETATM   18  O2  UNL     1      22.960   7.545  13.647  1.00  0.00    -0.398 OA
ATOM     19  H2  UNL     1      23.758   7.153  13.981  1.00  0.00     0.209 HD
ENDBRANCH  17  18
ENDBRANCH  10  17
BRANCH  12  20
HETATM   20  C2  UNL     1      26.011   9.664   9.250  1.00  0.00     0.030 C 
HETATM   21  C1  UNL     1      24.913   9.637   8.507  1.00  0.00     0.012 C 
ENDBRANCH  12  20
ENDBRANCH   7   8
ENDBRANCH   1   7
BRANCH   2  22
HETATM   22  N1  UNL     1      27.040   3.142  10.051  1.00  0.00    -0.072 N 
ATOM     23  H13 UNL     1      26.213   2.796   9.565  1.00  0.00     0.274 HD
ATOM     24  H12 UNL     1      27.547   2.259  10.117  1.00  0.00     0.274 HD
ATOM     25  H11 UNL     1      26.817   3.530  10.967  1.00  0.00     0.274 HD
ENDBRANCH   2  22
BRANCH   6  26
HETATM   26  N4  UNL     1      29.652   6.511  11.503  1.00  0.00    -0.413 N 
ATOM     27  H4  UNL     1      30.427   6.889  10.959  1.00  0.00     0.153 HD
BRANCH  26  28
HETATM   28  C21 UNL     1      29.193   7.223  12.614  1.00  0.00     0.110 C 
HETATM   29  C22 UNL     1      30.448   7.666  13.397  1.00  0.00     0.026 C 
ENDBRANCH  26  28
ENDBRANCH   6  26
BRANCH   5  30
HETATM   30  O5  UNL     1      31.350   4.813  11.318  1.00  0.00    -0.374 OA
BRANCH  30  31
HETATM   31  C14 UNL     1      31.558   4.656  12.655  1.00  0.00     0.152 C 
HETATM   32  C15 UNL     1      32.960   5.034  13.096  1.00  0.00     0.034 C 
HETATM   33  C16 UNL     1      32.870   5.186  14.621  1.00  0.00     0.003 C 
HETATM   34  C17 UNL     1      31.942   4.156  15.208  1.00  0.00     0.002 C 
HETATM   35  C18 UNL     1      32.039   2.907  14.370  1.00  0.00     0.035 C 
HETATM   36  C19 UNL     1      31.355   3.212  13.037  1.00  0.00     0.212 C 
BRANCH  36  37
HETATM   37  N3  UNL     1      31.828   2.305  12.005  1.00  0.00    -0.073 N 
ATOM     38  H33 UNL     1      31.650   2.679  11.073  1.00  0.00     0.274 HD
ATOM     39  H32 UNL     1      32.847   2.277  11.975  1.00  0.00     0.274 HD
ATOM     40  H31 UNL     1      31.435   1.369  12.109  1.00  0.00     0.274 HD
ENDBRANCH  36  37
ENDBRANCH  30  31
ENDBRANCH   5  30
BRANCH   4  41
HETATM   41  N2  UNL     1      31.377   3.316   8.910  1.00  0.00    -0.072 N 
ATOM     42  H23 UNL     1      31.282   2.986   7.949  1.00  0.00     0.274 HD
ATOM     43  H22 UNL     1      32.238   3.847   8.775  1.00  0.00     0.274 HD
ATOM     44  H21 UNL     1      31.467   2.563   9.591  1.00  0.00     0.274 HD
ENDBRANCH   4  41
TORSDOF 13
ENDMDL
MODEL 4
REMARK VINA RESULT: -5.647600426      0.993      2.346
REMARK  13 active torsions:
REMARK  status: ('A' for Active; 'I' for Inactive)
REMARK    1  A    between atoms: C2_2  and  C3_3 
REMARK    2  A    between atoms: C5_6  and  C6_7 
REMARK    3  A    between atoms: C6_7  and  O2_8 
REMARK    4  A    between atoms: C7_10  and  O3_11 
REMARK    5  A    between atoms: C8_13  and  O4_14 
REMARK    6  A    between atoms: O4_14  and  C9_15 
REMARK    7  A    between atoms: C10_16  and  N1_17 
REMARK    8  A    between atoms: C12_22  and  N2_23 
REMARK    9  A    between atoms: C13_27  and  O5_28 
REMARK   10  A    between atoms: O5_28  and  C14_29 
REMARK   11  A    between atoms: C19_34  and  N3_35 
REMARK   12  A    between atoms: C20_39  and  N4_40 
REMARK   13  A    between atoms: N4_40  and  C21_42 
ROOT
HETATM    1  C9  UNL     1      27.884   5.876  10.560  1.00  0.00     0.180 C 
HETATM    2  C10 UNL     1      27.368   4.900   9.553  1.00  0.00     0.216 C 
HETATM    3  C11 UNL     1      28.433   4.216   8.751  1.00  0.00     0.071 C 
HETATM    4  C12 UNL     1      29.829   4.571   9.222  1.00  0.00     0.216 C 
HETATM    5  C13 UNL     1      29.951   4.412  10.711  1.00  0.00     0.177 C 
HETATM    6  C20 UNL     1      29.081   5.472  11.341  1.00  0.00     0.139 C 
ENDROOT
BRANCH   1   7
HETATM    7  O4  UNL     1      26.865   6.180  11.455  1.00  0.00    -0.349 OA
BRANCH   7   8
HETATM    8  C8  UNL     1      25.936   7.080  11.029  1.00  0.00     0.295 C 
HETATM    9  C7  UNL     1      25.654   8.024  12.199  1.00  0.00     0.204 C 
HETATM   10  C5  UNL     1      26.040   9.442  11.811  1.00  0.00     0.182 C 
HETATM   11  O1  UNL     1      25.309   9.737  10.684  1.00  0.00    -0.342 OA
HETATM   12  C3  UNL     1      25.696   8.948   9.643  1.00  0.00     0.182 C 
HETATM   13  C4  UNL     1      26.620   9.715   8.672  1.00  0.00     0.084 C 
HETATM   14  O6  UNL     1      26.301   7.772   9.898  1.00  0.00    -0.319 OA
BRANCH   9  15
HETATM   15  O3  UNL     1      24.292   8.054  12.502  1.00  0.00    -0.388 OA
ATOM     16  H3  UNL     1      23.913   7.278  12.107  1.00  0.00     0.210 HD
ENDBRANCH   9  15
BRANCH  10  17
HETATM   17  C6  UNL     1      25.624  10.422  12.890  1.00  0.00     0.199 C 
BRANCH  17  18
HETATM   18  O2  UNL     1      25.561   9.835  14.145  1.00  0.00    -0.398 OA
ATOM     19  H2  UNL     1      25.824  10.429  14.838  1.00  0.00     0.209 HD
ENDBRANCH  17  18
ENDBRANCH  10  17
BRANCH  12  20
HETATM   20  C2  UNL     1      24.456   8.685   8.826  1.00  0.00     0.030 C 
HETATM   21  C1  UNL     1      23.268   9.123   9.220  1.00  0.00     0.012 C 
ENDBRANCH  12  20
ENDBRANCH   7   8
ENDBRANCH   1   7
BRANCH   2  22
HETATM   22  N1  UNL     1      26.614   3.862  10.234  1.00  0.00    -0.072 N 
ATOM     23  H13 UNL     1      26.668   2.965   9.753  1.00  0.00     0.274 HD
ATOM     24  H12 UNL     1      27.049   3.580  11.112  1.00  0.00     0.274 HD
ATOM     25  H11 UNL     1      25.652   4.174  10.362  1.00  0.00     0.274 HD
ENDBRANCH   2  22
BRANCH   6  26
HETATM   26  N4  UNL     1      29.880   6.503  11.859  1.00  0.00    -0.413 N 
ATOM     27  H4  UNL     1      30.810   6.650  11.469  1.00  0.00     0.153 HD
BRANCH  26  28
HETATM   28  C21 UNL     1      29.441   7.333  12.893  1.00  0.00     0.110 C 
HETATM   29  C22 UNL     1      30.693   7.704  13.717  1.00  0.00     0.026 C 
ENDBRANCH  26  28
ENDBRANCH   6  26
BRANCH   5  30
HETATM   30  O5  UNL     1      31.259   4.687  11.083  1.00  0.00    -0.374 OA
BRANCH  30  31
HETATM   31  C14 UNL     1      31.526   4.530  12.409  1.00  0.00     0.152 C 
HETATM   32  C15 UNL     1      32.944   4.911  12.788  1.00  0.00     0.034 C 
HETATM   33  C16 UNL     1      32.922   5.062  14.315  1.00  0.00     0.003 C 
HETATM   34  C17 UNL     1      32.024   4.030  14.943  1.00  0.00     0.002 C 
HETATM   35  C18 UNL     1      32.086   2.781  14.100  1.00  0.00     0.035 C 
HETATM   36  C19 UNL     1      31.343   3.085  12.799  1.00  0.00     0.212 C 
BRANCH  36  37
HETATM   37  N3  UNL     1      31.772   2.179  11.747  1.00  0.00    -0.073 N 
ATOM     38  H33 UNL     1      31.278   2.366  10.874  1.00  0.00     0.274 HD
ATOM     39  H32 UNL     1      32.722   2.389  11.443  1.00  0.00     0.274 HD
ATOM     40  H31 UNL     1      31.679   1.202  12.022  1.00  0.00     0.274 HD
ENDBRANCH  36  37
ENDBRANCH  30  31
ENDBRANCH   5  30
BRANCH   4  41
HETATM   41  N2  UNL     1      30.735   3.740   8.462  1.00  0.00    -0.072 N 
ATOM     42  H23 UNL     1      30.270   3.188   7.740  1.00  0.00     0.274 HD
ATOM     43  H22 UNL     1      31.346   4.270   7.840  1.00  0.00     0.274 HD
ATOM     44  H21 UNL     1      31.241   3.174   9.142  1.00  0.00     0.274 HD
ENDBRANCH   4  41
TORSDOF 13
ENDMDL
MODEL 5
REMARK VINA RESULT: -4.895924352      1.728      4.064
REMARK  13 active torsions:
REMARK  status: ('A' for Active; 'I' for Inactive)
REMARK    1  A    between atoms: C2_2  and  C3_3 
REMARK    2  A    between atoms: C5_6  and  C6_7 
REMARK    3  A    between atoms: C6_7  and  O2_8 
REMARK    4  A    between atoms: C7_10  and  O3_11 
REMARK    5  A    between atoms: C8_13  and  O4_14 
REMARK    6  A    between atoms: O4_14  and  C9_15 
REMARK    7  A    between atoms: C10_16  and  N1_17 
REMARK    8  A    between atoms: C12_22  and  N2_23 
REMARK    9  A    between atoms: C13_27  and  O5_28 
REMARK   10  A    between atoms: O5_28  and  C14_29 
REMARK   11  A    between atoms: C19_34  and  N3_35 
REMARK   12  A    between atoms: C20_39  and  N4_40 
REMARK   13  A    between atoms: N4_40  and  C21_42 
ROOT
HETATM    1  C9  UNL     1      29.019   6.947  12.808  1.00  0.00     0.180 C 
HETATM    2  C10 UNL     1      30.125   7.095  13.801  1.00  0.00     0.216 C 
HETATM    3  C11 UNL     1      30.791   5.809  14.183  1.00  0.00     0.071 C 
HETATM    4  C12 UNL     1      30.280   4.632  13.379  1.00  0.00     0.216 C 
HETATM    5  C13 UNL     1      30.286   4.940  11.909  1.00  0.00     0.177 C 
HETATM    6  C20 UNL     1      29.247   6.010  11.677  1.00  0.00     0.139 C 
ENDROOT
BRANCH   1   7
HETATM    7  O4  UNL     1      28.716   8.197  12.280  1.00  0.00    -0.349 OA
BRANCH   7   8
HETATM    8  C8  UNL     1      27.423   8.606  12.400  1.00  0.00     0.295 C 
HETATM    9  C7  UNL     1      27.148   9.574  11.248  1.00  0.00     0.204 C 
HETATM   10  C5  UNL     1      26.050   9.009  10.362  1.00  0.00     0.182 C 
HETATM   11  O1  UNL     1      24.964   8.817  11.183  1.00  0.00    -0.342 OA
HETATM   12  C3  UNL     1      25.229   7.851  12.108  1.00  0.00     0.182 C 
HETATM   13  C4  UNL     1      24.578   6.507  11.717  1.00  0.00     0.084 C 
HETATM   14  O6  UNL     1      26.509   7.578  12.426  1.00  0.00    -0.319 OA
BRANCH   9  15
HETATM   15  O3  UNL     1      26.680  10.799  11.725  1.00  0.00    -0.388 OA
ATOM     16  H3  UNL     1      26.293  10.626  12.575  1.00  0.00     0.210 HD
ENDBRANCH   9  15
BRANCH  10  17
HETATM   17  C6  UNL     1      25.645  10.018   9.306  1.00  0.00     0.199 C 
BRANCH  17  18
HETATM   18  O2  UNL     1      25.173   9.416   8.149  1.00  0.00    -0.398 OA
ATOM     19  H2  UNL     1      25.815   9.423   7.448  1.00  0.00     0.209 HD
ENDBRANCH  17  18
ENDBRANCH  10  17
BRANCH  12  20
HETATM   20  C2  UNL     1      24.496   8.253  13.363  1.00  0.00     0.030 C 
HETATM   21  C1  UNL     1      23.174   8.177  13.441  1.00  0.00     0.012 C 
ENDBRANCH  12  20
ENDBRANCH   7   8
ENDBRANCH   1   7
BRANCH   2  22
HETATM   22  N1  UNL     1      31.153   7.961  13.248  1.00  0.00    -0.072 N 
ATOM     23  H13 UNL     1      30.882   8.357  12.349  1.00  0.00     0.274 HD
ATOM     24  H12 UNL     1      31.245   8.833  13.768  1.00  0.00     0.274 HD
ATOM     25  H11 UNL     1      32.032   7.448  13.195  1.00  0.00     0.274 HD
ENDBRANCH   2  22
BRANCH   6  26
HETATM   26  N4  UNL     1      28.109   5.451  11.075  1.00  0.00    -0.413 N 
ATOM     27  H4  UNL     1      27.628   4.685  11.545  1.00  0.00     0.153 HD
BRANCH  26  28
HETATM   28  C21 UNL     1      27.614   5.913   9.853  1.00  0.00     0.110 C 
HETATM   29  C22 UNL     1      26.436   4.986   9.481  1.00  0.00     0.026 C 
ENDBRANCH  26  28
ENDBRANCH   6  26
BRANCH   5  30
HETATM   30  O5  UNL     1      29.870   3.814  11.214  1.00  0.00    -0.374 OA
BRANCH  30  31
HETATM   31  C14 UNL     1      30.235   3.778   9.903  1.00  0.00     0.152 C 
HETATM   32  C15 UNL     1      29.309   2.941   9.041  1.00  0.00     0.034 C 
HETATM   33  C16 UNL     1      29.629   3.351   7.597  1.00  0.00     0.003 C 
HETATM   34  C17 UNL     1      31.103   3.604   7.426  1.00  0.00     0.002 C 
HETATM   35  C18 UNL     1      31.847   2.673   8.349  1.00  0.00     0.035 C 
HETATM   36  C19 UNL     1      31.612   3.178   9.774  1.00  0.00     0.212 C 
BRANCH  36  37
HETATM   37  N3  UNL     1      31.832   2.109  10.733  1.00  0.00    -0.073 N 
ATOM     38  H33 UNL     1      32.562   2.356  11.401  1.00  0.00     0.274 HD
ATOM     39  H32 UNL     1      31.046   2.022  11.377  1.00  0.00     0.274 HD
ATOM     40  H31 UNL     1      32.035   1.220  10.275  1.00  0.00     0.274 HD
ENDBRANCH  36  37
ENDBRANCH  30  31
ENDBRANCH   5  30
BRANCH   4  41
HETATM   41  N2  UNL     1      31.101   3.502  13.750  1.00  0.00    -0.072 N 
ATOM     42  H23 UNL     1      31.985   3.458  13.242  1.00  0.00     0.274 HD
ATOM     43  H22 UNL     1      31.499   3.580  14.686  1.00  0.00     0.274 HD
ATOM     44  H21 UNL     1      30.520   2.674  13.624  1.00  0.00     0.274 HD
ENDBRANCH   4  41
TORSDOF 13
ENDMDL
