MODEL 1
REMARK VINA RESULT: -9.626175403      0.000      0.000
REMARK  11 active torsions:
REMARK  status: ('A' for Active; 'I' for Inactive)
REMARK       I    between atoms: C2_2  and  N1_4 
REMARK    1  A    between atoms: N1_4  and  C3_6 
REMARK    2  A    between atoms: C4_8  and  C5_9 
REMARK    3  A    between atoms: C5_9  and  O3_10 
REMARK    4  A    between atoms: O3_10  and  S1_11 
REMARK    5  A    between atoms: S1_11  and  N2_14 
REMARK    6  A    between atoms: N2_14  and  N3_16 
REMARK    7  A    between atoms: C6_19  and  C7_20 
REMARK    8  A    between atoms: C7_20  and  N4_21 
REMARK    9  A    between atoms: N4_21  and  C8_23 
REMARK   10  A    between atoms: C17_32  and  O6_33 
REMARK   11  A    between atoms: C18_35  and  O7_36 
ROOT
HETATM    1  C3  UNL     1      28.162   7.679  12.087  1.00  0.00     0.261 C 
HETATM    2  O2  UNL     1      29.481   7.914  11.895  1.00  0.00    -0.325 OA
HETATM    3  C4  UNL     1      30.334   6.832  12.036  1.00  0.00     0.084 C 
HETATM    4  C6  UNL     1      29.843   5.640  11.313  1.00  0.00     0.020 C 
HETATM    5  C17 UNL     1      28.414   5.288  11.618  1.00  0.00     0.188 C 
HETATM    6  C18 UNL     1      27.603   6.524  11.297  1.00  0.00     0.200 C 
ENDROOT
BRANCH   4   7
HETATM    7  C7  UNL     1      30.752   4.470  11.206  1.00  0.00     0.095 C 
BRANCH   7   8
HETATM    8  N4  UNL     1      30.315   3.288  10.649  1.00  0.00    -0.394 N 
ATOM      9  H4  UNL     1      30.025   2.511  11.243  1.00  0.00     0.159 HD
BRANCH   8  10
HETATM   10  C8  UNL     1      30.274   3.169   9.223  1.00  0.00     0.081 C 
HETATM   11  C9  UNL     1      29.614   4.324   8.543  1.00  0.00     0.025 C 
HETATM   12  C10 UNL     1      28.322   4.051   7.891  1.00  0.00     0.002 C 
HETATM   13  C11 UNL     1      28.256   2.885   6.966  1.00  0.00     0.000 C 
HETATM   14  C12 UNL     1      28.905   3.078   5.648  1.00  0.00     0.000 C 
HETATM   15  C13 UNL     1      30.362   3.087   5.559  1.00  0.00     0.000 C 
HETATM   16  C14 UNL     1      31.122   2.214   6.508  1.00  0.00     0.000 C 
HETATM   17  C15 UNL     1      31.984   3.101   7.366  1.00  0.00     0.002 C 
HETATM   18  C16 UNL     1      31.721   2.995   8.824  1.00  0.00     0.025 C 
ENDBRANCH   8  10
ENDBRANCH   7   8
ENDBRANCH   4   7
BRANCH   3  19
HETATM   19  C5  UNL     1      30.876   6.680  13.409  1.00  0.00     0.257 C 
BRANCH  19  20
HETATM   20  O3  UNL     1      31.620   5.523  13.632  1.00  0.00    -0.252 OA
BRANCH  20  21
HETATM   21  S1  UNL     1      30.972   4.704  14.932  1.00  0.00     0.375 S 
HETATM   22  O4  UNL     1      30.172   5.623  15.814  1.00  0.00    -0.174 OA
HETATM   23  O5  UNL     1      32.091   4.121  15.762  1.00  0.00    -0.174 OA
BRANCH  21  24
HETATM   24  N2  UNL     1      29.967   3.396  14.368  1.00  0.00    -0.211 N 
ATOM     25  H2  UNL     1      30.041   2.948  13.455  1.00  0.00     0.201 HD
BRANCH  24  26
HETATM   26  N3  UNL     1      29.031   3.052  15.375  1.00  0.00    -0.334 N 
ATOM     27  H32 UNL     1      29.062   3.396  16.335  1.00  0.00     0.177 HD
ATOM     28  H31 UNL     1      28.333   2.417  14.988  1.00  0.00     0.177 HD
ENDBRANCH  24  26
ENDBRANCH  21  24
ENDBRANCH  20  21
ENDBRANCH  19  20
ENDBRANCH   3  19
BRANCH   5  29
HETATM   29  O6  UNL     1      28.132   4.935  12.906  1.00  0.00    -0.388 OA
ATOM     30  H6  UNL     1      27.314   5.257  13.267  1.00  0.00     0.210 HD
ENDBRANCH   5  29
BRANCH   6  31
HETATM   31  O7  UNL     1      27.556   6.776   9.931  1.00  0.00    -0.388 OA
ATOM     32  H7  UNL     1      27.319   6.009   9.422  1.00  0.00     0.210 HD
ENDBRANCH   6  31
BRANCH   1  33
HETATM   33  N1  UNL     1      27.438   8.867  11.612  1.00  0.00    -0.332 N 
HETATM   34  C2  UNL     1      26.481   9.535  12.429  1.00  0.00     0.215 C 
HETATM   35  C1  UNL     1      25.768  10.728  11.923  1.00  0.00     0.117 C 
HETATM   36  O1  UNL     1      26.226   9.115  13.609  1.00  0.00    -0.274 OA
ATOM     37  H1  UNL     1      27.625   9.222  10.674  1.00  0.00     0.165 HD
ENDBRANCH   1  33
TORSDOF 11
ENDMDL
MODEL 2
REMARK VINA RESULT: -8.372749992      0.628      1.604
REMARK  11 active torsions:
REMARK  status: ('A' for Active; 'I' for Inactive)
REMARK       I    between atoms: C2_2  and  N1_4 
REMARK    1  A    between atoms: N1_4  and  C3_6 
REMARK    2  A    between atoms: C4_8  and  C5_9 
REMARK    3  A    between atoms: C5_9  and  O3_10 
REMARK    4  A    between atoms: O3_10  and  S1_11 
REMARK    5  A    between atoms: S1_11  and  N2_14 
REMARK    6  A    between atoms: N2_14  and  N3_16 
REMARK    7  A    between atoms: C6_19  and  C7_20 
REMARK    8  A    between atoms: C7_20  and  N4_21 
REMARK    9  A    between atoms: N4_21  and  C8_23 
REMARK   10  A    between atoms: C17_32  and  O6_33 
REMARK   11  A    between atoms: C18_35  and  O7_36 
ROOT
HETATM    1  C3  UNL     1      27.894   8.102  12.173  1.00  0.00     0.261 C 
HETATM    2  O2  UNL     1      29.220   8.352  12.063  1.00  0.00    -0.325 OA
HETATM    3  C4  UNL     1      30.069   7.259  12.142  1.00  0.00     0.084 C 
HETATM    4  C6  UNL     1      29.614   6.141  11.291  1.00  0.00     0.020 C 
HETATM    5  C17 UNL     1      28.173   5.763  11.496  1.00  0.00     0.188 C 
HETATM    6  C18 UNL     1      27.374   7.026  11.255  1.00  0.00     0.200 C 
ENDROOT
BRANCH   4   7
HETATM    7  C7  UNL     1      30.530   4.984  11.117  1.00  0.00     0.095 C 
BRANCH   7   8
HETATM    8  N4  UNL     1      30.059   3.777  10.648  1.00  0.00    -0.394 N 
ATOM      9  H4  UNL     1      29.762   3.049  11.298  1.00  0.00     0.159 HD
BRANCH   8  10
HETATM   10  C8  UNL     1      29.992   3.562   9.235  1.00  0.00     0.081 C 
HETATM   11  C9  UNL     1      30.676   2.313   8.785  1.00  0.00     0.025 C 
HETATM   12  C10 UNL     1      31.899   2.486   7.983  1.00  0.00     0.002 C 
HETATM   13  C11 UNL     1      31.824   3.405   6.813  1.00  0.00     0.000 C 
HETATM   14  C12 UNL     1      31.099   2.879   5.632  1.00  0.00     0.000 C 
HETATM   15  C13 UNL     1      29.643   2.783   5.670  1.00  0.00     0.000 C 
HETATM   16  C14 UNL     1      28.897   3.817   6.453  1.00  0.00     0.000 C 
HETATM   17  C15 UNL     1      28.156   3.115   7.560  1.00  0.00     0.002 C 
HETATM   18  C16 UNL     1      28.512   3.570   8.928  1.00  0.00     0.025 C 
ENDBRANCH   8  10
ENDBRANCH   7   8
ENDBRANCH   4   7
BRANCH   3  19
HETATM   19  C5  UNL     1      30.548   6.980  13.519  1.00  0.00     0.257 C 
BRANCH  19  20
HETATM   20  O3  UNL     1      31.340   5.842  13.655  1.00  0.00    -0.252 OA
BRANCH  20  21
HETATM   21  S1  UNL     1      30.726   4.898  14.883  1.00  0.00     0.375 S 
HETATM   22  O4  UNL     1      30.047   5.737  15.930  1.00  0.00    -0.174 OA
HETATM   23  O5  UNL     1      31.856   4.149  15.550  1.00  0.00    -0.174 OA
BRANCH  21  24
HETATM   24  N2  UNL     1      29.603   3.733  14.233  1.00  0.00    -0.211 N 
ATOM     25  H2  UNL     1      29.442   3.561  13.241  1.00  0.00     0.201 HD
BRANCH  24  26
HETATM   26  N3  UNL     1      28.949   3.062  15.296  1.00  0.00    -0.334 N 
ATOM     27  H32 UNL     1      28.516   2.142  15.219  1.00  0.00     0.177 HD
ATOM     28  H31 UNL     1      28.983   3.641  16.136  1.00  0.00     0.177 HD
ENDBRANCH  24  26
ENDBRANCH  21  24
ENDBRANCH  20  21
ENDBRANCH  19  20
ENDBRANCH   3  19
BRANCH   5  29
HETATM   29  O6  UNL     1      27.834   5.293  12.732  1.00  0.00    -0.388 OA
ATOM     30  H6  UNL     1      26.963   4.927  12.824  1.00  0.00     0.210 HD
ENDBRANCH   5  29
BRANCH   6  31
HETATM   31  O7  UNL     1      27.389   7.403   9.917  1.00  0.00    -0.388 OA
ATOM     32  H7  UNL     1      28.062   8.044   9.721  1.00  0.00     0.210 HD
ENDBRANCH   6  31
BRANCH   1  33
HETATM   33  N1  UNL     1      27.189   9.329  11.778  1.00  0.00    -0.332 N 
HETATM   34  C2  UNL     1      26.265   9.973  12.649  1.00  0.00     0.215 C 
HETATM   35  C1  UNL     1      25.570  11.209  12.223  1.00  0.00     0.117 C 
HETATM   36  O1  UNL     1      26.023   9.496  13.811  1.00  0.00    -0.274 OA
ATOM     37  H1  UNL     1      27.365   9.730  10.856  1.00  0.00     0.165 HD
ENDBRANCH   1  33
TORSDOF 11
ENDMDL
MODEL 3
REMARK VINA RESULT: -7.955147585      3.079      7.292
REMARK  11 active torsions:
REMARK  status: ('A' for Active; 'I' for Inactive)
REMARK       I    between atoms: C2_2  and  N1_4 
REMARK    1  A    between atoms: N1_4  and  C3_6 
REMARK    2  A    between atoms: C4_8  and  C5_9 
REMARK    3  A    between atoms: C5_9  and  O3_10 
REMARK    4  A    between atoms: O3_10  and  S1_11 
REMARK    5  A    between atoms: S1_11  and  N2_14 
REMARK    6  A    between atoms: N2_14  and  N3_16 
REMARK    7  A    between atoms: C6_19  and  C7_20 
REMARK    8  A    between atoms: C7_20  and  N4_21 
REMARK    9  A    between atoms: N4_21  and  C8_23 
REMARK   10  A    between atoms: C17_32  and  O6_33 
REMARK   11  A    between atoms: C18_35  and  O7_36 
ROOT
HETATM    1  C3  UNL     1      30.594   3.955  12.476  1.00  0.00     0.261 C 
HETATM    2  O2  UNL     1      30.924   4.360  11.228  1.00  0.00    -0.325 OA
HETATM    3  C4  UNL     1      30.039   5.219  10.596  1.00  0.00     0.084 C 
HETATM    4  C6  UNL     1      29.619   6.328  11.476  1.00  0.00     0.020 C 
HETATM    5  C17 UNL     1      29.124   5.885  12.825  1.00  0.00     0.188 C 
HETATM    6  C18 UNL     1      30.245   5.068  13.431  1.00  0.00     0.200 C 
ENDROOT
BRANCH   4   7
HETATM    7  C7  UNL     1      28.835   7.435  10.871  1.00  0.00     0.095 C 
BRANCH   7   8
HETATM    8  N4  UNL     1      28.094   8.287  11.661  1.00  0.00    -0.394 N 
ATOM      9  H4  UNL     1      28.555   8.931  12.304  1.00  0.00     0.159 HD
BRANCH   8  10
HETATM   10  C8  UNL     1      26.666   8.252  11.566  1.00  0.00     0.081 C 
HETATM   11  C9  UNL     1      25.999   9.474  12.108  1.00  0.00     0.025 C 
HETATM   12  C10 UNL     1      25.210   9.300  13.340  1.00  0.00     0.002 C 
HETATM   13  C11 UNL     1      24.212   8.194  13.362  1.00  0.00     0.000 C 
HETATM   14  C12 UNL     1      22.977   8.433  12.578  1.00  0.00     0.000 C 
HETATM   15  C13 UNL     1      23.029   8.378  11.121  1.00  0.00     0.000 C 
HETATM   16  C14 UNL     1      23.991   7.417  10.495  1.00  0.00     0.000 C 
HETATM   17  C15 UNL     1      24.981   8.212   9.686  1.00  0.00     0.002 C 
HETATM   18  C16 UNL     1      26.397   8.035  10.095  1.00  0.00     0.025 C 
ENDBRANCH   8  10
ENDBRANCH   7   8
ENDBRANCH   4   7
BRANCH   3  19
HETATM   19  C5  UNL     1      29.023   4.520   9.769  1.00  0.00     0.257 C 
BRANCH  19  20
HETATM   20  O3  UNL     1      28.769   5.094   8.525  1.00  0.00    -0.252 OA
BRANCH  20  21
HETATM   21  S1  UNL     1      29.124   3.985   7.333  1.00  0.00     0.375 S 
HETATM   22  O4  UNL     1      28.666   4.467   5.984  1.00  0.00    -0.174 OA
HETATM   23  O5  UNL     1      28.409   2.687   7.630  1.00  0.00    -0.174 OA
BRANCH  21  24
HETATM   24  N2  UNL     1      30.839   3.673   7.303  1.00  0.00    -0.211 N 
ATOM     25  H2  UNL     1      31.488   3.881   8.061  1.00  0.00     0.201 HD
BRANCH  24  26
HETATM   26  N3  UNL     1      31.191   3.087   6.062  1.00  0.00    -0.334 N 
ATOM     27  H32 UNL     1      30.610   3.117   5.223  1.00  0.00     0.177 HD
ATOM     28  H31 UNL     1      32.104   2.639   6.143  1.00  0.00     0.177 HD
ENDBRANCH  24  26
ENDBRANCH  21  24
ENDBRANCH  20  21
ENDBRANCH  19  20
ENDBRANCH   3  19
BRANCH   5  29
HETATM   29  O6  UNL     1      27.998   5.112  12.839  1.00  0.00    -0.388 OA
ATOM     30  H6  UNL     1      28.080   4.249  13.228  1.00  0.00     0.210 HD
ENDBRANCH   5  29
BRANCH   6  31
HETATM   31  O7  UNL     1      31.339   5.855  13.767  1.00  0.00    -0.388 OA
ATOM     32  H7  UNL     1      31.726   5.615  14.601  1.00  0.00     0.210 HD
ENDBRANCH   6  31
BRANCH   1  33
HETATM   33  N1  UNL     1      31.781   3.305  13.048  1.00  0.00    -0.332 N 
HETATM   34  C2  UNL     1      31.851   2.957  14.427  1.00  0.00     0.215 C 
HETATM   35  C1  UNL     1      33.061   2.303  14.974  1.00  0.00     0.117 C 
HETATM   36  O1  UNL     1      30.871   3.202  15.211  1.00  0.00    -0.274 OA
ATOM     37  H1  UNL     1      32.576   3.099  12.442  1.00  0.00     0.165 HD
ENDBRANCH   1  33
TORSDOF 11
ENDMDL
MODEL 4
REMARK VINA RESULT: -7.945729295      0.832      1.706
REMARK  11 active torsions:
REMARK  status: ('A' for Active; 'I' for Inactive)
REMARK       I    between atoms: C2_2  and  N1_4 
REMARK    1  A    between atoms: N1_4  and  C3_6 
REMARK    2  A    between atoms: C4_8  and  C5_9 
REMARK    3  A    between atoms: C5_9  and  O3_10 
REMARK    4  A    between atoms: O3_10  and  S1_11 
REMARK    5  A    between atoms: S1_11  and  N2_14 
REMARK    6  A    between atoms: N2_14  and  N3_16 
REMARK    7  A    between atoms: C6_19  and  C7_20 
REMARK    8  A    between atoms: C7_20  and  N4_21 
REMARK    9  A    between atoms: N4_21  and  C8_23 
REMARK   10  A    between atoms: C17_32  and  O6_33 
REMARK   11  A    between atoms: C18_35  and  O7_36 
ROOT
HETATM    1  C3  UNL     1      28.428   7.588  12.181  1.00  0.00     0.261 C 
HETATM    2  O2  UNL     1      29.759   7.725  11.984  1.00  0.00    -0.325 OA
HETATM    3  C4  UNL     1      30.534   6.589  12.151  1.00  0.00     0.084 C 
HETATM    4  C6  UNL     1      29.959   5.418  11.457  1.00  0.00     0.020 C 
HETATM    5  C17 UNL     1      28.509   5.175  11.768  1.00  0.00     0.188 C 
HETATM    6  C18 UNL     1      27.787   6.457  11.418  1.00  0.00     0.200 C 
ENDROOT
BRANCH   4   7
HETATM    7  C7  UNL     1      30.783   4.185  11.378  1.00  0.00     0.095 C 
BRANCH   7   8
HETATM    8  N4  UNL     1      31.450   3.856  10.218  1.00  0.00    -0.394 N 
ATOM      9  H4  UNL     1      32.467   3.778  10.209  1.00  0.00     0.159 HD
BRANCH   8  10
HETATM   10  C8  UNL     1      30.692   3.625   9.027  1.00  0.00     0.081 C 
HETATM   11  C9  UNL     1      31.059   2.363   8.317  1.00  0.00     0.025 C 
HETATM   12  C10 UNL     1      31.726   2.513   7.012  1.00  0.00     0.002 C 
HETATM   13  C11 UNL     1      31.086   3.419   6.018  1.00  0.00     0.000 C 
HETATM   14  C12 UNL     1      29.869   2.887   5.359  1.00  0.00     0.000 C 
HETATM   15  C13 UNL     1      28.622   2.807   6.113  1.00  0.00     0.000 C 
HETATM   16  C14 UNL     1      28.365   3.858   7.147  1.00  0.00     0.000 C 
HETATM   17  C15 UNL     1      28.266   3.178   8.486  1.00  0.00     0.002 C 
HETATM   18  C16 UNL     1      29.254   3.645   9.491  1.00  0.00     0.025 C 
ENDBRANCH   8  10
ENDBRANCH   7   8
ENDBRANCH   4   7
BRANCH   3  19
HETATM   19  C5  UNL     1      31.065   6.432  13.529  1.00  0.00     0.257 C 
BRANCH  19  20
HETATM   20  O3  UNL     1      32.141   5.557  13.656  1.00  0.00    -0.252 OA
BRANCH  20  21
HETATM   21  S1  UNL     1      31.730   4.343  14.722  1.00  0.00     0.375 S 
HETATM   22  O4  UNL     1      32.718   4.250  15.852  1.00  0.00    -0.174 OA
HETATM   23  O5  UNL     1      31.730   3.019  13.995  1.00  0.00    -0.174 OA
BRANCH  21  24
HETATM   24  N2  UNL     1      30.129   4.623  15.353  1.00  0.00    -0.211 N 
ATOM     25  H2  UNL     1      29.791   5.509  15.728  1.00  0.00     0.201 HD
BRANCH  24  26
HETATM   26  N3  UNL     1      29.370   3.430  15.262  1.00  0.00    -0.334 N 
ATOM     27  H32 UNL     1      28.434   3.370  14.860  1.00  0.00     0.177 HD
ATOM     28  H31 UNL     1      29.903   2.656  15.659  1.00  0.00     0.177 HD
ENDBRANCH  24  26
ENDBRANCH  21  24
ENDBRANCH  20  21
ENDBRANCH  19  20
ENDBRANCH   3  19
BRANCH   5  29
HETATM   29  O6  UNL     1      28.204   4.873  13.065  1.00  0.00    -0.388 OA
ATOM     30  H6  UNL     1      27.298   4.659  13.250  1.00  0.00     0.210 HD
ENDBRANCH   5  29
BRANCH   6  31
HETATM   31  O7  UNL     1      27.757   6.679  10.046  1.00  0.00    -0.388 OA
ATOM     32  H7  UNL     1      27.962   5.900   9.542  1.00  0.00     0.210 HD
ENDBRANCH   6  31
BRANCH   1  33
HETATM   33  N1  UNL     1      27.788   8.813  11.677  1.00  0.00    -0.332 N 
HETATM   34  C2  UNL     1      26.631   9.361  12.300  1.00  0.00     0.215 C 
HETATM   35  C1  UNL     1      26.010  10.595  11.770  1.00  0.00     0.117 C 
HETATM   36  O1  UNL     1      26.113   8.798  13.324  1.00  0.00    -0.274 OA
ATOM     37  H1  UNL     1      28.183   9.281  10.861  1.00  0.00     0.165 HD
ENDBRANCH   1  33
TORSDOF 11
ENDMDL
MODEL 5
REMARK VINA RESULT: -7.583186815      3.175      7.042
REMARK  11 active torsions:
REMARK  status: ('A' for Active; 'I' for Inactive)
REMARK       I    between atoms: C2_2  and  N1_4 
REMARK    1  A    between atoms: N1_4  and  C3_6 
REMARK    2  A    between atoms: C4_8  and  C5_9 
REMARK    3  A    between atoms: C5_9  and  O3_10 
REMARK    4  A    between atoms: O3_10  and  S1_11 
REMARK    5  A    between atoms: S1_11  and  N2_14 
REMARK    6  A    between atoms: N2_14  and  N3_16 
REMARK    7  A    between atoms: C6_19  and  C7_20 
REMARK    8  A    between atoms: C7_20  and  N4_21 
REMARK    9  A    between atoms: N4_21  and  C8_23 
REMARK   10  A    between atoms: C17_32  and  O6_33 
REMARK   11  A    between atoms: C18_35  and  O7_36 
ROOT
HETATM    1  C3  UNL     1      30.537   3.615  13.452  1.00  0.00     0.261 C 
HETATM    2  O2  UNL     1      31.411   4.524  12.962  1.00  0.00    -0.325 OA
HETATM    3  C4  UNL     1      30.956   5.339  11.937  1.00  0.00     0.084 C 
HETATM    4  C6  UNL     1      29.625   5.910  12.233  1.00  0.00     0.020 C 
HETATM    5  C17 UNL     1      28.603   4.891  12.654  1.00  0.00     0.188 C 
HETATM    6  C18 UNL     1      29.195   4.177  13.849  1.00  0.00     0.200 C 
ENDROOT
BRANCH   4   7
HETATM    7  C7  UNL     1      29.102   6.959  11.321  1.00  0.00     0.095 C 
BRANCH   7   8
HETATM    8  N4  UNL     1      28.399   8.035  11.815  1.00  0.00    -0.394 N 
ATOM      9  H4  UNL     1      28.885   8.805  12.276  1.00  0.00     0.159 HD
BRANCH   8  10
HETATM   10  C8  UNL     1      26.975   8.057  11.671  1.00  0.00     0.081 C 
HETATM   11  C9  UNL     1      26.353   9.359  12.056  1.00  0.00     0.025 C 
HETATM   12  C10 UNL     1      25.517   9.356  13.269  1.00  0.00     0.002 C 
HETATM   13  C11 UNL     1      24.465   8.305  13.370  1.00  0.00     0.000 C 
HETATM   14  C12 UNL     1      23.269   8.515  12.521  1.00  0.00     0.000 C 
HETATM   15  C13 UNL     1      23.365   8.302  11.081  1.00  0.00     0.000 C 
HETATM   16  C14 UNL     1      24.297   7.236  10.596  1.00  0.00     0.000 C 
HETATM   17  C15 UNL     1      25.351   7.892   9.745  1.00  0.00     0.002 C 
HETATM   18  C16 UNL     1      26.743   7.695  10.223  1.00  0.00     0.025 C 
ENDBRANCH   8  10
ENDBRANCH   7   8
ENDBRANCH   4   7
BRANCH   3  19
HETATM   19  C5  UNL     1      31.232   4.798  10.583  1.00  0.00     0.257 C 
BRANCH  19  20
HETATM   20  O3  UNL     1      30.199   4.943   9.660  1.00  0.00    -0.252 OA
BRANCH  20  21
HETATM   21  S1  UNL     1      30.122   3.574   8.713  1.00  0.00     0.375 S 
HETATM   22  O4  UNL     1      28.784   2.897   8.837  1.00  0.00    -0.174 OA
HETATM   23  O5  UNL     1      31.181   2.595   9.162  1.00  0.00    -0.174 OA
BRANCH  21  24
HETATM   24  N2  UNL     1      30.428   3.987   7.047  1.00  0.00    -0.211 N 
ATOM     25  H2  UNL     1      29.879   4.644   6.493  1.00  0.00     0.201 HD
BRANCH  24  26
HETATM   26  N3  UNL     1      31.556   3.268   6.581  1.00  0.00    -0.334 N 
ATOM     27  H32 UNL     1      31.563   2.267   6.383  1.00  0.00     0.177 HD
ATOM     28  H31 UNL     1      32.347   3.905   6.477  1.00  0.00     0.177 HD
ENDBRANCH  24  26
ENDBRANCH  21  24
ENDBRANCH  20  21
ENDBRANCH  19  20
ENDBRANCH   3  19
BRANCH   5  29
HETATM   29  O6  UNL     1      28.270   3.941  11.731  1.00  0.00    -0.388 OA
ATOM     30  H6  UNL     1      28.077   3.073  12.065  1.00  0.00     0.210 HD
ENDBRANCH   5  29
BRANCH   6  31
HETATM   31  O7  UNL     1      29.263   5.000  14.966  1.00  0.00    -0.388 OA
ATOM     32  H7  UNL     1      28.689   5.755  14.904  1.00  0.00     0.210 HD
ENDBRANCH   6  31
BRANCH   1  33
HETATM   33  N1  UNL     1      31.119   3.079  14.691  1.00  0.00    -0.332 N 
HETATM   34  C2  UNL     1      32.463   2.610  14.742  1.00  0.00     0.215 C 
HETATM   35  C1  UNL     1      33.021   2.076  16.004  1.00  0.00     0.117 C 
HETATM   36  O1  UNL     1      33.206   2.645  13.702  1.00  0.00    -0.274 OA
ATOM     37  H1  UNL     1      30.547   3.042  15.534  1.00  0.00     0.165 HD
ENDBRANCH   1  33
TORSDOF 11
ENDMDL
