MODEL 1
REMARK VINA RESULT: -8.590407532      0.000      0.000
REMARK  13 active torsions:
REMARK  status: ('A' for Active; 'I' for Inactive)
REMARK    1  A    between atoms: C6_7  and  O2_8 
REMARK    2  A    between atoms: O2_8  and  C7_9 
REMARK    3  A    between atoms: C7_9  and  C8_10 
REMARK    4  A    between atoms: C8_10  and  C9_11 
REMARK    5  A    between atoms: C9_11  and  O3_12 
REMARK    6  A    between atoms: C15_19  and  O4_20 
REMARK    7  A    between atoms: O4_20  and  C16_21 
REMARK    8  A    between atoms: C17_23  and  C18_24 
REMARK    9  A    between atoms: C18_24  and  O6_25 
REMARK   10  A    between atoms: C19_27  and  O7_28 
REMARK   11  A    between atoms: C20_30  and  O8_31 
REMARK   12  A    between atoms: C21_33  and  O9_34 
REMARK   13  A    between atoms: C22_36  and  O10_37 
ROOT
HETATM    1  C1  UNL     1      30.982   7.823  13.895  1.00  0.00     0.013 C 
HETATM    2  C2  UNL     1      30.874   6.622  13.866  1.00  0.00    -0.103 C 
HETATM    3  C3  UNL     1      30.760   5.145  13.813  1.00  0.00     0.069 C 
HETATM    4  C4  UNL     1      31.375   4.613  15.079  1.00  0.00     0.034 C 
HETATM    5  C5  UNL     1      31.368   4.590  12.567  1.00  0.00     0.196 C 
HETATM    6  O1  UNL     1      30.465   3.719  11.977  1.00  0.00    -0.357 OA
HETATM    7  C6  UNL     1      29.431   4.461  11.367  1.00  0.00     0.291 C 
HETATM    8  C15 UNL     1      28.706   5.188  12.424  1.00  0.00     0.210 C 
HETATM    9  C22 UNL     1      29.275   4.847  13.772  1.00  0.00     0.174 C 
ENDROOT
BRANCH   9  10
HETATM   10  O10 UNL     1      28.990   3.520  14.081  1.00  0.00    -0.391 OA
ATOM     11  H10 UNL     1      28.064   3.321  14.006  1.00  0.00     0.210 HD
ENDBRANCH   9  10
BRANCH   8  12
HETATM   12  O4  UNL     1      28.622   6.548  12.318  1.00  0.00    -0.346 OA
BRANCH  12  13
HETATM   13  C16 UNL     1      27.565   7.014  11.548  1.00  0.00     0.292 C 
HETATM   14  O5  UNL     1      26.425   6.795  12.281  1.00  0.00    -0.348 OA
HETATM   15  C17 UNL     1      25.245   7.292  11.767  1.00  0.00     0.179 C 
HETATM   16  C19 UNL     1      25.276   8.803  11.660  1.00  0.00     0.180 C 
HETATM   17  C20 UNL     1      26.700   9.291  11.916  1.00  0.00     0.183 C 
HETATM   18  C21 UNL     1      27.689   8.450  11.184  1.00  0.00     0.204 C 
BRANCH  15  19
HETATM   19  C18 UNL     1      24.985   6.690  10.411  1.00  0.00     0.198 C 
BRANCH  19  20
HETATM   20  O6  UNL     1      23.636   6.783  10.054  1.00  0.00    -0.398 OA
ATOM     21  H6  UNL     1      23.519   7.274   9.249  1.00  0.00     0.209 HD
ENDBRANCH  19  20
ENDBRANCH  15  19
BRANCH  16  22
HETATM   22  O7  UNL     1      24.972   9.144  10.352  1.00  0.00    -0.390 OA
ATOM     23  H7  UNL     1      24.030   9.083  10.245  1.00  0.00     0.210 HD
ENDBRANCH  16  22
BRANCH  17  24
HETATM   24  O8  UNL     1      26.988   9.242  13.277  1.00  0.00    -0.390 OA
ATOM     25  H8  UNL     1      27.926   9.171  13.412  1.00  0.00     0.210 HD
ENDBRANCH  17  24
BRANCH  18  26
HETATM   26  O9  UNL     1      28.983   8.950  11.351  1.00  0.00    -0.388 OA
ATOM     27  H9  UNL     1      29.017   9.899  11.374  1.00  0.00     0.210 HD
ENDBRANCH  18  26
ENDBRANCH  12  13
ENDBRANCH   8  12
BRANCH   7  28
HETATM   28  O2  UNL     1      28.651   3.488  10.707  1.00  0.00    -0.358 OA
BRANCH  28  29
HETATM   29  C7  UNL     1      29.431   2.943   9.718  1.00  0.00     0.182 C 
BRANCH  29  30
HETATM   30  C8  UNL     1      29.383   3.697   8.421  1.00  0.00     0.003 C 
HETATM   31  C10 UNL     1      30.825   3.841   7.941  1.00  0.00     0.014 C 
HETATM   32  C11 UNL     1      31.152   2.582   7.169  1.00  0.00     0.001 C 
HETATM   33  C12 UNL     1      30.472   2.717   5.806  1.00  0.00     0.000 C 
HETATM   34  C13 UNL     1      29.056   3.172   5.998  1.00  0.00     0.001 C 
HETATM   35  C14 UNL     1      28.576   2.894   7.417  1.00  0.00     0.014 C 
BRANCH  30  36
HETATM   36  C9  UNL     1      28.823   5.082   8.578  1.00  0.00     0.175 C 
BRANCH  36  37
HETATM   37  O3  UNL     1      27.447   4.998   8.731  1.00  0.00    -0.400 OA
ATOM     38  H3  UNL     1      27.204   5.386   9.564  1.00  0.00     0.209 HD
ENDBRANCH  36  37
ENDBRANCH  30  36
ENDBRANCH  29  30
ENDBRANCH  28  29
ENDBRANCH   7  28
TORSDOF 13
ENDMDL
MODEL 2
REMARK VINA RESULT: -8.427938532      0.920      1.564
REMARK  13 active torsions:
REMARK  status: ('A' for Active; 'I' for Inactive)
REMARK    1  A    between atoms: C6_7  and  O2_8 
REMARK    2  A    between atoms: O2_8  and  C7_9 
REMARK    3  A    between atoms: C7_9  and  C8_10 
REMARK    4  A    between atoms: C8_10  and  C9_11 
REMARK    5  A    between atoms: C9_11  and  O3_12 
REMARK    6  A    between atoms: C15_19  and  O4_20 
REMARK    7  A    between atoms: O4_20  and  C16_21 
REMARK    8  A    between atoms: C17_23  and  C18_24 
REMARK    9  A    between atoms: C18_24  and  O6_25 
REMARK   10  A    between atoms: C19_27  and  O7_28 
REMARK   11  A    between atoms: C20_30  and  O8_31 
REMARK   12  A    between atoms: C21_33  and  O9_34 
REMARK   13  A    between atoms: C22_36  and  O10_37 
ROOT
HETATM    1  C1  UNL     1      30.567   8.207  14.365  1.00  0.00     0.013 C 
HETATM    2  C2  UNL     1      30.709   7.059  14.022  1.00  0.00    -0.103 C 
HETATM    3  C3  UNL     1      30.902   5.657  13.583  1.00  0.00     0.069 C 
HETATM    4  C4  UNL     1      31.610   4.943  14.702  1.00  0.00     0.034 C 
HETATM    5  C5  UNL     1      31.615   5.583  12.273  1.00  0.00     0.196 C 
HETATM    6  O1  UNL     1      30.913   4.737  11.428  1.00  0.00    -0.357 OA
HETATM    7  C6  UNL     1      29.750   5.394  10.971  1.00  0.00     0.291 C 
HETATM    8  C15 UNL     1      28.888   5.658  12.136  1.00  0.00     0.210 C 
HETATM    9  C22 UNL     1      29.510   5.093  13.381  1.00  0.00     0.174 C 
ENDROOT
BRANCH   9  10
HETATM   10  O10 UNL     1      29.504   3.702  13.321  1.00  0.00    -0.391 OA
ATOM     11  H10 UNL     1      29.123   3.308  14.097  1.00  0.00     0.210 HD
ENDBRANCH   9  10
BRANCH   8  12
HETATM   12  O4  UNL     1      28.526   6.953  12.381  1.00  0.00    -0.346 OA
BRANCH  12  13
HETATM   13  C16 UNL     1      27.460   7.418  11.622  1.00  0.00     0.292 C 
HETATM   14  O5  UNL     1      26.319   6.975  12.244  1.00  0.00    -0.348 OA
HETATM   15  C17 UNL     1      25.116   7.420  11.735  1.00  0.00     0.179 C 
HETATM   16  C19 UNL     1      24.983   8.924  11.851  1.00  0.00     0.180 C 
HETATM   17  C20 UNL     1      26.331   9.512  12.263  1.00  0.00     0.183 C 
HETATM   18  C21 UNL     1      27.440   8.898  11.479  1.00  0.00     0.204 C 
BRANCH  15  19
HETATM   19  C18 UNL     1      24.987   7.005  10.293  1.00  0.00     0.198 C 
BRANCH  19  20
HETATM   20  O6  UNL     1      23.651   6.990   9.878  1.00  0.00    -0.398 OA
ATOM     21  H6  UNL     1      23.097   6.525  10.493  1.00  0.00     0.209 HD
ENDBRANCH  19  20
ENDBRANCH  15  19
BRANCH  16  22
HETATM   22  O7  UNL     1      24.703   9.426  10.591  1.00  0.00    -0.390 OA
ATOM     23  H7  UNL     1      25.164  10.251  10.495  1.00  0.00     0.210 HD
ENDBRANCH  16  22
BRANCH  17  24
HETATM   24  O8  UNL     1      26.561   9.288  13.617  1.00  0.00    -0.390 OA
ATOM     25  H8  UNL     1      26.982   8.446  13.745  1.00  0.00     0.210 HD
ENDBRANCH  17  24
BRANCH  18  26
HETATM   26  O9  UNL     1      28.661   9.498  11.796  1.00  0.00    -0.388 OA
ATOM     27  H9  UNL     1      28.589  10.156  12.477  1.00  0.00     0.210 HD
ENDBRANCH  18  26
ENDBRANCH  12  13
ENDBRANCH   8  12
BRANCH   7  28
HETATM   28  O2  UNL     1      29.190   4.496  10.039  1.00  0.00    -0.358 OA
BRANCH  28  29
HETATM   29  C7  UNL     1      29.859   4.669   8.853  1.00  0.00     0.182 C 
BRANCH  29  30
HETATM   30  C8  UNL     1      30.256   3.384   8.187  1.00  0.00     0.003 C 
HETATM   31  C10 UNL     1      28.967   2.717   7.711  1.00  0.00     0.014 C 
HETATM   32  C11 UNL     1      28.656   3.298   6.350  1.00  0.00     0.001 C 
HETATM   33  C12 UNL     1      29.607   2.625   5.361  1.00  0.00     0.000 C 
HETATM   34  C13 UNL     1      30.999   2.639   5.918  1.00  0.00     0.001 C 
HETATM   35  C14 UNL     1      31.148   3.702   7.000  1.00  0.00     0.014 C 
BRANCH  30  36
HETATM   36  C9  UNL     1      30.932   2.429   9.130  1.00  0.00     0.175 C 
BRANCH  36  37
HETATM   37  O3  UNL     1      32.072   3.032   9.641  1.00  0.00    -0.400 OA
ATOM     38  H3  UNL     1      32.506   2.423  10.227  1.00  0.00     0.209 HD
ENDBRANCH  36  37
ENDBRANCH  30  36
ENDBRANCH  29  30
ENDBRANCH  28  29
ENDBRANCH   7  28
TORSDOF 13
ENDMDL
MODEL 3
REMARK VINA RESULT: -8.223860239      1.690      6.782
REMARK  13 active torsions:
REMARK  status: ('A' for Active; 'I' for Inactive)
REMARK    1  A    between atoms: C6_7  and  O2_8 
REMARK    2  A    between atoms: O2_8  and  C7_9 
REMARK    3  A    between atoms: C7_9  and  C8_10 
REMARK    4  A    between atoms: C8_10  and  C9_11 
REMARK    5  A    between atoms: C9_11  and  O3_12 
REMARK    6  A    between atoms: C15_19  and  O4_20 
REMARK    7  A    between atoms: O4_20  and  C16_21 
REMARK    8  A    between atoms: C17_23  and  C18_24 
REMARK    9  A    between atoms: C18_24  and  O6_25 
REMARK   10  A    between atoms: C19_27  and  O7_28 
REMARK   11  A    between atoms: C20_30  and  O8_31 
REMARK   12  A    between atoms: C21_33  and  O9_34 
REMARK   13  A    between atoms: C22_36  and  O10_37 
ROOT
HETATM    1  C1  UNL     1      31.549   3.161   8.606  1.00  0.00     0.013 C 
HETATM    2  C2  UNL     1      30.360   3.359   8.656  1.00  0.00    -0.103 C 
HETATM    3  C3  UNL     1      28.902   3.623   8.702  1.00  0.00     0.069 C 
HETATM    4  C4  UNL     1      28.241   2.574   7.850  1.00  0.00     0.034 C 
HETATM    5  C5  UNL     1      28.583   5.024   8.292  1.00  0.00     0.196 C 
HETATM    6  O1  UNL     1      27.740   5.586   9.237  1.00  0.00    -0.357 OA
HETATM    7  C6  UNL     1      28.481   5.896  10.398  1.00  0.00     0.291 C 
HETATM    8  C15 UNL     1      28.989   4.634  10.965  1.00  0.00     0.210 C 
HETATM    9  C22 UNL     1      28.501   3.467  10.154  1.00  0.00     0.174 C 
ENDROOT
BRANCH   9  10
HETATM   10  O10 UNL     1      27.125   3.327  10.313  1.00  0.00    -0.391 OA
ATOM     11  H10 UNL     1      26.900   2.731  11.018  1.00  0.00     0.210 HD
ENDBRANCH   9  10
BRANCH   8  12
HETATM   12  O4  UNL     1      30.340   4.510  11.135  1.00  0.00    -0.346 OA
BRANCH  12  13
HETATM   13  C16 UNL     1      30.803   4.820  12.407  1.00  0.00     0.292 C 
HETATM   14  O5  UNL     1      30.022   4.112  13.287  1.00  0.00    -0.348 OA
HETATM   15  C17 UNL     1      30.375   4.165  14.619  1.00  0.00     0.179 C 
HETATM   16  C19 UNL     1      31.748   3.573  14.857  1.00  0.00     0.180 C 
HETATM   17  C20 UNL     1      32.425   3.330  13.509  1.00  0.00     0.183 C 
HETATM   18  C21 UNL     1      32.241   4.501  12.605  1.00  0.00     0.204 C 
BRANCH  15  19
HETATM   19  C18 UNL     1      30.345   5.593  15.099  1.00  0.00     0.198 C 
BRANCH  19  20
HETATM   20  O6  UNL     1      29.743   5.703  16.357  1.00  0.00    -0.398 OA
ATOM     21  H6  UNL     1      30.389   5.772  17.050  1.00  0.00     0.209 HD
ENDBRANCH  19  20
ENDBRANCH  15  19
BRANCH  16  22
HETATM   22  O7  UNL     1      32.514   4.519  15.517  1.00  0.00    -0.390 OA
ATOM     23  H7  UNL     1      31.959   4.949  16.158  1.00  0.00     0.210 HD
ENDBRANCH  16  22
BRANCH  17  24
HETATM   24  O8  UNL     1      31.890   2.200  12.898  1.00  0.00    -0.390 OA
ATOM     25  H8  UNL     1      31.025   2.391  12.553  1.00  0.00     0.210 HD
ENDBRANCH  17  24
BRANCH  18  26
HETATM   26  O9  UNL     1      32.932   4.312  11.406  1.00  0.00    -0.388 OA
ATOM     27  H9  UNL     1      32.841   3.434  11.055  1.00  0.00     0.210 HD
ENDBRANCH  18  26
ENDBRANCH  12  13
ENDBRANCH   8  12
BRANCH   7  28
HETATM   28  O2  UNL     1      27.558   6.563  11.229  1.00  0.00    -0.358 OA
BRANCH  28  29
HETATM   29  C7  UNL     1      26.699   7.255  10.412  1.00  0.00     0.182 C 
BRANCH  29  30
HETATM   30  C8  UNL     1      25.951   8.353  11.110  1.00  0.00     0.003 C 
HETATM   31  C10 UNL     1      24.789   8.742  10.199  1.00  0.00     0.014 C 
HETATM   32  C11 UNL     1      23.653   7.797  10.519  1.00  0.00     0.001 C 
HETATM   33  C12 UNL     1      23.044   8.277  11.837  1.00  0.00     0.000 C 
HETATM   34  C13 UNL     1      24.140   8.545  12.824  1.00  0.00     0.001 C 
HETATM   35  C14 UNL     1      25.424   7.824  12.432  1.00  0.00     0.014 C 
BRANCH  30  36
HETATM   36  C9  UNL     1      26.789   9.583  11.316  1.00  0.00     0.175 C 
BRANCH  36  37
HETATM   37  O3  UNL     1      28.125   9.215  11.366  1.00  0.00    -0.400 OA
ATOM     38  H3  UNL     1      28.183   8.270  11.431  1.00  0.00     0.209 HD
ENDBRANCH  36  37
ENDBRANCH  30  36
ENDBRANCH  29  30
ENDBRANCH  28  29
ENDBRANCH   7  28
TORSDOF 13
ENDMDL
MODEL 4
REMARK VINA RESULT: -8.200025155      1.750      6.770
REMARK  13 active torsions:
REMARK  status: ('A' for Active; 'I' for Inactive)
REMARK    1  A    between atoms: C6_7  and  O2_8 
REMARK    2  A    between atoms: O2_8  and  C7_9 
REMARK    3  A    between atoms: C7_9  and  C8_10 
REMARK    4  A    between atoms: C8_10  and  C9_11 
REMARK    5  A    between atoms: C9_11  and  O3_12 
REMARK    6  A    between atoms: C15_19  and  O4_20 
REMARK    7  A    between atoms: O4_20  and  C16_21 
REMARK    8  A    between atoms: C17_23  and  C18_24 
REMARK    9  A    between atoms: C18_24  and  O6_25 
REMARK   10  A    between atoms: C19_27  and  O7_28 
REMARK   11  A    between atoms: C20_30  and  O8_31 
REMARK   12  A    between atoms: C21_33  and  O9_34 
REMARK   13  A    between atoms: C22_36  and  O10_37 
ROOT
HETATM    1  C1  UNL     1      31.545   3.200   8.590  1.00  0.00     0.013 C 
HETATM    2  C2  UNL     1      30.357   3.399   8.650  1.00  0.00    -0.103 C 
HETATM    3  C3  UNL     1      28.900   3.665   8.708  1.00  0.00     0.069 C 
HETATM    4  C4  UNL     1      28.229   2.605   7.877  1.00  0.00     0.034 C 
HETATM    5  C5  UNL     1      28.577   5.060   8.282  1.00  0.00     0.196 C 
HETATM    6  O1  UNL     1      27.744   5.636   9.229  1.00  0.00    -0.357 OA
HETATM    7  C6  UNL     1      28.498   5.961  10.378  1.00  0.00     0.291 C 
HETATM    8  C15 UNL     1      29.011   4.707  10.956  1.00  0.00     0.210 C 
HETATM    9  C22 UNL     1      28.513   3.529  10.167  1.00  0.00     0.174 C 
ENDROOT
BRANCH   9  10
HETATM   10  O10 UNL     1      27.139   3.392  10.342  1.00  0.00    -0.391 OA
ATOM     11  H10 UNL     1      26.660   4.163  10.064  1.00  0.00     0.210 HD
ENDBRANCH   9  10
BRANCH   8  12
HETATM   12  O4  UNL     1      30.363   4.584  11.113  1.00  0.00    -0.346 OA
BRANCH  12  13
HETATM   13  C16 UNL     1      30.834   4.861  12.390  1.00  0.00     0.292 C 
HETATM   14  O5  UNL     1      30.024   4.172  13.260  1.00  0.00    -0.348 OA
HETATM   15  C17 UNL     1      30.376   4.196  14.593  1.00  0.00     0.179 C 
HETATM   16  C19 UNL     1      31.725   3.549  14.827  1.00  0.00     0.180 C 
HETATM   17  C20 UNL     1      32.396   3.298  13.478  1.00  0.00     0.183 C 
HETATM   18  C21 UNL     1      32.259   4.485  12.587  1.00  0.00     0.204 C 
BRANCH  15  19
HETATM   19  C18 UNL     1      30.398   5.617  15.090  1.00  0.00     0.198 C 
BRANCH  19  20
HETATM   20  O6  UNL     1      29.765   5.741  16.331  1.00  0.00    -0.398 OA
ATOM     21  H6  UNL     1      29.919   6.594  16.721  1.00  0.00     0.209 HD
ENDBRANCH  19  20
ENDBRANCH  15  19
BRANCH  16  22
HETATM   22  O7  UNL     1      32.523   4.459  15.501  1.00  0.00    -0.390 OA
ATOM     23  H7  UNL     1      32.449   5.297  15.060  1.00  0.00     0.210 HD
ENDBRANCH  16  22
BRANCH  17  24
HETATM   24  O8  UNL     1      31.821   2.197  12.851  1.00  0.00    -0.390 OA
ATOM     25  H8  UNL     1      32.493   1.576  12.594  1.00  0.00     0.210 HD
ENDBRANCH  17  24
BRANCH  18  26
HETATM   26  O9  UNL     1      32.946   4.286  11.388  1.00  0.00    -0.388 OA
ATOM     27  H9  UNL     1      33.885   4.405  11.471  1.00  0.00     0.210 HD
ENDBRANCH  18  26
ENDBRANCH  12  13
ENDBRANCH   8  12
BRANCH   7  28
HETATM   28  O2  UNL     1      27.584   6.640  11.210  1.00  0.00    -0.358 OA
BRANCH  28  29
HETATM   29  C7  UNL     1      26.471   6.915  10.455  1.00  0.00     0.182 C 
BRANCH  29  30
HETATM   30  C8  UNL     1      25.956   8.315  10.621  1.00  0.00     0.003 C 
HETATM   31  C10 UNL     1      24.684   8.220  11.460  1.00  0.00     0.014 C 
HETATM   32  C11 UNL     1      25.119   8.234  12.908  1.00  0.00     0.001 C 
HETATM   33  C12 UNL     1      25.473   9.682  13.244  1.00  0.00     0.000 C 
HETATM   34  C13 UNL     1      26.343  10.247  12.162  1.00  0.00     0.001 C 
HETATM   35  C14 UNL     1      27.003   9.139  11.351  1.00  0.00     0.014 C 
BRANCH  30  36
HETATM   36  C9  UNL     1      25.583   8.954   9.313  1.00  0.00     0.175 C 
BRANCH  36  37
HETATM   37  O3  UNL     1      26.723   9.495   8.735  1.00  0.00    -0.400 OA
ATOM     38  H3  UNL     1      26.840  10.381   9.055  1.00  0.00     0.209 HD
ENDBRANCH  36  37
ENDBRANCH  30  36
ENDBRANCH  29  30
ENDBRANCH  28  29
ENDBRANCH   7  28
TORSDOF 13
ENDMDL
MODEL 5
REMARK VINA RESULT: -8.109078250      1.724      6.623
REMARK  13 active torsions:
REMARK  status: ('A' for Active; 'I' for Inactive)
REMARK    1  A    between atoms: C6_7  and  O2_8 
REMARK    2  A    between atoms: O2_8  and  C7_9 
REMARK    3  A    between atoms: C7_9  and  C8_10 
REMARK    4  A    between atoms: C8_10  and  C9_11 
REMARK    5  A    between atoms: C9_11  and  O3_12 
REMARK    6  A    between atoms: C15_19  and  O4_20 
REMARK    7  A    between atoms: O4_20  and  C16_21 
REMARK    8  A    between atoms: C17_23  and  C18_24 
REMARK    9  A    between atoms: C18_24  and  O6_25 
REMARK   10  A    between atoms: C19_27  and  O7_28 
REMARK   11  A    between atoms: C20_30  and  O8_31 
REMARK   12  A    between atoms: C21_33  and  O9_34 
REMARK   13  A    between atoms: C22_36  and  O10_37 
ROOT
HETATM    1  C1  UNL     1      31.600   3.249   8.594  1.00  0.00     0.013 C 
HETATM    2  C2  UNL     1      30.406   3.413   8.645  1.00  0.00    -0.103 C 
HETATM    3  C3  UNL     1      28.941   3.635   8.692  1.00  0.00     0.069 C 
HETATM    4  C4  UNL     1      28.308   2.548   7.866  1.00  0.00     0.034 C 
HETATM    5  C5  UNL     1      28.579   5.016   8.252  1.00  0.00     0.196 C 
HETATM    6  O1  UNL     1      27.724   5.575   9.188  1.00  0.00    -0.357 OA
HETATM    7  C6  UNL     1      28.460   5.932  10.338  1.00  0.00     0.291 C 
HETATM    8  C15 UNL     1      29.007   4.699  10.931  1.00  0.00     0.210 C 
HETATM    9  C22 UNL     1      28.550   3.500  10.149  1.00  0.00     0.174 C 
ENDROOT
BRANCH   9  10
HETATM   10  O10 UNL     1      27.180   3.323  10.317  1.00  0.00    -0.391 OA
ATOM     11  H10 UNL     1      26.693   3.486   9.518  1.00  0.00     0.210 HD
ENDBRANCH   9  10
BRANCH   8  12
HETATM   12  O4  UNL     1      30.361   4.618  11.097  1.00  0.00    -0.346 OA
BRANCH  12  13
HETATM   13  C16 UNL     1      30.814   4.908  12.377  1.00  0.00     0.292 C 
HETATM   14  O5  UNL     1      30.000   4.220  13.243  1.00  0.00    -0.348 OA
HETATM   15  C17 UNL     1      30.335   4.256  14.580  1.00  0.00     0.179 C 
HETATM   16  C19 UNL     1      31.687   3.622  14.835  1.00  0.00     0.180 C 
HETATM   17  C20 UNL     1      32.375   3.366  13.496  1.00  0.00     0.183 C 
HETATM   18  C21 UNL     1      32.240   4.545  12.595  1.00  0.00     0.204 C 
BRANCH  15  19
HETATM   19  C18 UNL     1      30.340   5.682  15.066  1.00  0.00     0.198 C 
BRANCH  19  20
HETATM   20  O6  UNL     1      29.762   5.798  16.335  1.00  0.00    -0.398 OA
ATOM     21  H6  UNL     1      29.485   4.955  16.673  1.00  0.00     0.209 HD
ENDBRANCH  19  20
ENDBRANCH  15  19
BRANCH  16  22
HETATM   22  O7  UNL     1      32.470   4.542  15.511  1.00  0.00    -0.390 OA
ATOM     23  H7  UNL     1      33.289   4.119  15.739  1.00  0.00     0.210 HD
ENDBRANCH  16  22
BRANCH  17  24
HETATM   24  O8  UNL     1      31.816   2.255  12.871  1.00  0.00    -0.390 OA
ATOM     25  H8  UNL     1      31.703   2.423  11.943  1.00  0.00     0.210 HD
ENDBRANCH  17  24
BRANCH  18  26
HETATM   26  O9  UNL     1      32.943   4.342  11.405  1.00  0.00    -0.388 OA
ATOM     27  H9  UNL     1      33.692   4.919  11.310  1.00  0.00     0.210 HD
ENDBRANCH  18  26
ENDBRANCH  12  13
ENDBRANCH   8  12
BRANCH   7  28
HETATM   28  O2  UNL     1      27.521   6.590  11.159  1.00  0.00    -0.358 OA
BRANCH  28  29
HETATM   29  C7  UNL     1      26.358   6.704  10.439  1.00  0.00     0.182 C 
BRANCH  29  30
HETATM   30  C8  UNL     1      25.428   7.764  10.952  1.00  0.00     0.003 C 
HETATM   31  C10 UNL     1      25.821   9.067  10.262  1.00  0.00     0.014 C 
HETATM   32  C11 UNL     1      25.086   9.096   8.940  1.00  0.00     0.001 C 
HETATM   33  C12 UNL     1      23.637   9.465   9.255  1.00  0.00     0.000 C 
HETATM   34  C13 UNL     1      23.148   8.634  10.403  1.00  0.00     0.001 C 
HETATM   35  C14 UNL     1      24.004   7.386  10.583  1.00  0.00     0.014 C 
BRANCH  30  36
HETATM   36  C9  UNL     1      25.561   7.983  12.432  1.00  0.00     0.175 C 
BRANCH  36  37
HETATM   37  O3  UNL     1      26.603   8.869  12.664  1.00  0.00    -0.400 OA
ATOM     38  H3  UNL     1      26.562   9.165  13.566  1.00  0.00     0.209 HD
ENDBRANCH  36  37
ENDBRANCH  30  36
ENDBRANCH  29  30
ENDBRANCH  28  29
ENDBRANCH   7  28
TORSDOF 13
ENDMDL
