MODEL 1
REMARK VINA RESULT: -2.626672309      0.000      0.000
REMARK  14 active torsions:
REMARK  status: ('A' for Active; 'I' for Inactive)
REMARK    1  A    between atoms: C2_2  and  C3_3 
REMARK    2  A    between atoms: C4_4  and  O1_5 
REMARK    3  A    between atoms: C5_7  and  O2_8 
REMARK    4  A    between atoms: C6_10  and  O3_11 
REMARK    5  A    between atoms: O3_11  and  C7_12 
REMARK    6  A    between atoms: C8_14  and  C9_15 
REMARK    7  A    between atoms: C9_15  and  O5_16 
REMARK    8  A    between atoms: C10_18  and  O6_19 
REMARK    9  A    between atoms: C11_21  and  O7_22 
REMARK   10  A    between atoms: C12_24  and  N1_25 
REMARK   11  A    between atoms: C13_29  and  N2_30 
REMARK   12  A    between atoms: N2_30  and  N3_32 
REMARK   13  A    between atoms: N3_32  and  N4_33 
REMARK   14  A    between atoms: C17_39  and  N5_40 
ROOT
HETATM    1  C3  UNL     1      30.247   7.182  12.764  1.00  0.00     0.045 C 
HETATM    2  C4  UNL     1      31.639   6.678  12.441  1.00  0.00     0.157 C 
HETATM    3  C5  UNL     1      31.831   5.221  12.620  1.00  0.00     0.178 C 
HETATM    4  C6  UNL     1      31.078   4.351  11.643  1.00  0.00     0.181 C 
HETATM    5  C13 UNL     1      29.652   4.132  11.975  1.00  0.00     0.150 C 
HETATM    6  C14 UNL     1      28.734   5.280  12.023  1.00  0.00     0.020 C 
HETATM    7  C15 UNL     1      27.731   5.165  10.866  1.00  0.00     0.009 C 
HETATM    8  C16 UNL     1      27.343   6.581  10.488  1.00  0.00     0.036 C 
HETATM    9  C17 UNL     1      28.108   7.453  11.430  1.00  0.00     0.227 C 
HETATM   10  C20 UNL     1      29.297   6.630  11.782  1.00  0.00     0.035 C 
ENDROOT
BRANCH   4  11
HETATM   11  O3  UNL     1      31.339   4.665  10.313  1.00  0.00    -0.349 OA
BRANCH  11  12
HETATM   12  C7  UNL     1      30.841   3.771   9.399  1.00  0.00     0.294 C 
HETATM   13  O4  UNL     1      29.815   4.361   8.638  1.00  0.00    -0.349 OA
HETATM   14  C8  UNL     1      29.126   3.390   7.943  1.00  0.00     0.179 C 
HETATM   15  C10 UNL     1      30.017   2.473   7.173  1.00  0.00     0.180 C 
HETATM   16  C11 UNL     1      31.388   3.085   7.075  1.00  0.00     0.184 C 
HETATM   17  C12 UNL     1      31.923   3.249   8.483  1.00  0.00     0.269 C 
BRANCH  14  18
HETATM   18  C9  UNL     1      28.098   3.971   7.010  1.00  0.00     0.198 C 
BRANCH  18  19
HETATM   19  O5  UNL     1      28.629   4.721   5.980  1.00  0.00    -0.398 OA
ATOM     20  H5  UNL     1      28.985   4.206   5.265  1.00  0.00     0.209 HD
ENDBRANCH  18  19
ENDBRANCH  14  18
BRANCH  15  21
HETATM   21  O6  UNL     1      29.512   2.161   5.911  1.00  0.00    -0.390 OA
ATOM     22  H6  UNL     1      30.034   2.524   5.204  1.00  0.00     0.210 HD
ENDBRANCH  15  21
BRANCH  16  23
HETATM   23  O7  UNL     1      31.431   4.264   6.348  1.00  0.00    -0.391 OA
ATOM     24  H7  UNL     1      30.840   4.936   6.665  1.00  0.00     0.210 HD
ENDBRANCH  16  23
BRANCH  17  25
HETATM   25  N1  UNL     1      32.410   1.937   8.890  1.00  0.00    -0.068 N 
ATOM     26  H13 UNL     1      31.810   1.528   9.607  1.00  0.00     0.275 HD
ATOM     27  H12 UNL     1      32.274   1.248   8.151  1.00  0.00     0.275 HD
ATOM     28  H11 UNL     1      33.383   1.962   9.195  1.00  0.00     0.275 HD
ENDBRANCH  17  25
ENDBRANCH  11  12
ENDBRANCH   4  11
BRANCH   3  29
HETATM   29  O2  UNL     1      31.617   4.725  13.881  1.00  0.00    -0.390 OA
ATOM     30  H2  UNL     1      32.295   4.162  14.237  1.00  0.00     0.210 HD
ENDBRANCH   3  29
BRANCH   5  31
HETATM   31  N2  UNL     1      29.628   3.370  13.238  1.00  0.00    -0.245 N 
ATOM     32  H2  UNL     1      29.943   2.400  13.241  1.00  0.00     0.197 HD
BRANCH  31  33
HETATM   33  N3  UNL     1      29.238   3.877  14.286  1.00  0.00    -0.248 NA
BRANCH  33  34
HETATM   34  N4  UNL     1      28.976   4.132  15.452  1.00  0.00    -0.261 N 
ATOM     35  H42 UNL     1      29.776   3.602  15.798  1.00  0.00     0.193 HD
ATOM     36  H41 UNL     1      28.563   4.472  16.320  1.00  0.00     0.193 HD
ENDBRANCH  33  34
ENDBRANCH  31  33
ENDBRANCH   5  31
BRANCH   2  37
HETATM   37  O1  UNL     1      32.608   7.365  13.159  1.00  0.00    -0.392 OA
ATOM     38  H1  UNL     1      33.482   7.163  12.847  1.00  0.00     0.210 HD
ENDBRANCH   2  37
BRANCH   1  39
HETATM   39  C2  UNL     1      29.914   7.062  14.183  1.00  0.00    -0.029 C 
HETATM   40  C1  UNL     1      30.483   7.811  15.127  1.00  0.00     0.007 C 
ENDBRANCH   1  39
BRANCH   9  41
HETATM   41  N5  UNL     1      27.346   8.065  12.449  1.00  0.00     0.085 N 
HETATM   42  C18 UNL     1      27.375   9.542  12.182  1.00  0.00     0.309 C 
HETATM   43  C19 UNL     1      25.925   7.793  12.431  1.00  0.00     0.309 C 
ENDBRANCH   9  41
TORSDOF 14
ENDMDL
MODEL 2
REMARK VINA RESULT: -1.745834999      2.727      5.819
REMARK  14 active torsions:
REMARK  status: ('A' for Active; 'I' for Inactive)
REMARK    1  A    between atoms: C2_2  and  C3_3 
REMARK    2  A    between atoms: C4_4  and  O1_5 
REMARK    3  A    between atoms: C5_7  and  O2_8 
REMARK    4  A    between atoms: C6_10  and  O3_11 
REMARK    5  A    between atoms: O3_11  and  C7_12 
REMARK    6  A    between atoms: C8_14  and  C9_15 
REMARK    7  A    between atoms: C9_15  and  O5_16 
REMARK    8  A    between atoms: C10_18  and  O6_19 
REMARK    9  A    between atoms: C11_21  and  O7_22 
REMARK   10  A    between atoms: C12_24  and  N1_25 
REMARK   11  A    between atoms: C13_29  and  N2_30 
REMARK   12  A    between atoms: N2_30  and  N3_32 
REMARK   13  A    between atoms: N3_32  and  N4_33 
REMARK   14  A    between atoms: C17_39  and  N5_40 
ROOT
HETATM    1  C3  UNL     1      25.652   6.395  11.617  1.00  0.00     0.045 C 
HETATM    2  C4  UNL     1      27.036   5.822  11.388  1.00  0.00     0.157 C 
HETATM    3  C5  UNL     1      27.912   6.639  10.518  1.00  0.00     0.178 C 
HETATM    4  C6  UNL     1      28.344   7.961  11.104  1.00  0.00     0.181 C 
HETATM    5  C13 UNL     1      27.343   9.047  10.995  1.00  0.00     0.150 C 
HETATM    6  C14 UNL     1      26.043   8.905  11.668  1.00  0.00     0.020 C 
HETATM    7  C15 UNL     1      25.959   9.928  12.810  1.00  0.00     0.009 C 
HETATM    8  C16 UNL     1      25.064   9.319  13.872  1.00  0.00     0.036 C 
HETATM    9  C17 UNL     1      24.656   7.993  13.314  1.00  0.00     0.227 C 
HETATM   10  C20 UNL     1      25.771   7.642  12.394  1.00  0.00     0.035 C 
ENDROOT
BRANCH   4  11
HETATM   11  O3  UNL     1      28.957   7.838  12.346  1.00  0.00    -0.349 OA
BRANCH  11  12
HETATM   12  C7  UNL     1      29.608   6.649  12.555  1.00  0.00     0.294 C 
HETATM   13  O4  UNL     1      30.091   6.128  11.341  1.00  0.00    -0.349 OA
HETATM   14  C8  UNL     1      30.472   4.814  11.509  1.00  0.00     0.179 C 
HETATM   15  C10 UNL     1      31.381   4.609  12.673  1.00  0.00     0.180 C 
HETATM   16  C11 UNL     1      31.922   5.942  13.117  1.00  0.00     0.184 C 
HETATM   17  C12 UNL     1      30.747   6.801  13.536  1.00  0.00     0.269 C 
BRANCH  14  18
HETATM   18  C9  UNL     1      31.117   4.240  10.277  1.00  0.00     0.198 C 
BRANCH  18  19
HETATM   19  O5  UNL     1      30.676   2.974   9.945  1.00  0.00    -0.398 OA
ATOM     20  H5  UNL     1      30.466   2.863   9.025  1.00  0.00     0.209 HD
ENDBRANCH  18  19
ENDBRANCH  14  18
BRANCH  15  21
HETATM   21  O6  UNL     1      32.413   3.710  12.403  1.00  0.00    -0.390 OA
ATOM     22  H6  UNL     1      32.487   3.025  13.057  1.00  0.00     0.210 HD
ENDBRANCH  15  21
BRANCH  16  23
HETATM   23  O7  UNL     1      32.731   6.564  12.180  1.00  0.00    -0.391 OA
ATOM     24  H7  UNL     1      32.719   7.513  12.227  1.00  0.00     0.210 HD
ENDBRANCH  16  23
BRANCH  17  25
HETATM   25  N1  UNL     1      30.384   6.370  14.880  1.00  0.00    -0.068 N 
ATOM     26  H13 UNL     1      31.109   6.618  15.554  1.00  0.00     0.275 HD
ATOM     27  H12 UNL     1      29.617   6.930  15.251  1.00  0.00     0.275 HD
ATOM     28  H11 UNL     1      30.167   5.374  14.923  1.00  0.00     0.275 HD
ENDBRANCH  17  25
ENDBRANCH  11  12
ENDBRANCH   4  11
BRANCH   3  29
HETATM   29  O2  UNL     1      27.467   6.867   9.241  1.00  0.00    -0.390 OA
ATOM     30  H2  UNL     1      27.142   6.112   8.763  1.00  0.00     0.210 HD
ENDBRANCH   3  29
BRANCH   5  31
HETATM   31  N2  UNL     1      27.177   9.321   9.555  1.00  0.00    -0.245 N 
ATOM     32  H2  UNL     1      28.005   9.461   8.976  1.00  0.00     0.197 HD
BRANCH  31  33
HETATM   33  N3  UNL     1      26.065   9.384   9.038  1.00  0.00    -0.248 NA
BRANCH  33  34
HETATM   34  N4  UNL     1      25.120   9.428   8.264  1.00  0.00    -0.261 N 
ATOM     35  H42 UNL     1      24.447   9.568   9.018  1.00  0.00     0.193 HD
ATOM     36  H41 UNL     1      24.515   9.431   7.443  1.00  0.00     0.193 HD
ENDBRANCH  33  34
ENDBRANCH  31  33
ENDBRANCH   5  31
BRANCH   2  37
HETATM   37  O1  UNL     1      26.975   4.525  10.899  1.00  0.00    -0.392 OA
ATOM     38  H1  UNL     1      27.841   4.149  10.800  1.00  0.00     0.210 HD
ENDBRANCH   2  37
BRANCH   1  39
HETATM   39  C2  UNL     1      24.839   6.419  10.402  1.00  0.00    -0.029 C 
HETATM   40  C1  UNL     1      23.823   5.582  10.193  1.00  0.00     0.007 C 
ENDBRANCH   1  39
BRANCH   9  41
HETATM   41  N5  UNL     1      23.319   7.907  12.869  1.00  0.00     0.085 N 
HETATM   42  C18 UNL     1      22.449   8.225  14.052  1.00  0.00     0.309 C 
HETATM   43  C19 UNL     1      22.898   8.912  11.918  1.00  0.00     0.309 C 
ENDBRANCH   9  41
TORSDOF 14
ENDMDL
MODEL 3
REMARK VINA RESULT: -1.605436821      3.432      5.771
REMARK  14 active torsions:
REMARK  status: ('A' for Active; 'I' for Inactive)
REMARK    1  A    between atoms: C2_2  and  C3_3 
REMARK    2  A    between atoms: C4_4  and  O1_5 
REMARK    3  A    between atoms: C5_7  and  O2_8 
REMARK    4  A    between atoms: C6_10  and  O3_11 
REMARK    5  A    between atoms: O3_11  and  C7_12 
REMARK    6  A    between atoms: C8_14  and  C9_15 
REMARK    7  A    between atoms: C9_15  and  O5_16 
REMARK    8  A    between atoms: C10_18  and  O6_19 
REMARK    9  A    between atoms: C11_21  and  O7_22 
REMARK   10  A    between atoms: C12_24  and  N1_25 
REMARK   11  A    between atoms: C13_29  and  N2_30 
REMARK   12  A    between atoms: N2_30  and  N3_32 
REMARK   13  A    between atoms: N3_32  and  N4_33 
REMARK   14  A    between atoms: C17_39  and  N5_40 
ROOT
HETATM    1  C3  UNL     1      26.185   9.421  10.443  1.00  0.00     0.045 C 
HETATM    2  C4  UNL     1      27.324   8.697  11.132  1.00  0.00     0.157 C 
HETATM    3  C5  UNL     1      27.015   8.197  12.490  1.00  0.00     0.178 C 
HETATM    4  C6  UNL     1      26.009   7.073  12.545  1.00  0.00     0.181 C 
HETATM    5  C13 UNL     1      24.594   7.498  12.455  1.00  0.00     0.150 C 
HETATM    6  C14 UNL     1      24.117   8.181  11.243  1.00  0.00     0.020 C 
HETATM    7  C15 UNL     1      23.130   7.261  10.508  1.00  0.00     0.009 C 
HETATM    8  C16 UNL     1      23.241   7.597   9.034  1.00  0.00     0.036 C 
HETATM    9  C17 UNL     1      24.259   8.691   8.966  1.00  0.00     0.227 C 
HETATM   10  C20 UNL     1      25.101   8.460  10.171  1.00  0.00     0.035 C 
ENDROOT
BRANCH   4  11
HETATM   11  O3  UNL     1      26.356   5.986  11.749  1.00  0.00    -0.349 OA
BRANCH  11  12
HETATM   12  C7  UNL     1      27.697   5.868  11.482  1.00  0.00     0.294 C 
HETATM   13  O4  UNL     1      28.406   5.526  12.648  1.00  0.00    -0.349 OA
HETATM   14  C8  UNL     1      29.758   5.702  12.447  1.00  0.00     0.179 C 
HETATM   15  C10 UNL     1      30.259   5.045  11.205  1.00  0.00     0.180 C 
HETATM   16  C11 UNL     1      29.225   4.067  10.713  1.00  0.00     0.184 C 
HETATM   17  C12 UNL     1      27.964   4.847  10.402  1.00  0.00     0.269 C 
BRANCH  14  18
HETATM   18  C9  UNL     1      30.580   5.230  13.615  1.00  0.00     0.198 C 
BRANCH  18  19
HETATM   19  O5  UNL     1      30.256   3.963  14.060  1.00  0.00    -0.398 OA
ATOM     20  H5  UNL     1      29.323   3.810  14.155  1.00  0.00     0.209 HD
ENDBRANCH  18  19
ENDBRANCH  14  18
BRANCH  15  21
HETATM   21  O6  UNL     1      31.496   4.425  11.381  1.00  0.00    -0.390 OA
ATOM     22  H6  UNL     1      31.849   4.069  10.573  1.00  0.00     0.210 HD
ENDBRANCH  15  21
BRANCH  16  23
HETATM   23  O7  UNL     1      28.997   3.005  11.572  1.00  0.00    -0.391 OA
ATOM     24  H7  UNL     1      29.283   2.164  11.233  1.00  0.00     0.210 HD
ENDBRANCH  16  23
BRANCH  17  25
HETATM   25  N1  UNL     1      28.174   5.460   9.097  1.00  0.00    -0.068 N 
ATOM     26  H13 UNL     1      27.398   5.256   8.466  1.00  0.00     0.275 HD
ATOM     27  H12 UNL     1      28.079   6.474   9.147  1.00  0.00     0.275 HD
ATOM     28  H11 UNL     1      29.066   5.194   8.682  1.00  0.00     0.275 HD
ENDBRANCH  17  25
ENDBRANCH  11  12
ENDBRANCH   4  11
BRANCH   3  29
HETATM   29  O2  UNL     1      26.650   9.137  13.421  1.00  0.00    -0.390 OA
ATOM     30  H2  UNL     1      25.718   9.282  13.535  1.00  0.00     0.210 HD
ENDBRANCH   3  29
BRANCH   5  31
HETATM   31  N2  UNL     1      24.318   8.295  13.666  1.00  0.00    -0.245 N 
ATOM     32  H2  UNL     1      25.031   8.936  14.013  1.00  0.00     0.197 HD
BRANCH  31  33
HETATM   33  N3  UNL     1      23.250   8.203  14.264  1.00  0.00    -0.248 NA
BRANCH  33  34
HETATM   34  N4  UNL     1      22.250   7.814  14.848  1.00  0.00    -0.261 N 
ATOM     35  H42 UNL     1      22.451   6.835  14.641  1.00  0.00     0.193 HD
ATOM     36  H41 UNL     1      21.381   7.738  15.377  1.00  0.00     0.193 HD
ENDBRANCH  33  34
ENDBRANCH  31  33
ENDBRANCH   5  31
BRANCH   2  37
HETATM   37  O1  UNL     1      28.471   9.479  11.175  1.00  0.00    -0.392 OA
ATOM     38  H1  UNL     1      29.219   9.021  10.810  1.00  0.00     0.210 HD
ENDBRANCH   2  37
BRANCH   1  39
HETATM   39  C2  UNL     1      25.836  10.682  11.096  1.00  0.00    -0.029 C 
HETATM   40  C1  UNL     1      26.269  11.014  12.312  1.00  0.00     0.007 C 
ENDBRANCH   1  39
BRANCH   9  41
HETATM   41  N5  UNL     1      23.750   9.979   8.695  1.00  0.00     0.085 N 
HETATM   42  C18 UNL     1      24.458  10.473   7.466  1.00  0.00     0.309 C 
HETATM   43  C19 UNL     1      22.366  10.043   8.280  1.00  0.00     0.309 C 
ENDBRANCH   9  41
TORSDOF 14
ENDMDL
MODEL 4
REMARK VINA RESULT: -1.288745322      1.479      1.998
REMARK  14 active torsions:
REMARK  status: ('A' for Active; 'I' for Inactive)
REMARK    1  A    between atoms: C2_2  and  C3_3 
REMARK    2  A    between atoms: C4_4  and  O1_5 
REMARK    3  A    between atoms: C5_7  and  O2_8 
REMARK    4  A    between atoms: C6_10  and  O3_11 
REMARK    5  A    between atoms: O3_11  and  C7_12 
REMARK    6  A    between atoms: C8_14  and  C9_15 
REMARK    7  A    between atoms: C9_15  and  O5_16 
REMARK    8  A    between atoms: C10_18  and  O6_19 
REMARK    9  A    between atoms: C11_21  and  O7_22 
REMARK   10  A    between atoms: C12_24  and  N1_25 
REMARK   11  A    between atoms: C13_29  and  N2_30 
REMARK   12  A    between atoms: N2_30  and  N3_32 
REMARK   13  A    between atoms: N3_32  and  N4_33 
REMARK   14  A    between atoms: C17_39  and  N5_40 
ROOT
HETATM    1  C3  UNL     1      28.084   8.062  11.766  1.00  0.00     0.045 C 
HETATM    2  C4  UNL     1      29.595   8.088  11.878  1.00  0.00     0.157 C 
HETATM    3  C5  UNL     1      30.185   6.941  12.605  1.00  0.00     0.178 C 
HETATM    4  C6  UNL     1      30.065   5.609  11.906  1.00  0.00     0.181 C 
HETATM    5  C13 UNL     1      28.753   4.941  12.060  1.00  0.00     0.150 C 
HETATM    6  C14 UNL     1      27.542   5.591  11.536  1.00  0.00     0.020 C 
HETATM    7  C15 UNL     1      27.005   4.769  10.355  1.00  0.00     0.009 C 
HETATM    8  C16 UNL     1      26.309   5.746   9.429  1.00  0.00     0.036 C 
HETATM    9  C17 UNL     1      26.449   7.076  10.099  1.00  0.00     0.227 C 
HETATM   10  C20 UNL     1      27.686   6.928  10.914  1.00  0.00     0.035 C 
ENDROOT
BRANCH   4  11
HETATM   11  O3  UNL     1      30.581   5.618  10.614  1.00  0.00    -0.349 OA
BRANCH  11  12
HETATM   12  C7  UNL     1      30.307   4.497   9.873  1.00  0.00     0.294 C 
HETATM   13  O4  UNL     1      29.556   4.830   8.730  1.00  0.00    -0.349 OA
HETATM   14  C8  UNL     1      29.035   3.688   8.159  1.00  0.00     0.179 C 
HETATM   15  C10 UNL     1      30.055   2.621   7.939  1.00  0.00     0.180 C 
HETATM   16  C11 UNL     1      31.430   3.221   8.061  1.00  0.00     0.184 C 
HETATM   17  C12 UNL     1      31.569   3.775   9.464  1.00  0.00     0.269 C 
BRANCH  14  18
HETATM   18  C9  UNL     1      28.330   3.965   6.859  1.00  0.00     0.198 C 
BRANCH  18  19
HETATM   19  O5  UNL     1      28.998   4.843   6.029  1.00  0.00    -0.398 OA
ATOM     20  H5  UNL     1      29.511   4.422   5.349  1.00  0.00     0.209 HD
ENDBRANCH  18  19
ENDBRANCH  14  18
BRANCH  15  21
HETATM   21  O6  UNL     1      29.897   1.964   6.719  1.00  0.00    -0.390 OA
ATOM     22  H6  UNL     1      29.184   2.317   6.199  1.00  0.00     0.210 HD
ENDBRANCH  15  21
BRANCH  16  23
HETATM   23  O7  UNL     1      31.727   4.158   7.086  1.00  0.00    -0.391 OA
ATOM     24  H7  UNL     1      32.306   3.838   6.404  1.00  0.00     0.210 HD
ENDBRANCH  16  23
BRANCH  17  25
HETATM   25  N1  UNL     1      31.862   2.637  10.326  1.00  0.00    -0.068 N 
ATOM     26  H13 UNL     1      31.573   2.820  11.288  1.00  0.00     0.275 HD
ATOM     27  H12 UNL     1      31.248   1.850  10.118  1.00  0.00     0.275 HD
ATOM     28  H11 UNL     1      32.843   2.360  10.283  1.00  0.00     0.275 HD
ENDBRANCH  17  25
ENDBRANCH  11  12
ENDBRANCH   4  11
BRANCH   3  29
HETATM   29  O2  UNL     1      29.790   6.772  13.908  1.00  0.00    -0.390 OA
ATOM     30  H2  UNL     1      30.453   6.911  14.574  1.00  0.00     0.210 HD
ENDBRANCH   3  29
BRANCH   5  31
HETATM   31  N2  UNL     1      28.614   4.616  13.492  1.00  0.00    -0.245 N 
ATOM     32  H2  UNL     1      27.765   4.891  13.985  1.00  0.00     0.197 HD
BRANCH  31  33
HETATM   33  N3  UNL     1      29.497   4.021  14.103  1.00  0.00    -0.248 NA
BRANCH  33  34
HETATM   34  N4  UNL     1      30.302   3.627  14.934  1.00  0.00    -0.261 N 
ATOM     35  H42 UNL     1      30.984   3.368  14.221  1.00  0.00     0.193 HD
ATOM     36  H41 UNL     1      30.791   3.369  15.791  1.00  0.00     0.193 HD
ENDBRANCH  33  34
ENDBRANCH  31  33
ENDBRANCH   5  31
BRANCH   2  37
HETATM   37  O1  UNL     1      30.043   9.275  12.442  1.00  0.00    -0.392 OA
ATOM     38  H1  UNL     1      29.318   9.827  12.711  1.00  0.00     0.210 HD
ENDBRANCH   2  37
BRANCH   1  39
HETATM   39  C2  UNL     1      27.416   8.219  13.057  1.00  0.00    -0.029 C 
HETATM   40  C1  UNL     1      26.426   9.088  13.262  1.00  0.00     0.007 C 
ENDBRANCH   1  39
BRANCH   9  41
HETATM   41  N5  UNL     1      25.272   7.588  10.687  1.00  0.00     0.085 N 
HETATM   42  C18 UNL     1      24.971   8.884   9.990  1.00  0.00     0.309 C 
HETATM   43  C19 UNL     1      24.060   6.837  10.444  1.00  0.00     0.309 C 
ENDBRANCH   9  41
TORSDOF 14
ENDMDL
MODEL 5
REMARK VINA RESULT: -1.188373034      3.395      6.090
REMARK  14 active torsions:
REMARK  status: ('A' for Active; 'I' for Inactive)
REMARK    1  A    between atoms: C2_2  and  C3_3 
REMARK    2  A    between atoms: C4_4  and  O1_5 
REMARK    3  A    between atoms: C5_7  and  O2_8 
REMARK    4  A    between atoms: C6_10  and  O3_11 
REMARK    5  A    between atoms: O3_11  and  C7_12 
REMARK    6  A    between atoms: C8_14  and  C9_15 
REMARK    7  A    between atoms: C9_15  and  O5_16 
REMARK    8  A    between atoms: C10_18  and  O6_19 
REMARK    9  A    between atoms: C11_21  and  O7_22 
REMARK   10  A    between atoms: C12_24  and  N1_25 
REMARK   11  A    between atoms: C13_29  and  N2_30 
REMARK   12  A    between atoms: N2_30  and  N3_32 
REMARK   13  A    between atoms: N3_32  and  N4_33 
REMARK   14  A    between atoms: C17_39  and  N5_40 
ROOT
HETATM    1  C3  UNL     1      30.042   3.484  12.563  1.00  0.00     0.045 C 
HETATM    2  C4  UNL     1      29.126   4.014  13.648  1.00  0.00     0.157 C 
HETATM    3  C5  UNL     1      29.235   5.469  13.899  1.00  0.00     0.178 C 
HETATM    4  C6  UNL     1      28.739   6.352  12.779  1.00  0.00     0.181 C 
HETATM    5  C13 UNL     1      29.699   6.544  11.668  1.00  0.00     0.150 C 
HETATM    6  C14 UNL     1      30.134   5.383  10.877  1.00  0.00     0.020 C 
HETATM    7  C15 UNL     1      29.575   5.511   9.453  1.00  0.00     0.009 C 
HETATM    8  C16 UNL     1      29.381   4.099   8.935  1.00  0.00     0.036 C 
HETATM    9  C17 UNL     1      29.840   3.215  10.051  1.00  0.00     0.227 C 
HETATM   10  C20 UNL     1      29.625   4.047  11.267  1.00  0.00     0.035 C 
ENDROOT
BRANCH   4  11
HETATM   11  O3  UNL     1      27.432   6.072  12.397  1.00  0.00    -0.349 OA
BRANCH  11  12
HETATM   12  C7  UNL     1      26.865   6.994  11.553  1.00  0.00     0.294 C 
HETATM   13  O4  UNL     1      25.515   6.681  11.313  1.00  0.00    -0.349 OA
HETATM   14  C8  UNL     1      25.041   7.420  10.250  1.00  0.00     0.179 C 
HETATM   15  C10 UNL     1      25.325   8.880  10.374  1.00  0.00     0.180 C 
HETATM   16  C11 UNL     1      25.721   9.185  11.794  1.00  0.00     0.184 C 
HETATM   17  C12 UNL     1      26.976   8.396  12.103  1.00  0.00     0.269 C 
BRANCH  14  18
HETATM   18  C9  UNL     1      23.567   7.226  10.025  1.00  0.00     0.198 C 
BRANCH  18  19
HETATM   19  O5  UNL     1      22.803   7.314  11.172  1.00  0.00    -0.398 OA
ATOM     20  H5  UNL     1      21.892   7.070  11.054  1.00  0.00     0.209 HD
ENDBRANCH  18  19
ENDBRANCH  14  18
BRANCH  15  21
HETATM   21  O6  UNL     1      24.254   9.676   9.966  1.00  0.00    -0.390 OA
ATOM     22  H6  UNL     1      23.412   9.322  10.227  1.00  0.00     0.210 HD
ENDBRANCH  15  21
BRANCH  16  23
HETATM   23  O7  UNL     1      24.715   8.971  12.721  1.00  0.00    -0.391 OA
ATOM     24  H7  UNL     1      24.473   9.744  13.217  1.00  0.00     0.210 HD
ENDBRANCH  16  23
BRANCH  17  25
HETATM   25  N1  UNL     1      28.082   9.139  11.512  1.00  0.00    -0.068 N 
ATOM     26  H13 UNL     1      28.573   9.691  12.216  1.00  0.00     0.275 HD
ATOM     27  H12 UNL     1      28.840   8.514  11.237  1.00  0.00     0.275 HD
ATOM     28  H11 UNL     1      27.784   9.722  10.730  1.00  0.00     0.275 HD
ENDBRANCH  17  25
ENDBRANCH  11  12
ENDBRANCH   4  11
BRANCH   3  29
HETATM   29  O2  UNL     1      30.464   5.933  14.292  1.00  0.00    -0.390 OA
ATOM     30  H2  UNL     1      30.620   6.865  14.187  1.00  0.00     0.210 HD
ENDBRANCH   3  29
BRANCH   5  31
HETATM   31  N2  UNL     1      30.849   7.276  12.229  1.00  0.00    -0.245 N 
ATOM     32  H2  UNL     1      30.720   8.234  12.555  1.00  0.00     0.197 HD
BRANCH  31  33
HETATM   33  N3  UNL     1      31.960   6.758  12.314  1.00  0.00    -0.248 NA
BRANCH  33  34
HETATM   34  N4  UNL     1      32.961   6.156  12.672  1.00  0.00    -0.261 N 
ATOM     35  H42 UNL     1      32.624   6.069  13.631  1.00  0.00     0.193 HD
ATOM     36  H41 UNL     1      33.864   5.685  12.727  1.00  0.00     0.193 HD
ENDBRANCH  33  34
ENDBRANCH  31  33
ENDBRANCH   5  31
BRANCH   2  37
HETATM   37  O1  UNL     1      29.297   3.323  14.840  1.00  0.00    -0.392 OA
ATOM     38  H1  UNL     1      29.084   2.403  14.742  1.00  0.00     0.210 HD
ENDBRANCH   2  37
BRANCH   1  39
HETATM   39  C2  UNL     1      31.457   3.567  12.924  1.00  0.00    -0.029 C 
HETATM   40  C1  UNL     1      31.981   2.914  13.961  1.00  0.00     0.007 C 
ENDBRANCH   1  39
BRANCH   9  41
HETATM   41  N5  UNL     1      31.079   2.571   9.846  1.00  0.00     0.085 N 
HETATM   42  C18 UNL     1      31.287   2.499   8.360  1.00  0.00     0.309 C 
HETATM   43  C19 UNL     1      32.254   3.300  10.271  1.00  0.00     0.309 C 
ENDBRANCH   9  41
TORSDOF 14
ENDMDL
