MODEL 1
REMARK VINA RESULT: -6.162380739      0.000      0.000
REMARK  4 active torsions:
REMARK  status: ('A' for Active; 'I' for Inactive)
REMARK    1  A    between atoms: N1_1  and  C1_5 
REMARK    2  A    between atoms: C1_5  and  C2_6 
REMARK    3  A    between atoms: C4_8  and  C5_9 
REMARK    4  A    between atoms: C5_9  and  N2_10 
ROOT
HETATM    1  C2  UNL     1     -27.883  15.346  60.071  1.00  0.00     0.126 C 
HETATM    2  C3  UNL     1     -26.673  14.526  59.763  1.00  0.00     0.055 C 
HETATM    3  C4  UNL     1     -25.848  15.031  58.631  1.00  0.00     0.111 C 
HETATM    4  N3  UNL     1     -26.585  15.326  57.441  1.00  0.00    -0.357 N 
ATOM      5  H3  UNL     1     -26.030  15.811  56.737  1.00  0.00     0.162 HD
HETATM    6  C6  UNL     1     -27.926  15.087  57.030  1.00  0.00     0.203 C 
HETATM    7  N4  UNL     1     -28.145  15.067  55.627  1.00  0.00    -0.062 NA
HETATM    8  N5  UNL     1     -28.934  14.891  57.821  1.00  0.00    -0.278 N 
ATOM      9  H5  UNL     1     -29.829  14.734  57.358  1.00  0.00     0.189 HD
HETATM   10  N6  UNL     1     -28.970  14.863  59.234  1.00  0.00    -0.328 N 
ATOM     11  H6  UNL     1     -29.801  14.486  59.690  1.00  0.00     0.180 HD
ENDROOT
BRANCH   1  12
HETATM   12  C1  UNL     1     -28.268  15.321  61.525  1.00  0.00     0.256 C 
BRANCH  12  13
HETATM   13  N1  UNL     1     -29.565  14.761  61.764  1.00  0.00    -0.077 N 
ATOM     14  H13 UNL     1     -30.283  15.487  61.735  1.00  0.00     0.274 HD
ATOM     15  H12 UNL     1     -29.865  14.194  60.972  1.00  0.00     0.274 HD
ATOM     16  H11 UNL     1     -29.626  14.229  62.632  1.00  0.00     0.274 HD
ENDBRANCH  12  13
ENDBRANCH   1  12
BRANCH   3  17
HETATM   17  C5  UNL     1     -24.728  14.049  58.379  1.00  0.00     0.254 C 
BRANCH  17  18
HETATM   18  N2  UNL     1     -24.522  13.132  59.461  1.00  0.00    -0.077 N 
ATOM     19  H23 UNL     1     -24.199  13.623  60.295  1.00  0.00     0.274 HD
ATOM     20  H22 UNL     1     -25.412  12.776  59.808  1.00  0.00     0.274 HD
ATOM     21  H21 UNL     1     -23.892  12.364  59.227  1.00  0.00     0.274 HD
ENDBRANCH  17  18
ENDBRANCH   3  17
TORSDOF 4
ENDMDL
MODEL 2
REMARK VINA RESULT: -6.122644619      1.110      1.110
REMARK  4 active torsions:
REMARK  status: ('A' for Active; 'I' for Inactive)
REMARK    1  A    between atoms: N1_1  and  C1_5 
REMARK    2  A    between atoms: C1_5  and  C2_6 
REMARK    3  A    between atoms: C4_8  and  C5_9 
REMARK    4  A    between atoms: C5_9  and  N2_10 
ROOT
HETATM    1  C2  UNL     1     -27.582  15.207  60.069  1.00  0.00     0.126 C 
HETATM    2  C3  UNL     1     -26.383  14.462  59.581  1.00  0.00     0.055 C 
HETATM    3  C4  UNL     1     -25.717  15.061  58.392  1.00  0.00     0.111 C 
HETATM    4  N3  UNL     1     -26.598  15.378  57.312  1.00  0.00    -0.357 N 
ATOM      5  H3  UNL     1     -26.150  15.924  56.577  1.00  0.00     0.162 HD
HETATM    6  C6  UNL     1     -27.967  15.095  57.043  1.00  0.00     0.203 C 
HETATM    7  N4  UNL     1     -28.346  15.135  55.675  1.00  0.00    -0.062 NA
HETATM    8  N5  UNL     1     -28.867  14.812  57.932  1.00  0.00    -0.278 N 
ATOM      9  H5  UNL     1     -29.803  14.636  57.565  1.00  0.00     0.189 HD
HETATM   10  N6  UNL     1     -28.738  14.713  59.336  1.00  0.00    -0.328 N 
ATOM     11  H6  UNL     1     -29.494  14.274  59.862  1.00  0.00     0.180 HD
ENDROOT
BRANCH   1  12
HETATM   12  C1  UNL     1     -27.795  15.091  61.553  1.00  0.00     0.256 C 
BRANCH  12  13
HETATM   13  N1  UNL     1     -27.010  14.060  62.167  1.00  0.00    -0.077 N 
ATOM     14  H13 UNL     1     -26.047  14.091  61.829  1.00  0.00     0.274 HD
ATOM     15  H12 UNL     1     -26.852  14.266  63.153  1.00  0.00     0.274 HD
ATOM     16  H11 UNL     1     -27.403  13.126  62.052  1.00  0.00     0.274 HD
ENDBRANCH  12  13
ENDBRANCH   1  12
BRANCH   3  17
HETATM   17  C5  UNL     1     -24.593  14.149  57.962  1.00  0.00     0.254 C 
BRANCH  17  18
HETATM   18  N2  UNL     1     -24.969  13.230  56.928  1.00  0.00    -0.077 N 
ATOM     19  H23 UNL     1     -24.902  12.267  57.258  1.00  0.00     0.274 HD
ATOM     20  H22 UNL     1     -25.972  13.278  56.749  1.00  0.00     0.274 HD
ATOM     21  H21 UNL     1     -24.441  13.354  56.064  1.00  0.00     0.274 HD
ENDBRANCH  17  18
ENDBRANCH   3  17
TORSDOF 4
ENDMDL
MODEL 3
REMARK VINA RESULT: -5.856864020      1.040      3.843
REMARK  4 active torsions:
REMARK  status: ('A' for Active; 'I' for Inactive)
REMARK    1  A    between atoms: N1_1  and  C1_5 
REMARK    2  A    between atoms: C1_5  and  C2_6 
REMARK    3  A    between atoms: C4_8  and  C5_9 
REMARK    4  A    between atoms: C5_9  and  N2_10 
ROOT
HETATM    1  C2  UNL     1     -25.960  14.339  58.965  1.00  0.00     0.126 C 
HETATM    2  C3  UNL     1     -26.622  14.924  60.169  1.00  0.00     0.055 C 
HETATM    3  C4  UNL     1     -28.056  14.558  60.333  1.00  0.00     0.111 C 
HETATM    4  N3  UNL     1     -28.857  14.749  59.164  1.00  0.00    -0.357 N 
ATOM      5  H3  UNL     1     -29.792  14.351  59.250  1.00  0.00     0.162 HD
HETATM    6  C6  UNL     1     -28.630  15.375  57.906  1.00  0.00     0.203 C 
HETATM    7  N4  UNL     1     -29.792  15.802  57.212  1.00  0.00    -0.062 NA
HETATM    8  N5  UNL     1     -27.469  15.578  57.364  1.00  0.00    -0.278 N 
ATOM      9  H5  UNL     1     -27.487  16.042  56.455  1.00  0.00     0.189 HD
HETATM   10  N6  UNL     1     -26.184  15.249  57.851  1.00  0.00    -0.328 N 
ATOM     11  H6  UNL     1     -25.372  15.670  57.399  1.00  0.00     0.180 HD
ENDROOT
BRANCH   1  12
HETATM   12  C1  UNL     1     -24.493  14.074  59.158  1.00  0.00     0.256 C 
BRANCH  12  13
HETATM   13  N1  UNL     1     -23.810  13.717  57.949  1.00  0.00    -0.077 N 
ATOM     14  H13 UNL     1     -23.267  12.863  58.081  1.00  0.00     0.274 HD
ATOM     15  H12 UNL     1     -24.472  13.391  57.245  1.00  0.00     0.274 HD
ATOM     16  H11 UNL     1     -23.225  14.463  57.575  1.00  0.00     0.274 HD
ENDBRANCH  12  13
ENDBRANCH   1  12
BRANCH   3  17
HETATM   17  C5  UNL     1     -28.606  15.300  61.528  1.00  0.00     0.254 C 
BRANCH  17  18
HETATM   18  N2  UNL     1     -29.910  14.855  61.924  1.00  0.00    -0.077 N 
ATOM     19  H23 UNL     1     -29.889  14.467  62.867  1.00  0.00     0.274 HD
ATOM     20  H22 UNL     1     -30.531  15.648  62.081  1.00  0.00     0.274 HD
ATOM     21  H21 UNL     1     -30.327  14.192  61.270  1.00  0.00     0.274 HD
ENDBRANCH  17  18
ENDBRANCH   3  17
TORSDOF 4
ENDMDL
MODEL 4
REMARK VINA RESULT: -5.753284209      1.363      4.243
REMARK  4 active torsions:
REMARK  status: ('A' for Active; 'I' for Inactive)
REMARK    1  A    between atoms: N1_1  and  C1_5 
REMARK    2  A    between atoms: C1_5  and  C2_6 
REMARK    3  A    between atoms: C4_8  and  C5_9 
REMARK    4  A    between atoms: C5_9  and  N2_10 
ROOT
HETATM    1  C2  UNL     1     -25.400  14.723  59.413  1.00  0.00     0.126 C 
HETATM    2  C3  UNL     1     -26.269  14.583  58.207  1.00  0.00     0.055 C 
HETATM    3  C4  UNL     1     -27.385  15.566  58.124  1.00  0.00     0.111 C 
HETATM    4  N3  UNL     1     -28.172  15.676  59.313  1.00  0.00    -0.357 N 
ATOM      5  H3  UNL     1     -28.827  16.458  59.288  1.00  0.00     0.162 HD
HETATM    6  C6  UNL     1     -28.237  14.930  60.523  1.00  0.00     0.203 C 
HETATM    7  N4  UNL     1     -29.458  15.026  61.240  1.00  0.00    -0.062 NA
HETATM    8  N5  UNL     1     -27.287  14.190  61.005  1.00  0.00    -0.278 N 
ATOM      9  H5  UNL     1     -27.501  13.723  61.886  1.00  0.00     0.189 HD
HETATM   10  N6  UNL     1     -25.997  13.938  60.483  1.00  0.00    -0.328 N 
ATOM     11  H6  UNL     1     -25.458  13.167  60.877  1.00  0.00     0.180 HD
ENDROOT
BRANCH   1  12
HETATM   12  C1  UNL     1     -23.974  14.312  59.174  1.00  0.00     0.256 C 
BRANCH  12  13
HETATM   13  N1  UNL     1     -23.766  13.672  57.908  1.00  0.00    -0.077 N 
ATOM     14  H13 UNL     1     -22.876  13.959  57.500  1.00  0.00     0.274 HD
ATOM     15  H12 UNL     1     -23.584  12.676  58.033  1.00  0.00     0.274 HD
ATOM     16  H11 UNL     1     -24.529  13.818  57.247  1.00  0.00     0.274 HD
ENDBRANCH  12  13
ENDBRANCH   1  12
BRANCH   3  17
HETATM   17  C5  UNL     1     -28.225  15.235  56.913  1.00  0.00     0.254 C 
BRANCH  17  18
HETATM   18  N2  UNL     1     -29.630  15.425  57.126  1.00  0.00    -0.077 N 
ATOM     19  H23 UNL     1     -30.068  15.837  56.301  1.00  0.00     0.274 HD
ATOM     20  H22 UNL     1     -30.117  14.529  57.146  1.00  0.00     0.274 HD
ATOM     21  H21 UNL     1     -29.843  15.971  57.960  1.00  0.00     0.274 HD
ENDBRANCH  17  18
ENDBRANCH   3  17
TORSDOF 4
ENDMDL
MODEL 5
REMARK VINA RESULT: -5.657192683      1.485      4.257
REMARK  4 active torsions:
REMARK  status: ('A' for Active; 'I' for Inactive)
REMARK    1  A    between atoms: N1_1  and  C1_5 
REMARK    2  A    between atoms: C1_5  and  C2_6 
REMARK    3  A    between atoms: C4_8  and  C5_9 
REMARK    4  A    between atoms: C5_9  and  N2_10 
ROOT
HETATM    1  C2  UNL     1     -25.761  14.762  60.605  1.00  0.00     0.126 C 
HETATM    2  C3  UNL     1     -26.402  14.518  59.279  1.00  0.00     0.055 C 
HETATM    3  C4  UNL     1     -27.621  15.331  59.014  1.00  0.00     0.111 C 
HETATM    4  N3  UNL     1     -28.591  15.310  60.065  1.00  0.00    -0.357 N 
ATOM      5  H3  UNL     1     -29.339  15.990  59.932  1.00  0.00     0.162 HD
HETATM    6  C6  UNL     1     -28.736  14.545  61.255  1.00  0.00     0.203 C 
HETATM    7  N4  UNL     1     -30.055  14.454  61.772  1.00  0.00    -0.062 NA
HETATM    8  N5  UNL     1     -27.776  13.941  61.885  1.00  0.00    -0.278 N 
ATOM      9  H5  UNL     1     -28.056  13.435  62.725  1.00  0.00     0.189 HD
HETATM   10  N6  UNL     1     -26.398  13.884  61.574  1.00  0.00    -0.328 N 
ATOM     11  H6  UNL     1     -25.822  13.192  62.053  1.00  0.00     0.180 HD
ENDROOT
BRANCH   1  12
HETATM   12  C1  UNL     1     -24.270  14.563  60.595  1.00  0.00     0.256 C 
BRANCH  12  13
HETATM   13  N1  UNL     1     -23.740  14.269  59.296  1.00  0.00    -0.077 N 
ATOM     14  H13 UNL     1     -22.730  14.413  59.278  1.00  0.00     0.274 HD
ATOM     15  H12 UNL     1     -23.773  13.267  59.111  1.00  0.00     0.274 HD
ATOM     16  H11 UNL     1     -24.192  14.789  58.544  1.00  0.00     0.274 HD
ENDBRANCH  12  13
ENDBRANCH   1  12
BRANCH   3  17
HETATM   17  C5  UNL     1     -28.205  14.902  57.689  1.00  0.00     0.254 C 
BRANCH  17  18
HETATM   18  N2  UNL     1     -29.495  15.470  57.425  1.00  0.00    -0.077 N 
ATOM     19  H23 UNL     1     -29.594  16.373  57.889  1.00  0.00     0.274 HD
ATOM     20  H22 UNL     1     -29.565  15.770  56.453  1.00  0.00     0.274 HD
ATOM     21  H21 UNL     1     -30.267  14.851  57.670  1.00  0.00     0.274 HD
ENDBRANCH  17  18
ENDBRANCH   3  17
TORSDOF 4
ENDMDL
