MODEL 1
REMARK VINA RESULT: -4.064588013      0.000      0.000
REMARK  4 active torsions:
REMARK  status: ('A' for Active; 'I' for Inactive)
REMARK    1  A    between atoms: C1_4  and  N2_5 
REMARK    2  A    between atoms: C3_7  and  O1_8 
REMARK    3  A    between atoms: O1_8  and  C4_9 
REMARK    4  A    between atoms: C4_9  and  N3_10 
ROOT
HETATM    1  N2  UNL     1      23.321  69.756  93.375  1.00  0.00    -0.289 N 
HETATM    2  C2  UNL     1      23.306  69.132  92.064  1.00  0.00     0.178 C 
HETATM    3  C3  UNL     1      24.558  68.290  92.058  1.00  0.00     0.159 C 
HETATM    4  C5  UNL     1      25.368  68.963  93.151  1.00  0.00     0.168 C 
HETATM    5  N4  UNL     1      24.327  69.144  94.167  1.00  0.00    -0.136 NA
ENDROOT
BRANCH   3   6
HETATM    6  O1  UNL     1      25.276  68.401  90.881  1.00  0.00    -0.356 OA
BRANCH   6   7
HETATM    7  C4  UNL     1      24.681  67.752  89.816  1.00  0.00     0.397 C 
BRANCH   7   8
HETATM    8  N3  UNL     1      24.324  68.663  88.737  1.00  0.00    -0.058 N 
ATOM      9  H33 UNL     1      23.642  68.240  88.108  1.00  0.00     0.276 HD
ATOM     10  H32 UNL     1      23.765  69.442  89.084  1.00  0.00     0.276 HD
ATOM     11  H31 UNL     1      25.139  68.997  88.222  1.00  0.00     0.276 HD
ENDBRANCH   7   8
ENDBRANCH   6   7
ENDBRANCH   3   6
BRANCH   1  12
HETATM   12  C1  UNL     1      22.512  70.809  93.886  1.00  0.00     0.189 C 
HETATM   13  N1  UNL     1      21.239  70.867  93.706  1.00  0.00    -0.394 N 
ATOM     14  H12 UNL     1      20.806  70.116  93.170  1.00  0.00     0.156 HD
ATOM     15  H11 UNL     1      20.659  71.622  94.073  1.00  0.00     0.156 HD
ENDBRANCH   1  12
TORSDOF 4
ENDMDL
MODEL 2
REMARK VINA RESULT: -4.063541975      4.559      6.469
REMARK  4 active torsions:
REMARK  status: ('A' for Active; 'I' for Inactive)
REMARK    1  A    between atoms: C1_4  and  N2_5 
REMARK    2  A    between atoms: C3_7  and  O1_8 
REMARK    3  A    between atoms: O1_8  and  C4_9 
REMARK    4  A    between atoms: C4_9  and  N3_10 
ROOT
HETATM    1  N2  UNL     1      20.184  70.040  94.015  1.00  0.00    -0.289 N 
HETATM    2  C2  UNL     1      20.203  68.669  94.490  1.00  0.00     0.178 C 
HETATM    3  C3  UNL     1      18.845  68.494  95.124  1.00  0.00     0.159 C 
HETATM    4  C5  UNL     1      18.456  69.938  95.383  1.00  0.00     0.168 C 
HETATM    5  N4  UNL     1      18.860  70.545  94.112  1.00  0.00    -0.136 NA
ENDROOT
BRANCH   3   6
HETATM    6  O1  UNL     1      18.901  67.853  96.348  1.00  0.00    -0.356 OA
BRANCH   6   7
HETATM    7  C4  UNL     1      19.255  68.692  97.389  1.00  0.00     0.397 C 
BRANCH   7   8
HETATM    8  N3  UNL     1      20.436  68.226  98.103  1.00  0.00    -0.058 N 
ATOM      9  H33 UNL     1      20.512  68.673  99.017  1.00  0.00     0.276 HD
ATOM     10  H32 UNL     1      20.326  67.258  98.402  1.00  0.00     0.276 HD
ATOM     11  H31 UNL     1      21.292  68.349  97.562  1.00  0.00     0.276 HD
ENDBRANCH   7   8
ENDBRANCH   6   7
ENDBRANCH   3   6
BRANCH   1  12
HETATM   12  C1  UNL     1      21.248  70.841  93.515  1.00  0.00     0.189 C 
HETATM   13  N1  UNL     1      22.352  71.018  94.152  1.00  0.00    -0.394 N 
ATOM     14  H12 UNL     1      22.452  70.557  95.056  1.00  0.00     0.156 HD
ATOM     15  H11 UNL     1      23.115  71.592  93.794  1.00  0.00     0.156 HD
ENDBRANCH   1  12
TORSDOF 4
ENDMDL
MODEL 3
REMARK VINA RESULT: -4.046448789      5.414      7.185
REMARK  4 active torsions:
REMARK  status: ('A' for Active; 'I' for Inactive)
REMARK    1  A    between atoms: C1_4  and  N2_5 
REMARK    2  A    between atoms: C3_7  and  O1_8 
REMARK    3  A    between atoms: O1_8  and  C4_9 
REMARK    4  A    between atoms: C4_9  and  N3_10 
ROOT
HETATM    1  N2  UNL     1      17.714  70.848  97.565  1.00  0.00    -0.289 N 
HETATM    2  C2  UNL     1      17.348  71.188  96.203  1.00  0.00     0.178 C 
HETATM    3  C3  UNL     1      17.743  69.964  95.413  1.00  0.00     0.159 C 
HETATM    4  C5  UNL     1      18.750  69.325  96.351  1.00  0.00     0.168 C 
HETATM    5  N4  UNL     1      18.040  69.467  97.625  1.00  0.00    -0.136 NA
ENDROOT
BRANCH   3   6
HETATM    6  O1  UNL     1      18.406  70.272  94.239  1.00  0.00    -0.356 OA
BRANCH   6   7
HETATM    7  C4  UNL     1      19.760  69.997  94.287  1.00  0.00     0.397 C 
BRANCH   7   8
HETATM    8  N3  UNL     1      20.566  71.068  93.718  1.00  0.00    -0.058 N 
ATOM      9  H33 UNL     1      20.568  71.889  94.323  1.00  0.00     0.276 HD
ATOM     10  H32 UNL     1      21.559  70.837  93.753  1.00  0.00     0.276 HD
ATOM     11  H31 UNL     1      20.279  71.311  92.770  1.00  0.00     0.276 HD
ENDBRANCH   7   8
ENDBRANCH   6   7
ENDBRANCH   3   6
BRANCH   1  12
HETATM   12  C1  UNL     1      17.771  71.674  98.722  1.00  0.00     0.189 C 
HETATM   13  N1  UNL     1      17.863  72.957  98.664  1.00  0.00    -0.394 N 
ATOM     14  H12 UNL     1      17.894  73.384  97.739  1.00  0.00     0.156 HD
ATOM     15  H11 UNL     1      17.904  73.550  99.493  1.00  0.00     0.156 HD
ENDBRANCH   1  12
TORSDOF 4
ENDMDL
MODEL 4
REMARK VINA RESULT: -4.045672616      1.932      4.242
REMARK  4 active torsions:
REMARK  status: ('A' for Active; 'I' for Inactive)
REMARK    1  A    between atoms: C1_4  and  N2_5 
REMARK    2  A    between atoms: C3_7  and  O1_8 
REMARK    3  A    between atoms: O1_8  and  C4_9 
REMARK    4  A    between atoms: C4_9  and  N3_10 
ROOT
HETATM    1  N2  UNL     1      24.683  68.189  90.884  1.00  0.00    -0.289 N 
HETATM    2  C2  UNL     1      23.813  68.776  91.886  1.00  0.00     0.178 C 
HETATM    3  C3  UNL     1      24.742  69.058  93.042  1.00  0.00     0.159 C 
HETATM    4  C5  UNL     1      25.888  68.113  92.730  1.00  0.00     0.168 C 
HETATM    5  N4  UNL     1      26.033  68.351  91.291  1.00  0.00    -0.136 NA
ENDROOT
BRANCH   3   6
HETATM    6  O1  UNL     1      24.212  68.680  94.262  1.00  0.00    -0.356 OA
BRANCH   6   7
HETATM    7  C4  UNL     1      22.839  68.826  94.330  1.00  0.00     0.397 C 
BRANCH   7   8
HETATM    8  N3  UNL     1      22.442  70.080  94.955  1.00  0.00    -0.058 N 
ATOM      9  H33 UNL     1      21.666  70.511  94.453  1.00  0.00     0.276 HD
ATOM     10  H32 UNL     1      21.984  69.914  95.851  1.00  0.00     0.276 HD
ATOM     11  H31 UNL     1      23.221  70.730  95.055  1.00  0.00     0.276 HD
ENDBRANCH   7   8
ENDBRANCH   6   7
ENDBRANCH   3   6
BRANCH   1  12
HETATM   12  C1  UNL     1      24.349  67.536  89.664  1.00  0.00     0.189 C 
HETATM   13  N1  UNL     1      23.980  68.171  88.607  1.00  0.00    -0.394 N 
ATOM     14  H12 UNL     1      23.930  69.188  88.663  1.00  0.00     0.156 HD
ATOM     15  H11 UNL     1      23.741  67.703  87.733  1.00  0.00     0.156 HD
ENDBRANCH   1  12
TORSDOF 4
ENDMDL
MODEL 5
REMARK VINA RESULT: -4.034572719      3.851      5.176
REMARK  4 active torsions:
REMARK  status: ('A' for Active; 'I' for Inactive)
REMARK    1  A    between atoms: C1_4  and  N2_5 
REMARK    2  A    between atoms: C3_7  and  O1_8 
REMARK    3  A    between atoms: O1_8  and  C4_9 
REMARK    4  A    between atoms: C4_9  and  N3_10 
ROOT
HETATM    1  N2  UNL     1      22.207  68.002  95.338  1.00  0.00    -0.289 N 
HETATM    2  C2  UNL     1      20.971  68.219  94.608  1.00  0.00     0.178 C 
HETATM    3  C3  UNL     1      21.294  69.385  93.705  1.00  0.00     0.159 C 
HETATM    4  C5  UNL     1      22.484  69.991  94.425  1.00  0.00     0.168 C 
HETATM    5  N4  UNL     1      23.238  68.775  94.743  1.00  0.00    -0.136 NA
ENDROOT
BRANCH   3   6
HETATM    6  O1  UNL     1      20.293  70.339  93.680  1.00  0.00    -0.356 OA
BRANCH   6   7
HETATM    7  C4  UNL     1      19.217  70.024  94.489  1.00  0.00     0.397 C 
BRANCH   7   8
HETATM    8  N3  UNL     1      18.424  71.193  94.842  1.00  0.00    -0.058 N 
ATOM      9  H33 UNL     1      18.269  71.241  95.849  1.00  0.00     0.276 HD
ATOM     10  H32 UNL     1      18.960  72.051  94.718  1.00  0.00     0.276 HD
ATOM     11  H31 UNL     1      17.541  71.234  94.332  1.00  0.00     0.276 HD
ENDBRANCH   7   8
ENDBRANCH   6   7
ENDBRANCH   3   6
BRANCH   1  12
HETATM   12  C1  UNL     1      22.457  67.177  96.470  1.00  0.00     0.189 C 
HETATM   13  N1  UNL     1      21.812  67.292  97.578  1.00  0.00    -0.394 N 
ATOM     14  H12 UNL     1      21.092  68.012  97.630  1.00  0.00     0.156 HD
ATOM     15  H11 UNL     1      21.992  66.700  98.389  1.00  0.00     0.156 HD
ENDBRANCH   1  12
TORSDOF 4
ENDMDL
