MODEL 1
REMARK VINA RESULT: -4.669998363      0.000      0.000
REMARK  3 active torsions:
REMARK  status: ('A' for Active; 'I' for Inactive)
REMARK    1  A    between atoms: C1_2  and  N1_3 
REMARK    2  A    between atoms: N1_3  and  N2_5 
REMARK    3  A    between atoms: N2_5  and  C2_7 
ROOT
HETATM    1  C2  UNL     1      19.711  69.532  94.561  1.00  0.00     0.715 A 
HETATM    2  N3  UNL     1      20.661  68.644  94.203  1.00  0.00    -0.127 N 
ATOM      3  H3  UNL     1      20.634  67.648  94.422  1.00  0.00     0.206 HD
HETATM    4  N4  UNL     1      21.636  69.243  93.526  1.00  0.00    -0.237 N 
ATOM      5  H4  UNL     1      22.469  68.797  93.143  1.00  0.00     0.192 HD
HETATM    6  C3  UNL     1      21.315  70.550  93.442  1.00  0.00     0.353 A 
HETATM    7  O2  UNL     1      21.960  71.476  92.887  1.00  0.00    -0.245 OA
HETATM    8  N5  UNL     1      20.139  70.714  94.077  1.00  0.00    -0.137 N 
ATOM      9  H5  UNL     1      19.646  71.601  94.177  1.00  0.00     0.189 HD
ENDROOT
BRANCH   1  10
HETATM   10  N2  UNL     1      18.504  69.285  95.295  1.00  0.00    -0.128 N 
ATOM     11  H2  UNL     1      17.851  68.552  95.018  1.00  0.00     0.205 HD
BRANCH  10  12
HETATM   12  N1  UNL     1      18.268  70.090  96.394  1.00  0.00    -0.263 N 
ATOM     13  H1  UNL     1      18.771  69.923  97.265  1.00  0.00     0.190 HD
BRANCH  12  14
HETATM   14  C1  UNL     1      17.331  71.140  96.312  1.00  0.00     0.369 C 
HETATM   15  O1  UNL     1      17.444  71.998  95.364  1.00  0.00    -0.282 OA
ENDBRANCH  12  14
ENDBRANCH  10  12
ENDBRANCH   1  10
TORSDOF 3
ENDMDL
MODEL 2
REMARK VINA RESULT: -4.569647270      1.816      2.021
REMARK  3 active torsions:
REMARK  status: ('A' for Active; 'I' for Inactive)
REMARK    1  A    between atoms: C1_2  and  N1_3 
REMARK    2  A    between atoms: N1_3  and  N2_5 
REMARK    3  A    between atoms: N2_5  and  C2_7 
ROOT
HETATM    1  C2  UNL     1      20.127  70.420  94.405  1.00  0.00     0.715 A 
HETATM    2  N3  UNL     1      21.082  71.203  93.862  1.00  0.00    -0.127 N 
ATOM      3  H3  UNL     1      20.900  72.054  93.329  1.00  0.00     0.206 HD
HETATM    4  N4  UNL     1      22.292  70.717  94.118  1.00  0.00    -0.237 N 
ATOM      5  H4  UNL     1      23.182  71.119  93.822  1.00  0.00     0.192 HD
HETATM    6  C3  UNL     1      22.123  69.592  94.841  1.00  0.00     0.353 A 
HETATM    7  O2  UNL     1      23.004  68.817  95.294  1.00  0.00    -0.245 OA
HETATM    8  N5  UNL     1      20.798  69.421  95.010  1.00  0.00    -0.137 N 
ATOM      9  H5  UNL     1      20.367  68.650  95.519  1.00  0.00     0.189 HD
ENDROOT
BRANCH   1  10
HETATM   10  N2  UNL     1      18.705  70.601  94.357  1.00  0.00    -0.128 N 
ATOM     11  H2  UNL     1      18.122  70.082  93.699  1.00  0.00     0.205 HD
BRANCH  10  12
HETATM   12  N1  UNL     1      18.163  71.511  95.245  1.00  0.00    -0.263 N 
ATOM     13  H1  UNL     1      18.448  72.490  95.209  1.00  0.00     0.190 HD
BRANCH  12  14
HETATM   14  C1  UNL     1      17.216  71.088  96.200  1.00  0.00     0.369 C 
HETATM   15  O1  UNL     1      16.017  70.839  95.815  1.00  0.00    -0.282 OA
ENDBRANCH  12  14
ENDBRANCH  10  12
ENDBRANCH   1  10
TORSDOF 3
ENDMDL
MODEL 3
REMARK VINA RESULT: -4.542019109      3.381      4.165
REMARK  3 active torsions:
REMARK  status: ('A' for Active; 'I' for Inactive)
REMARK    1  A    between atoms: C1_2  and  N1_3 
REMARK    2  A    between atoms: N1_3  and  N2_5 
REMARK    3  A    between atoms: N2_5  and  C2_7 
ROOT
HETATM    1  C2  UNL     1      21.872  68.914  95.976  1.00  0.00     0.715 A 
HETATM    2  N3  UNL     1      21.551  69.038  97.279  1.00  0.00    -0.127 N 
ATOM      3  H3  UNL     1      21.402  69.927  97.758  1.00  0.00     0.206 HD
HETATM    4  N4  UNL     1      21.453  67.844  97.856  1.00  0.00    -0.237 N 
ATOM      5  H4  UNL     1      21.222  67.660  98.832  1.00  0.00     0.192 HD
HETATM    6  C3  UNL     1      21.718  66.923  96.908  1.00  0.00     0.353 A 
HETATM    7  O2  UNL     1      21.736  65.670  97.023  1.00  0.00    -0.245 OA
HETATM    8  N5  UNL     1      21.973  67.588  95.765  1.00  0.00    -0.137 N 
ATOM      9  H5  UNL     1      22.206  67.151  94.873  1.00  0.00     0.189 HD
ENDROOT
BRANCH   1  10
HETATM   10  N2  UNL     1      22.067  69.958  95.012  1.00  0.00    -0.128 N 
ATOM     11  H2  UNL     1      22.882  70.571  95.044  1.00  0.00     0.205 HD
BRANCH  10  12
HETATM   12  N1  UNL     1      21.096  70.094  94.036  1.00  0.00    -0.263 N 
ATOM     13  H1  UNL     1      21.366  70.295  93.073  1.00  0.00     0.190 HD
BRANCH  12  14
HETATM   14  C1  UNL     1      19.734  69.957  94.372  1.00  0.00     0.369 C 
HETATM   15  O1  UNL     1      18.906  70.856  93.983  1.00  0.00    -0.282 OA
ENDBRANCH  12  14
ENDBRANCH  10  12
ENDBRANCH   1  10
TORSDOF 3
ENDMDL
MODEL 4
REMARK VINA RESULT: -4.536317796      2.652      2.904
REMARK  3 active torsions:
REMARK  status: ('A' for Active; 'I' for Inactive)
REMARK    1  A    between atoms: C1_2  and  N1_3 
REMARK    2  A    between atoms: N1_3  and  N2_5 
REMARK    3  A    between atoms: N2_5  and  C2_7 
ROOT
HETATM    1  C2  UNL     1      21.578  69.459  95.479  1.00  0.00     0.715 A 
HETATM    2  N3  UNL     1      20.360  69.622  94.925  1.00  0.00    -0.127 N 
ATOM      3  H3  UNL     1      19.494  69.239  95.306  1.00  0.00     0.206 HD
HETATM    4  N4  UNL     1      20.440  70.351  93.816  1.00  0.00    -0.237 N 
ATOM      5  H4  UNL     1      19.664  70.619  93.210  1.00  0.00     0.192 HD
HETATM    6  C3  UNL     1      21.738  70.668  93.642  1.00  0.00     0.353 A 
HETATM    7  O2  UNL     1      22.258  71.345  92.719  1.00  0.00    -0.245 OA
HETATM    8  N5  UNL     1      22.423  70.118  94.663  1.00  0.00    -0.137 N 
ATOM      9  H5  UNL     1      23.432  70.190  94.798  1.00  0.00     0.189 HD
ENDROOT
BRANCH   1  10
HETATM   10  N2  UNL     1      21.915  68.743  96.675  1.00  0.00    -0.128 N 
ATOM     11  H2  UNL     1      22.409  67.851  96.644  1.00  0.00     0.205 HD
BRANCH  10  12
HETATM   12  N1  UNL     1      21.539  69.322  97.874  1.00  0.00    -0.263 N 
ATOM     13  H1  UNL     1      22.161  69.983  98.338  1.00  0.00     0.190 HD
BRANCH  12  14
HETATM   14  C1  UNL     1      20.296  68.997  98.454  1.00  0.00     0.369 C 
HETATM   15  O1  UNL     1      19.482  68.251  97.800  1.00  0.00    -0.282 OA
ENDBRANCH  12  14
ENDBRANCH  10  12
ENDBRANCH   1  10
TORSDOF 3
ENDMDL
MODEL 5
REMARK VINA RESULT: -4.531857990      2.904      4.316
REMARK  3 active torsions:
REMARK  status: ('A' for Active; 'I' for Inactive)
REMARK    1  A    between atoms: C1_2  and  N1_3 
REMARK    2  A    between atoms: N1_3  and  N2_5 
REMARK    3  A    between atoms: N2_5  and  C2_7 
ROOT
HETATM    1  C2  UNL     1      21.976  68.763  95.931  1.00  0.00     0.715 A 
HETATM    2  N3  UNL     1      22.408  67.741  96.697  1.00  0.00    -0.127 N 
ATOM      3  H3  UNL     1      23.261  67.208  96.525  1.00  0.00     0.206 HD
HETATM    4  N4  UNL     1      21.572  67.524  97.708  1.00  0.00    -0.237 N 
ATOM      5  H4  UNL     1      21.669  66.810  98.431  1.00  0.00     0.192 HD
HETATM    6  C3  UNL     1      20.574  68.422  97.597  1.00  0.00     0.353 A 
HETATM    7  O2  UNL     1      19.572  68.569  98.343  1.00  0.00    -0.245 OA
HETATM    8  N5  UNL     1      20.831  69.173  96.509  1.00  0.00    -0.137 N 
ATOM      9  H5  UNL     1      20.246  69.938  96.173  1.00  0.00     0.189 HD
ENDROOT
BRANCH   1  10
HETATM   10  N2  UNL     1      22.593  69.307  94.755  1.00  0.00    -0.128 N 
ATOM     11  H2  UNL     1      23.228  68.753  94.180  1.00  0.00     0.205 HD
BRANCH  10  12
HETATM   12  N1  UNL     1      22.284  70.617  94.439  1.00  0.00    -0.263 N 
ATOM     13  H1  UNL     1      22.734  71.382  94.942  1.00  0.00     0.190 HD
BRANCH  12  14
HETATM   14  C1  UNL     1      21.348  70.896  93.423  1.00  0.00     0.369 C 
HETATM   15  O1  UNL     1      20.097  70.778  93.683  1.00  0.00    -0.282 OA
ENDBRANCH  12  14
ENDBRANCH  10  12
ENDBRANCH   1  10
TORSDOF 3
ENDMDL
