MODEL 1
REMARK VINA RESULT: -3.789248809      0.000      0.000
REMARK  6 active torsions:
REMARK  status: ('A' for Active; 'I' for Inactive)
REMARK    1  A    between atoms: N1_1  and  C1_5 
REMARK    2  A    between atoms: C1_5  and  C2_6 
REMARK    3  A    between atoms: C3_8  and  C4_9 
REMARK    4  A    between atoms: C4_9  and  N2_10 
REMARK    5  A    between atoms: N2_10  and  N3_11 
REMARK    6  A    between atoms: C5_14  and  N4_15 
ROOT
HETATM    1  C2  UNL     1      19.314  69.301  94.565  1.00  0.00     0.180 C 
HETATM    2  O1  UNL     1      18.557  70.529  94.593  1.00  0.00    -0.373 OA
HETATM    3  C3  UNL     1      17.792  69.909  95.523  1.00  0.00     0.171 C 
HETATM    4  C5  UNL     1      18.935  69.078  95.969  1.00  0.00     0.243 C 
ENDROOT
BRANCH   1   5
HETATM    5  C1  UNL     1      20.688  69.581  94.128  1.00  0.00     0.263 C 
BRANCH   5   6
HETATM    6  N1  UNL     1      20.764  70.998  93.727  1.00  0.00    -0.077 N 
ATOM      7  H13 UNL     1      19.898  71.335  93.307  1.00  0.00     0.274 HD
ATOM      8  H12 UNL     1      20.786  71.633  94.525  1.00  0.00     0.274 HD
ATOM      9  H11 UNL     1      21.570  71.113  93.113  1.00  0.00     0.274 HD
ENDBRANCH   5   6
ENDBRANCH   1   5
BRANCH   4  10
HETATM   10  N4  UNL     1      19.795  69.525  97.012  1.00  0.00    -0.070 N 
ATOM     11  H43 UNL     1      19.362  70.330  97.466  1.00  0.00     0.274 HD
ATOM     12  H42 UNL     1      19.778  68.836  97.763  1.00  0.00     0.274 HD
ATOM     13  H41 UNL     1      20.767  69.754  96.804  1.00  0.00     0.274 HD
ENDBRANCH   4  10
BRANCH   3  14
HETATM   14  C4  UNL     1      17.074  70.727  96.501  1.00  0.00     0.168 C 
BRANCH  14  15
HETATM   15  N2  UNL     1      15.661  70.729  96.012  1.00  0.00    -0.146 NA
BRANCH  15  16
HETATM   16  N3  UNL     1      15.532  69.523  95.225  1.00  0.00    -0.348 N 
ATOM     17  H32 UNL     1      15.426  68.573  95.579  1.00  0.00     0.172 HD
ATOM     18  H31 UNL     1      15.570  69.833  94.254  1.00  0.00     0.172 HD
ENDBRANCH  15  16
ENDBRANCH  14  15
ENDBRANCH   3  14
TORSDOF 6
ENDMDL
MODEL 2
REMARK VINA RESULT: -3.788922931      3.325      5.663
REMARK  6 active torsions:
REMARK  status: ('A' for Active; 'I' for Inactive)
REMARK    1  A    between atoms: N1_1  and  C1_5 
REMARK    2  A    between atoms: C1_5  and  C2_6 
REMARK    3  A    between atoms: C3_8  and  C4_9 
REMARK    4  A    between atoms: C4_9  and  N2_10 
REMARK    5  A    between atoms: N2_10  and  N3_11 
REMARK    6  A    between atoms: C5_14  and  N4_15 
ROOT
HETATM    1  C2  UNL     1      21.430  68.427  95.398  1.00  0.00     0.180 C 
HETATM    2  O1  UNL     1      22.660  69.176  95.494  1.00  0.00    -0.373 OA
HETATM    3  C3  UNL     1      22.646  69.161  94.140  1.00  0.00     0.171 C 
HETATM    4  C5  UNL     1      21.167  69.093  94.114  1.00  0.00     0.243 C 
ENDROOT
BRANCH   1   5
HETATM    5  C1  UNL     1      20.626  68.646  96.609  1.00  0.00     0.263 C 
BRANCH   5   6
HETATM    6  N1  UNL     1      21.475  69.323  97.608  1.00  0.00    -0.077 N 
ATOM      7  H13 UNL     1      21.784  68.696  98.350  1.00  0.00     0.274 HD
ATOM      8  H12 UNL     1      22.395  69.567  97.242  1.00  0.00     0.274 HD
ATOM      9  H11 UNL     1      20.965  70.133  97.962  1.00  0.00     0.274 HD
ENDBRANCH   5   6
ENDBRANCH   1   5
BRANCH   4  10
HETATM   10  N4  UNL     1      20.385  70.283  94.082  1.00  0.00    -0.070 N 
ATOM     11  H43 UNL     1      19.400  70.023  94.033  1.00  0.00     0.274 HD
ATOM     12  H42 UNL     1      20.431  70.726  95.000  1.00  0.00     0.274 HD
ATOM     13  H41 UNL     1      20.569  70.992  93.372  1.00  0.00     0.274 HD
ENDBRANCH   4  10
BRANCH   3  14
HETATM   14  C4  UNL     1      23.329  70.237  93.418  1.00  0.00     0.168 C 
BRANCH  14  15
HETATM   15  N2  UNL     1      24.650  69.646  93.042  1.00  0.00    -0.146 NA
BRANCH  15  16
HETATM   16  N3  UNL     1      24.533  68.237  93.342  1.00  0.00    -0.348 N 
ATOM     17  H32 UNL     1      24.393  67.819  94.261  1.00  0.00     0.172 HD
ATOM     18  H31 UNL     1      24.622  67.765  92.442  1.00  0.00     0.172 HD
ENDBRANCH  15  16
ENDBRANCH  14  15
ENDBRANCH   3  14
TORSDOF 6
ENDMDL
MODEL 3
REMARK VINA RESULT: -3.760609488      4.080      5.219
REMARK  6 active torsions:
REMARK  status: ('A' for Active; 'I' for Inactive)
REMARK    1  A    between atoms: N1_1  and  C1_5 
REMARK    2  A    between atoms: C1_5  and  C2_6 
REMARK    3  A    between atoms: C3_8  and  C4_9 
REMARK    4  A    between atoms: C4_9  and  N2_10 
REMARK    5  A    between atoms: N2_10  and  N3_11 
REMARK    6  A    between atoms: C5_14  and  N4_15 
ROOT
HETATM    1  C2  UNL     1      22.632  67.253  95.462  1.00  0.00     0.180 C 
HETATM    2  O1  UNL     1      23.629  68.117  94.877  1.00  0.00    -0.373 OA
HETATM    3  C3  UNL     1      22.580  68.884  94.493  1.00  0.00     0.171 C 
HETATM    4  C5  UNL     1      21.773  68.431  95.650  1.00  0.00     0.243 C 
ENDROOT
BRANCH   1   5
HETATM    5  C1  UNL     1      23.229  66.496  96.572  1.00  0.00     0.263 C 
BRANCH   5   6
HETATM    6  N1  UNL     1      22.940  65.065  96.360  1.00  0.00    -0.077 N 
ATOM      7  H13 UNL     1      22.465  64.638  97.155  1.00  0.00     0.274 HD
ATOM      8  H12 UNL     1      22.211  64.909  95.664  1.00  0.00     0.274 HD
ATOM      9  H11 UNL     1      23.814  64.595  96.125  1.00  0.00     0.274 HD
ENDBRANCH   5   6
ENDBRANCH   1   5
BRANCH   4  10
HETATM   10  N4  UNL     1      21.808  69.143  96.884  1.00  0.00    -0.070 N 
ATOM     11  H43 UNL     1      20.870  69.489  97.085  1.00  0.00     0.274 HD
ATOM     12  H42 UNL     1      21.942  68.473  97.640  1.00  0.00     0.274 HD
ATOM     13  H41 UNL     1      22.470  69.909  97.008  1.00  0.00     0.274 HD
ENDBRANCH   4  10
BRANCH   3  14
HETATM   14  C4  UNL     1      22.797  70.316  94.285  1.00  0.00     0.168 C 
BRANCH  14  15
HETATM   15  N2  UNL     1      21.951  70.647  93.097  1.00  0.00    -0.146 NA
BRANCH  15  16
HETATM   16  N3  UNL     1      20.726  71.186  93.644  1.00  0.00    -0.348 N 
ATOM     17  H32 UNL     1      20.608  71.628  94.556  1.00  0.00     0.172 HD
ATOM     18  H31 UNL     1      20.020  71.026  92.925  1.00  0.00     0.172 HD
ENDBRANCH  15  16
ENDBRANCH  14  15
ENDBRANCH   3  14
TORSDOF 6
ENDMDL
MODEL 4
REMARK VINA RESULT: -3.757554731      2.459      3.730
REMARK  6 active torsions:
REMARK  status: ('A' for Active; 'I' for Inactive)
REMARK    1  A    between atoms: N1_1  and  C1_5 
REMARK    2  A    between atoms: C1_5  and  C2_6 
REMARK    3  A    between atoms: C3_8  and  C4_9 
REMARK    4  A    between atoms: C4_9  and  N2_10 
REMARK    5  A    between atoms: N2_10  and  N3_11 
REMARK    6  A    between atoms: C5_14  and  N4_15 
ROOT
HETATM    1  C2  UNL     1      21.733  67.990  95.438  1.00  0.00     0.180 C 
HETATM    2  O1  UNL     1      20.909  69.010  96.043  1.00  0.00    -0.373 OA
HETATM    3  C3  UNL     1      20.292  69.070  94.839  1.00  0.00     0.171 C 
HETATM    4  C5  UNL     1      20.602  67.648  94.561  1.00  0.00     0.243 C 
ENDROOT
BRANCH   1   5
HETATM    5  C1  UNL     1      22.253  67.096  96.481  1.00  0.00     0.263 C 
BRANCH   5   6
HETATM    6  N1  UNL     1      21.656  67.497  97.770  1.00  0.00    -0.077 N 
ATOM      7  H13 UNL     1      22.133  68.293  98.192  1.00  0.00     0.274 HD
ATOM      8  H12 UNL     1      20.738  67.927  97.661  1.00  0.00     0.274 HD
ATOM      9  H11 UNL     1      21.637  66.679  98.379  1.00  0.00     0.274 HD
ENDBRANCH   5   6
ENDBRANCH   1   5
BRANCH   4  10
HETATM   10  N4  UNL     1      19.697  66.618  94.944  1.00  0.00    -0.070 N 
ATOM     11  H43 UNL     1      19.656  65.928  94.195  1.00  0.00     0.274 HD
ATOM     12  H42 UNL     1      20.123  66.076  95.695  1.00  0.00     0.274 HD
ATOM     13  H41 UNL     1      18.744  66.858  95.218  1.00  0.00     0.274 HD
ENDBRANCH   4  10
BRANCH   3  14
HETATM   14  C4  UNL     1      18.901  69.525  94.785  1.00  0.00     0.168 C 
BRANCH  14  15
HETATM   15  N2  UNL     1      18.965  70.814  94.029  1.00  0.00    -0.146 NA
BRANCH  15  16
HETATM   16  N3  UNL     1      20.375  71.065  93.830  1.00  0.00    -0.348 N 
ATOM     17  H32 UNL     1      21.140  70.762  94.433  1.00  0.00     0.172 HD
ATOM     18  H31 UNL     1      20.430  71.604  92.965  1.00  0.00     0.172 HD
ENDBRANCH  15  16
ENDBRANCH  14  15
ENDBRANCH   3  14
TORSDOF 6
ENDMDL
MODEL 5
REMARK VINA RESULT: -3.746982999      2.694      4.668
REMARK  6 active torsions:
REMARK  status: ('A' for Active; 'I' for Inactive)
REMARK    1  A    between atoms: N1_1  and  C1_5 
REMARK    2  A    between atoms: C1_5  and  C2_6 
REMARK    3  A    between atoms: C3_8  and  C4_9 
REMARK    4  A    between atoms: C4_9  and  N2_10 
REMARK    5  A    between atoms: N2_10  and  N3_11 
REMARK    6  A    between atoms: C5_14  and  N4_15 
ROOT
HETATM    1  C2  UNL     1      20.997  68.433  95.360  1.00  0.00     0.180 C 
HETATM    2  O1  UNL     1      21.932  69.516  95.170  1.00  0.00    -0.373 OA
HETATM    3  C3  UNL     1      21.308  69.701  93.983  1.00  0.00     0.171 C 
HETATM    4  C5  UNL     1      20.036  69.164  94.520  1.00  0.00     0.243 C 
ENDROOT
BRANCH   1   5
HETATM    5  C1  UNL     1      20.806  68.196  96.797  1.00  0.00     0.263 C 
BRANCH   5   6
HETATM    6  N1  UNL     1      21.525  69.250  97.537  1.00  0.00    -0.077 N 
ATOM      7  H13 UNL     1      22.513  69.034  97.669  1.00  0.00     0.274 HD
ATOM      8  H12 UNL     1      21.643  70.103  96.991  1.00  0.00     0.274 HD
ATOM      9  H11 UNL     1      21.036  69.411  98.417  1.00  0.00     0.274 HD
ENDBRANCH   5   6
ENDBRANCH   1   5
BRANCH   4  10
HETATM   10  N4  UNL     1      19.081  70.028  95.128  1.00  0.00    -0.070 N 
ATOM     11  H43 UNL     1      18.161  69.816  94.742  1.00  0.00     0.274 HD
ATOM     12  H42 UNL     1      18.962  69.747  96.101  1.00  0.00     0.274 HD
ATOM     13  H41 UNL     1      19.221  71.038  95.098  1.00  0.00     0.274 HD
ENDBRANCH   4  10
BRANCH   3  14
HETATM   14  C4  UNL     1      21.326  71.035  93.380  1.00  0.00     0.168 C 
BRANCH  14  15
HETATM   15  N2  UNL     1      22.610  71.075  92.614  1.00  0.00    -0.146 NA
BRANCH  15  16
HETATM   16  N3  UNL     1      22.995  69.691  92.450  1.00  0.00    -0.348 N 
ATOM     17  H32 UNL     1      23.722  69.196  92.965  1.00  0.00     0.172 HD
ATOM     18  H31 UNL     1      22.385  69.331  91.715  1.00  0.00     0.172 HD
ENDBRANCH  15  16
ENDBRANCH  14  15
ENDBRANCH   3  14
TORSDOF 6
ENDMDL
