MODEL 1
REMARK VINA RESULT: -3.996241233      0.000      0.000
REMARK  4 active torsions:
REMARK  status: ('A' for Active; 'I' for Inactive)
REMARK    1  A    between atoms: N1_2  and  N2_3 
REMARK    2  A    between atoms: N1_2  and  C2_6 
REMARK    3  A    between atoms: C2_6  and  C3_7 
REMARK    4  A    between atoms: C3_7  and  C4_8 
ROOT
HETATM    1  C4  UNL     1      21.755  67.994  96.000  1.00  0.00     0.387 C 
HETATM    2  N3  UNL     1      21.842  69.239  96.733  1.00  0.00    -0.022 N 
ATOM      3  H31 UNL     1      21.806  70.136  96.248  1.00  0.00     0.281 HD
ATOM      4  H32 UNL     1      22.716  69.531  97.169  1.00  0.00     0.281 HD
HETATM    5  C5  UNL     1      20.723  68.780  97.537  1.00  0.00     0.467 C 
HETATM    6  N4  UNL     1      21.068  67.422  97.141  1.00  0.00    -0.022 N 
ATOM      7  H41 UNL     1      21.550  66.793  97.783  1.00  0.00     0.281 HD
ATOM      8  H42 UNL     1      20.348  66.711  97.019  1.00  0.00     0.281 HD
ENDROOT
BRANCH   1   9
HETATM    9  C3  UNL     1      20.890  68.120  94.749  1.00  0.00     0.079 C 
BRANCH   9  10
HETATM   10  C2  UNL     1      21.572  68.933  93.697  1.00  0.00     0.116 C 
BRANCH  10  11
HETATM   11  N1  UNL     1      21.086  70.297  93.643  1.00  0.00    -0.242 NA
HETATM   12  C1  UNL     1      19.748  70.446  94.104  1.00  0.00     0.135 C 
BRANCH  11  13
HETATM   13  N2  UNL     1      21.983  71.229  94.109  1.00  0.00    -0.364 NA
ATOM     14  H22 UNL     1      22.208  71.961  93.435  1.00  0.00     0.171 HD
ATOM     15  H21 UNL     1      22.798  70.854  94.594  1.00  0.00     0.171 HD
ENDBRANCH  11  13
ENDBRANCH  10  11
ENDBRANCH   9  10
ENDBRANCH   1   9
TORSDOF 4
ENDMDL
MODEL 2
REMARK VINA RESULT: -3.974062006      1.384      3.683
REMARK  4 active torsions:
REMARK  status: ('A' for Active; 'I' for Inactive)
REMARK    1  A    between atoms: N1_2  and  N2_3 
REMARK    2  A    between atoms: N1_2  and  C2_6 
REMARK    3  A    between atoms: C2_6  and  C3_7 
REMARK    4  A    between atoms: C3_7  and  C4_8 
ROOT
HETATM    1  C4  UNL     1      21.655  70.169  93.454  1.00  0.00     0.387 C 
HETATM    2  N3  UNL     1      22.596  70.668  94.434  1.00  0.00    -0.022 N 
ATOM      3  H31 UNL     1      22.477  70.463  95.426  1.00  0.00     0.281 HD
ATOM      4  H32 UNL     1      22.637  71.661  94.664  1.00  0.00     0.281 HD
HETATM    5  C5  UNL     1      23.652  70.036  93.662  1.00  0.00     0.467 C 
HETATM    6  N4  UNL     1      22.756  70.069  92.515  1.00  0.00    -0.022 N 
ATOM      7  H41 UNL     1      22.877  70.757  91.772  1.00  0.00     0.281 HD
ATOM      8  H42 UNL     1      22.779  69.334  91.809  1.00  0.00     0.281 HD
ENDROOT
BRANCH   1   9
HETATM    9  C3  UNL     1      21.058  68.825  93.861  1.00  0.00     0.079 C 
BRANCH   9  10
HETATM   10  C2  UNL     1      20.444  68.894  95.221  1.00  0.00     0.116 C 
BRANCH  10  11
HETATM   11  N1  UNL     1      21.299  68.334  96.248  1.00  0.00    -0.242 NA
HETATM   12  C1  UNL     1      22.131  67.277  95.786  1.00  0.00     0.135 C 
BRANCH  11  13
HETATM   13  N2  UNL     1      21.916  69.276  97.037  1.00  0.00    -0.364 NA
ATOM     14  H22 UNL     1      22.215  68.924  97.947  1.00  0.00     0.171 HD
ATOM     15  H21 UNL     1      21.457  70.186  97.080  1.00  0.00     0.171 HD
ENDBRANCH  11  13
ENDBRANCH  10  11
ENDBRANCH   9  10
ENDBRANCH   1   9
TORSDOF 4
ENDMDL
MODEL 3
REMARK VINA RESULT: -3.922676961      0.838      1.345
REMARK  4 active torsions:
REMARK  status: ('A' for Active; 'I' for Inactive)
REMARK    1  A    between atoms: N1_2  and  N2_3 
REMARK    2  A    between atoms: N1_2  and  C2_6 
REMARK    3  A    between atoms: C2_6  and  C3_7 
REMARK    4  A    between atoms: C3_7  and  C4_8 
ROOT
HETATM    1  C4  UNL     1      22.091  68.112  96.061  1.00  0.00     0.387 C 
HETATM    2  N3  UNL     1      21.746  69.329  96.764  1.00  0.00    -0.022 N 
ATOM      3  H31 UNL     1      21.368  70.134  96.263  1.00  0.00     0.281 HD
ATOM      4  H32 UNL     1      22.469  69.935  97.151  1.00  0.00     0.281 HD
HETATM    5  C5  UNL     1      20.901  68.525  97.630  1.00  0.00     0.467 C 
HETATM    6  N4  UNL     1      21.703  67.372  97.245  1.00  0.00    -0.022 N 
ATOM      7  H41 UNL     1      22.404  66.984  97.877  1.00  0.00     0.281 HD
ATOM      8  H42 UNL     1      21.287  66.444  97.172  1.00  0.00     0.281 HD
ENDROOT
BRANCH   1   9
HETATM    9  C3  UNL     1      21.193  67.870  94.851  1.00  0.00     0.079 C 
BRANCH   9  10
HETATM   10  C2  UNL     1      21.018  69.117  94.048  1.00  0.00     0.116 C 
BRANCH  10  11
HETATM   11  N1  UNL     1      22.255  69.852  93.880  1.00  0.00    -0.242 NA
HETATM   12  C1  UNL     1      22.987  69.484  92.718  1.00  0.00     0.135 C 
BRANCH  11  13
HETATM   13  N2  UNL     1      22.138  71.204  94.106  1.00  0.00    -0.364 NA
ATOM     14  H22 UNL     1      22.457  71.784  93.330  1.00  0.00     0.171 HD
ATOM     15  H21 UNL     1      22.458  71.528  95.019  1.00  0.00     0.171 HD
ENDBRANCH  11  13
ENDBRANCH  10  11
ENDBRANCH   9  10
ENDBRANCH   1   9
TORSDOF 4
ENDMDL
MODEL 4
REMARK VINA RESULT: -3.833221750      1.537      3.668
REMARK  4 active torsions:
REMARK  status: ('A' for Active; 'I' for Inactive)
REMARK    1  A    between atoms: N1_2  and  N2_3 
REMARK    2  A    between atoms: N1_2  and  C2_6 
REMARK    3  A    between atoms: C2_6  and  C3_7 
REMARK    4  A    between atoms: C3_7  and  C4_8 
ROOT
HETATM    1  C4  UNL     1      23.274  69.722  93.680  1.00  0.00     0.387 C 
HETATM    2  N3  UNL     1      22.780  70.397  92.499  1.00  0.00    -0.022 N 
ATOM      3  H31 UNL     1      22.562  69.876  91.650  1.00  0.00     0.281 HD
ATOM      4  H32 UNL     1      23.388  71.003  91.947  1.00  0.00     0.281 HD
HETATM    5  C5  UNL     1      21.723  70.954  93.326  1.00  0.00     0.467 C 
HETATM    6  N4  UNL     1      22.575  70.708  94.481  1.00  0.00    -0.022 N 
ATOM      7  H41 UNL     1      23.079  71.470  94.934  1.00  0.00     0.281 HD
ATOM      8  H42 UNL     1      22.176  70.462  95.386  1.00  0.00     0.281 HD
ENDROOT
BRANCH   1   9
HETATM    9  C3  UNL     1      22.721  68.306  93.809  1.00  0.00     0.079 C 
BRANCH   9  10
HETATM   10  C2  UNL     1      22.727  67.849  95.231  1.00  0.00     0.116 C 
BRANCH  10  11
HETATM   11  N1  UNL     1      21.579  68.325  95.975  1.00  0.00    -0.242 NA
HETATM   12  C1  UNL     1      20.659  67.299  96.327  1.00  0.00     0.135 C 
BRANCH  11  13
HETATM   13  N2  UNL     1      21.892  69.213  96.978  1.00  0.00    -0.364 NA
ATOM     14  H22 UNL     1      21.952  68.790  97.904  1.00  0.00     0.171 HD
ATOM     15  H21 UNL     1      21.379  70.095  96.962  1.00  0.00     0.171 HD
ENDBRANCH  11  13
ENDBRANCH  10  11
ENDBRANCH   9  10
ENDBRANCH   1   9
TORSDOF 4
ENDMDL
MODEL 5
REMARK VINA RESULT: -3.826167726      2.388      3.609
REMARK  4 active torsions:
REMARK  status: ('A' for Active; 'I' for Inactive)
REMARK    1  A    between atoms: N1_2  and  N2_3 
REMARK    2  A    between atoms: N1_2  and  C2_6 
REMARK    3  A    between atoms: C2_6  and  C3_7 
REMARK    4  A    between atoms: C3_7  and  C4_8 
ROOT
HETATM    1  C4  UNL     1      21.573  69.432  94.572  1.00  0.00     0.387 C 
HETATM    2  N3  UNL     1      22.516  70.527  94.477  1.00  0.00    -0.022 N 
ATOM      3  H31 UNL     1      23.514  70.350  94.358  1.00  0.00     0.281 HD
ATOM      4  H32 UNL     1      22.735  71.103  95.289  1.00  0.00     0.281 HD
HETATM    5  C5  UNL     1      21.715  71.050  93.384  1.00  0.00     0.467 C 
HETATM    6  N4  UNL     1      20.598  70.273  93.905  1.00  0.00    -0.022 N 
ATOM      7  H41 UNL     1      19.845  70.721  94.428  1.00  0.00     0.281 HD
ATOM      8  H42 UNL     1      19.899  69.874  93.280  1.00  0.00     0.281 HD
ENDROOT
BRANCH   1   9
HETATM    9  C3  UNL     1      22.013  68.220  93.757  1.00  0.00     0.079 C 
BRANCH   9  10
HETATM   10  C2  UNL     1      23.380  67.766  94.154  1.00  0.00     0.116 C 
BRANCH  10  11
HETATM   11  N1  UNL     1      24.406  68.221  93.238  1.00  0.00    -0.242 NA
HETATM   12  C1  UNL     1      23.954  68.364  91.897  1.00  0.00     0.135 C 
BRANCH  11  13
HETATM   13  N2  UNL     1      25.169  69.258  93.723  1.00  0.00    -0.364 NA
ATOM     14  H22 UNL     1      24.655  69.908  94.318  1.00  0.00     0.171 HD
ATOM     15  H21 UNL     1      25.775  69.716  93.042  1.00  0.00     0.171 HD
ENDBRANCH  11  13
ENDBRANCH  10  11
ENDBRANCH   9  10
ENDBRANCH   1   9
TORSDOF 4
ENDMDL
