MODEL 1
REMARK VINA RESULT: -4.102249414      0.000      0.000
REMARK  5 active torsions:
REMARK  status: ('A' for Active; 'I' for Inactive)
REMARK    1  A    between atoms: N1_1  and  C1_4 
REMARK    2  A    between atoms: N3_8  and  C3_9 
REMARK    3  A    between atoms: C3_9  and  C4_10 
REMARK    4  A    between atoms: C4_10  and  O1_11 
REMARK    5  A    between atoms: O1_11  and  N4_12 
ROOT
HETATM    1  C1  UNL     1      19.968  70.331  94.089  1.00  0.00     0.691 A 
HETATM    2  N2  UNL     1      20.829  71.230  93.615  1.00  0.00    -0.185 N 
ATOM      3  H2  UNL     1      20.662  72.231  93.516  1.00  0.00     0.185 HD
HETATM    4  C2  UNL     1      21.958  70.576  93.289  1.00  0.00     0.218 A 
HETATM    5  N3  UNL     1      21.796  69.279  93.560  1.00  0.00    -0.271 N 
HETATM    6  N5  UNL     1      20.580  69.139  94.048  1.00  0.00    -0.129 N 
ATOM      7  H5  UNL     1      20.166  68.257  94.350  1.00  0.00     0.206 HD
ENDROOT
BRANCH   5   8
HETATM    8  C3  UNL     1      22.771  68.195  93.364  1.00  0.00     0.179 C 
BRANCH   8   9
HETATM    9  C4  UNL     1      22.796  67.303  94.604  1.00  0.00     0.222 C 
BRANCH   9  10
HETATM   10  O1  UNL     1      22.920  68.149  95.701  1.00  0.00    -0.286 OA
BRANCH  10  11
HETATM   11  N4  UNL     1      22.403  67.594  96.822  1.00  0.00    -0.311 N 
ATOM     12  H42 UNL     1      21.521  67.891  97.240  1.00  0.00     0.184 HD
ATOM     13  H41 UNL     1      23.001  66.851  97.184  1.00  0.00     0.184 HD
ENDBRANCH  10  11
ENDBRANCH   9  10
ENDBRANCH   8   9
ENDBRANCH   5   8
BRANCH   1  14
HETATM   14  N1  UNL     1      18.760  70.599  94.507  1.00  0.00    -0.233 N 
ATOM     15  H12 UNL     1      18.428  71.450  94.961  1.00  0.00     0.174 HD
ATOM     16  H11 UNL     1      17.961  69.969  94.432  1.00  0.00     0.174 HD
ENDBRANCH   1  14
TORSDOF 5
ENDMDL
MODEL 2
REMARK VINA RESULT: -4.028572708      2.766      4.404
REMARK  5 active torsions:
REMARK  status: ('A' for Active; 'I' for Inactive)
REMARK    1  A    between atoms: N1_1  and  C1_4 
REMARK    2  A    between atoms: N3_8  and  C3_9 
REMARK    3  A    between atoms: C3_9  and  C4_10 
REMARK    4  A    between atoms: C4_10  and  O1_11 
REMARK    5  A    between atoms: O1_11  and  N4_12 
ROOT
HETATM    1  C1  UNL     1      21.081  70.212  93.740  1.00  0.00     0.691 A 
HETATM    2  N2  UNL     1      21.268  68.922  94.015  1.00  0.00    -0.185 N 
ATOM      3  H2  UNL     1      22.123  68.390  93.857  1.00  0.00     0.185 HD
HETATM    4  C2  UNL     1      20.123  68.450  94.540  1.00  0.00     0.218 A 
HETATM    5  N3  UNL     1      19.232  69.442  94.588  1.00  0.00    -0.271 N 
HETATM    6  N5  UNL     1      19.824  70.513  94.099  1.00  0.00    -0.129 N 
ATOM      7  H5  UNL     1      19.392  71.433  94.008  1.00  0.00     0.206 HD
ENDROOT
BRANCH   5   8
HETATM    8  C3  UNL     1      17.849  69.380  95.087  1.00  0.00     0.179 C 
BRANCH   8   9
HETATM    9  C4  UNL     1      17.669  70.397  96.214  1.00  0.00     0.222 C 
BRANCH   9  10
HETATM   10  O1  UNL     1      17.387  71.617  95.607  1.00  0.00    -0.286 OA
BRANCH  10  11
HETATM   11  N4  UNL     1      17.976  72.647  96.259  1.00  0.00    -0.311 N 
ATOM     12  H42 UNL     1      18.930  72.612  96.617  1.00  0.00     0.184 HD
ATOM     13  H41 UNL     1      17.349  73.448  96.342  1.00  0.00     0.184 HD
ENDBRANCH  10  11
ENDBRANCH   9  10
ENDBRANCH   8   9
ENDBRANCH   5   8
BRANCH   1  14
HETATM   14  N1  UNL     1      21.978  71.005  93.218  1.00  0.00    -0.233 N 
ATOM     15  H12 UNL     1      22.881  71.271  93.608  1.00  0.00     0.174 HD
ATOM     16  H11 UNL     1      21.888  71.479  92.319  1.00  0.00     0.174 HD
ENDBRANCH   1  14
TORSDOF 5
ENDMDL
MODEL 3
REMARK VINA RESULT: -4.002332466      3.838      5.507
REMARK  5 active torsions:
REMARK  status: ('A' for Active; 'I' for Inactive)
REMARK    1  A    between atoms: N1_1  and  C1_4 
REMARK    2  A    between atoms: N3_8  and  C3_9 
REMARK    3  A    between atoms: C3_9  and  C4_10 
REMARK    4  A    between atoms: C4_10  and  O1_11 
REMARK    5  A    between atoms: O1_11  and  N4_12 
ROOT
HETATM    1  C1  UNL     1      17.409  71.901  98.050  1.00  0.00     0.691 A 
HETATM    2  N2  UNL     1      16.102  71.648  98.005  1.00  0.00    -0.185 N 
ATOM      3  H2  UNL     1      15.388  72.056  98.607  1.00  0.00     0.185 HD
HETATM    4  C2  UNL     1      15.897  70.756  97.020  1.00  0.00     0.218 A 
HETATM    5  N3  UNL     1      17.071  70.458  96.459  1.00  0.00    -0.271 N 
HETATM    6  N5  UNL     1      17.988  71.162  97.093  1.00  0.00    -0.129 N 
ATOM      7  H5  UNL     1      18.986  71.145  96.887  1.00  0.00     0.206 HD
ENDROOT
BRANCH   5   8
HETATM    8  C3  UNL     1      17.321  69.529  95.346  1.00  0.00     0.179 C 
BRANCH   8   9
HETATM    9  C4  UNL     1      18.777  69.652  94.899  1.00  0.00     0.222 C 
BRANCH   9  10
HETATM   10  O1  UNL     1      18.860  70.805  94.126  1.00  0.00    -0.286 OA
BRANCH  10  11
HETATM   11  N4  UNL     1      20.145  71.140  93.863  1.00  0.00    -0.311 N 
ATOM     12  H42 UNL     1      20.920  70.925  94.491  1.00  0.00     0.184 HD
ATOM     13  H41 UNL     1      20.233  71.625  92.970  1.00  0.00     0.184 HD
ENDBRANCH  10  11
ENDBRANCH   9  10
ENDBRANCH   8   9
ENDBRANCH   5   8
BRANCH   1  14
HETATM   14  N1  UNL     1      17.985  72.724  98.886  1.00  0.00    -0.233 N 
ATOM     15  H12 UNL     1      17.996  72.676  99.904  1.00  0.00     0.174 HD
ATOM     16  H11 UNL     1      18.517  73.553  98.619  1.00  0.00     0.174 HD
ENDBRANCH   1  14
TORSDOF 5
ENDMDL
MODEL 4
REMARK VINA RESULT: -3.957146882      1.088      1.132
REMARK  5 active torsions:
REMARK  status: ('A' for Active; 'I' for Inactive)
REMARK    1  A    between atoms: N1_1  and  C1_4 
REMARK    2  A    between atoms: N3_8  and  C3_9 
REMARK    3  A    between atoms: C3_9  and  C4_10 
REMARK    4  A    between atoms: C4_10  and  O1_11 
REMARK    5  A    between atoms: O1_11  and  N4_12 
ROOT
HETATM    1  C1  UNL     1      19.328  70.727  94.399  1.00  0.00     0.691 A 
HETATM    2  N2  UNL     1      20.286  71.298  93.671  1.00  0.00    -0.185 N 
ATOM      3  H2  UNL     1      20.283  72.253  93.313  1.00  0.00     0.185 HD
HETATM    4  C2  UNL     1      21.258  70.385  93.494  1.00  0.00     0.218 A 
HETATM    5  N3  UNL     1      20.903  69.255  94.109  1.00  0.00    -0.271 N 
HETATM    6  N5  UNL     1      19.724  69.473  94.659  1.00  0.00    -0.129 N 
ATOM      7  H5  UNL     1      19.194  68.790  95.201  1.00  0.00     0.206 HD
ENDROOT
BRANCH   5   8
HETATM    8  C3  UNL     1      21.660  67.996  94.176  1.00  0.00     0.179 C 
BRANCH   8   9
HETATM    9  C4  UNL     1      22.090  67.738  95.620  1.00  0.00     0.222 C 
BRANCH   9  10
HETATM   10  O1  UNL     1      22.357  68.982  96.183  1.00  0.00    -0.286 OA
BRANCH  10  11
HETATM   11  N4  UNL     1      21.697  69.152  97.353  1.00  0.00    -0.311 N 
ATOM     12  H42 UNL     1      22.037  68.794  98.246  1.00  0.00     0.184 HD
ATOM     13  H41 UNL     1      20.832  69.677  97.224  1.00  0.00     0.184 HD
ENDBRANCH  10  11
ENDBRANCH   9  10
ENDBRANCH   8   9
ENDBRANCH   5   8
BRANCH   1  14
HETATM   14  N1  UNL     1      18.222  71.312  94.773  1.00  0.00    -0.233 N 
ATOM     15  H12 UNL     1      18.037  71.803  95.647  1.00  0.00     0.174 HD
ATOM     16  H11 UNL     1      17.366  71.356  94.219  1.00  0.00     0.174 HD
ENDBRANCH   1  14
TORSDOF 5
ENDMDL
MODEL 5
REMARK VINA RESULT: -3.926672720      2.203      3.919
REMARK  5 active torsions:
REMARK  status: ('A' for Active; 'I' for Inactive)
REMARK    1  A    between atoms: N1_1  and  C1_4 
REMARK    2  A    between atoms: N3_8  and  C3_9 
REMARK    3  A    between atoms: C3_9  and  C4_10 
REMARK    4  A    between atoms: C4_10  and  O1_11 
REMARK    5  A    between atoms: O1_11  and  N4_12 
ROOT
HETATM    1  C1  UNL     1      21.398  68.877  97.793  1.00  0.00     0.691 A 
HETATM    2  N2  UNL     1      21.520  67.551  97.808  1.00  0.00    -0.185 N 
ATOM      3  H2  UNL     1      21.290  66.933  98.586  1.00  0.00     0.185 HD
HETATM    4  C2  UNL     1      22.000  67.176  96.609  1.00  0.00     0.218 A 
HETATM    5  N3  UNL     1      22.175  68.265  95.857  1.00  0.00    -0.271 N 
HETATM    6  N5  UNL     1      21.805  69.298  96.587  1.00  0.00    -0.129 N 
ATOM      7  H5  UNL     1      21.826  70.271  96.281  1.00  0.00     0.206 HD
ENDROOT
BRANCH   5   8
HETATM    8  C3  UNL     1      22.680  68.328  94.477  1.00  0.00     0.179 C 
BRANCH   8   9
HETATM    9  C4  UNL     1      22.391  69.709  93.892  1.00  0.00     0.222 C 
BRANCH   9  10
HETATM   10  O1  UNL     1      21.013  69.782  93.707  1.00  0.00    -0.286 OA
BRANCH  10  11
HETATM   11  N4  UNL     1      20.574  71.062  93.727  1.00  0.00    -0.311 N 
ATOM     12  H42 UNL     1      19.916  71.419  94.420  1.00  0.00     0.184 HD
ATOM     13  H41 UNL     1      20.982  71.612  92.970  1.00  0.00     0.184 HD
ENDBRANCH  10  11
ENDBRANCH   9  10
ENDBRANCH   8   9
ENDBRANCH   5   8
BRANCH   1  14
HETATM   14  N1  UNL     1      20.960  69.601  98.789  1.00  0.00    -0.233 N 
ATOM     15  H12 UNL     1      20.120  69.454  99.348  1.00  0.00     0.174 HD
ATOM     16  H11 UNL     1      21.418  70.437  99.151  1.00  0.00     0.174 HD
ENDBRANCH   1  14
TORSDOF 5
ENDMDL
