MODEL 1
REMARK VINA RESULT: -7.079061505      0.000      0.000
REMARK  4 active torsions:
REMARK  status: ('A' for Active; 'I' for Inactive)
REMARK    1  A    between atoms: C2_2  and  C3_3 
REMARK    2  A    between atoms: C3_3  and  C4_4 
REMARK    3  A    between atoms: C5_5  and  C6_6 
REMARK    4  A    between atoms: N5_24  and  C14_25 
ROOT
HETATM    1  C6  UNL     1      58.468  75.821  -4.111  1.00  0.00     0.065 A 
HETATM    2  C7  UNL     1      59.030  75.876  -2.831  1.00  0.00     0.061 A 
HETATM    3  C8  UNL     1      58.521  76.344  -1.661  1.00  0.00     0.160 A 
HETATM    4 CL1  UNL     1      56.949  77.053  -1.372  1.00  0.00    -0.055 Cl
HETATM    5  O1  UNL     1      59.458  76.169  -0.726  1.00  0.00    -0.284 OA
HETATM    6  C9  UNL     1      60.521  75.620  -1.238  1.00  0.00     0.184 A 
HETATM    7  C10 UNL     1      61.745  75.267  -0.565  1.00  0.00     0.128 C 
HETATM    8  N1  UNL     1      62.723  74.972  -0.018  1.00  0.00    -0.189 NA
HETATM    9  C11 UNL     1      60.299  75.413  -2.579  1.00  0.00     0.094 A 
HETATM   10  N2  UNL     1      60.972  74.911  -3.593  1.00  0.00    -0.336 N 
ATOM     11  H2  UNL     1      61.914  74.564  -3.414  1.00  0.00     0.167 HD
HETATM   12  C12 UNL     1      60.503  74.825  -4.844  1.00  0.00     0.150 A 
HETATM   13  N3  UNL     1      61.032  74.358  -5.967  1.00  0.00    -0.174 N 
ATOM     14  H3  UNL     1      61.962  73.953  -6.075  1.00  0.00     0.186 HD
HETATM   15  C13 UNL     1      60.119  74.518  -6.932  1.00  0.00     0.681 A 
HETATM   16  N4  UNL     1      60.315  74.167  -8.157  1.00  0.00    -0.234 N 
ATOM     17  H41 UNL     1      59.618  74.289  -8.892  1.00  0.00     0.174 HD
ATOM     18  H42 UNL     1      61.170  73.739  -8.510  1.00  0.00     0.174 HD
HETATM   19  N5  UNL     1      58.966  75.095  -6.457  1.00  0.00    -0.170 N 
HETATM   20  C18 UNL     1      59.207  75.291  -5.137  1.00  0.00     0.117 A 
ENDROOT
BRANCH   1  21
HETATM   21  C5  UNL     1      57.128  76.335  -4.283  1.00  0.00    -0.063 C 
HETATM   22  C4  UNL     1      55.970  76.743  -4.368  1.00  0.00    -0.101 C 
BRANCH  22  23
HETATM   23  C3  UNL     1      54.597  77.242  -4.497  1.00  0.00     0.094 C 
BRANCH  23  24
HETATM   24  C2  UNL     1      54.595  78.746  -4.356  1.00  0.00     0.007 C 
HETATM   25  C1  UNL     1      54.225  79.186  -2.967  1.00  0.00     0.006 C 
ENDBRANCH  23  24
ENDBRANCH  22  23
ENDBRANCH   1  21
BRANCH  19  26
HETATM   26  C14 UNL     1      57.795  75.407  -7.209  1.00  0.00     0.044 C 
HETATM   27  C15 UNL     1      57.551  76.864  -7.509  1.00  0.00     0.039 C 
HETATM   28  C16 UNL     1      56.571  74.553  -6.975  1.00  0.00     0.039 C 
HETATM   29  C17 UNL     1      58.105  74.934  -8.677  1.00  0.00     0.039 C 
ENDBRANCH  19  26
TORSDOF 4
ENDMDL
MODEL 2
REMARK VINA RESULT: -7.040489279      3.146      6.046
REMARK  4 active torsions:
REMARK  status: ('A' for Active; 'I' for Inactive)
REMARK    1  A    between atoms: C2_2  and  C3_3 
REMARK    2  A    between atoms: C3_3  and  C4_4 
REMARK    3  A    between atoms: C5_5  and  C6_6 
REMARK    4  A    between atoms: N5_24  and  C14_25 
ROOT
HETATM    1  C6  UNL     1      59.320  77.566  -3.667  1.00  0.00     0.065 A 
HETATM    2  C7  UNL     1      57.959  77.269  -3.546  1.00  0.00     0.061 A 
HETATM    3  C8  UNL     1      57.257  76.736  -2.510  1.00  0.00     0.160 A 
HETATM    4 CL1  UNL     1      57.855  76.234  -0.945  1.00  0.00    -0.055 Cl
HETATM    5  O1  UNL     1      55.983  76.654  -2.898  1.00  0.00    -0.284 OA
HETATM    6  C9  UNL     1      55.842  77.102  -4.112  1.00  0.00     0.184 A 
HETATM    7  C10 UNL     1      54.631  77.184  -4.889  1.00  0.00     0.128 C 
HETATM    8  N1  UNL     1      53.653  77.262  -5.506  1.00  0.00    -0.189 NA
HETATM    9  C11 UNL     1      57.074  77.506  -4.570  1.00  0.00     0.094 A 
HETATM   10  N2  UNL     1      57.557  78.028  -5.678  1.00  0.00    -0.336 N 
ATOM     11  H2  UNL     1      56.907  78.208  -6.443  1.00  0.00     0.167 HD
HETATM   12  C12 UNL     1      58.846  78.338  -5.869  1.00  0.00     0.150 A 
HETATM   13  N3  UNL     1      59.496  78.860  -6.900  1.00  0.00    -0.174 N 
ATOM     14  H3  UNL     1      59.091  79.136  -7.795  1.00  0.00     0.186 HD
HETATM   15  C13 UNL     1      60.784  78.958  -6.548  1.00  0.00     0.681 A 
HETATM   16  N4  UNL     1      61.696  79.429  -7.327  1.00  0.00    -0.234 N 
ATOM     17  H41 UNL     1      62.677  79.503  -7.058  1.00  0.00     0.174 HD
ATOM     18  H42 UNL     1      61.534  79.768  -8.275  1.00  0.00     0.174 HD
HETATM   19  N5  UNL     1      61.003  78.501  -5.271  1.00  0.00    -0.170 N 
HETATM   20  C18 UNL     1      59.778  78.107  -4.840  1.00  0.00     0.117 A 
ENDROOT
BRANCH   1  21
HETATM   21  C5  UNL     1      60.176  77.278  -2.539  1.00  0.00    -0.063 C 
HETATM   22  C4  UNL     1      60.869  77.081  -1.541  1.00  0.00    -0.101 C 
BRANCH  22  23
HETATM   23  C3  UNL     1      61.711  76.825  -0.368  1.00  0.00     0.094 C 
BRANCH  23  24
HETATM   24  C2  UNL     1      61.793  75.337  -0.125  1.00  0.00     0.007 C 
HETATM   25  C1  UNL     1      63.204  74.877   0.116  1.00  0.00     0.006 C 
ENDBRANCH  23  24
ENDBRANCH  22  23
ENDBRANCH   1  21
BRANCH  19  26
HETATM   26  C14 UNL     1      62.250  78.461  -4.581  1.00  0.00     0.044 C 
HETATM   27  C15 UNL     1      62.862  77.100  -4.367  1.00  0.00     0.039 C 
HETATM   28  C16 UNL     1      62.473  79.479  -3.487  1.00  0.00     0.039 C 
HETATM   29  C17 UNL     1      63.309  79.014  -5.603  1.00  0.00     0.039 C 
ENDBRANCH  19  26
TORSDOF 4
ENDMDL
MODEL 3
REMARK VINA RESULT: -6.980030252      2.628      5.762
REMARK  4 active torsions:
REMARK  status: ('A' for Active; 'I' for Inactive)
REMARK    1  A    between atoms: C2_2  and  C3_3 
REMARK    2  A    between atoms: C3_3  and  C4_4 
REMARK    3  A    between atoms: C5_5  and  C6_6 
REMARK    4  A    between atoms: N5_24  and  C14_25 
ROOT
HETATM    1  C6  UNL     1      60.471  75.251  -3.372  1.00  0.00     0.065 A 
HETATM    2  C7  UNL     1      60.194  74.892  -4.696  1.00  0.00     0.061 A 
HETATM    3  C8  UNL     1      59.051  75.007  -5.423  1.00  0.00     0.160 A 
HETATM    4 CL1  UNL     1      57.510  75.661  -4.918  1.00  0.00    -0.055 Cl
HETATM    5  O1  UNL     1      59.306  74.517  -6.638  1.00  0.00    -0.284 OA
HETATM    6  C9  UNL     1      60.538  74.104  -6.718  1.00  0.00     0.184 A 
HETATM    7  C10 UNL     1      61.201  73.514  -7.853  1.00  0.00     0.128 C 
HETATM    8  N1  UNL     1      61.736  73.053  -8.772  1.00  0.00    -0.189 NA
HETATM    9  C11 UNL     1      61.146  74.320  -5.504  1.00  0.00     0.094 A 
HETATM   10  N2  UNL     1      62.340  74.121  -4.984  1.00  0.00    -0.336 N 
ATOM     11  H2  UNL     1      63.053  73.698  -5.578  1.00  0.00     0.167 HD
HETATM   12  C12 UNL     1      62.679  74.436  -3.728  1.00  0.00     0.150 A 
HETATM   13  N3  UNL     1      63.812  74.308  -3.050  1.00  0.00    -0.174 N 
ATOM     14  H3  UNL     1      64.687  73.917  -3.400  1.00  0.00     0.186 HD
HETATM   15  C13 UNL     1      63.595  74.790  -1.820  1.00  0.00     0.681 A 
HETATM   16  N4  UNL     1      64.497  74.815  -0.900  1.00  0.00    -0.234 N 
ATOM     17  H41 UNL     1      64.330  75.182   0.037  1.00  0.00     0.174 HD
ATOM     18  H42 UNL     1      65.452  74.476  -1.012  1.00  0.00     0.174 HD
HETATM   19  N5  UNL     1      62.307  75.247  -1.668  1.00  0.00    -0.170 N 
HETATM   20  C18 UNL     1      61.727  75.023  -2.874  1.00  0.00     0.117 A 
ENDROOT
BRANCH   1  21
HETATM   21  C5  UNL     1      59.405  75.843  -2.596  1.00  0.00    -0.063 C 
HETATM   22  C4  UNL     1      58.453  76.300  -1.964  1.00  0.00    -0.101 C 
BRANCH  22  23
HETATM   23  C3  UNL     1      57.338  76.866  -1.198  1.00  0.00     0.094 C 
BRANCH  23  24
HETATM   24  C2  UNL     1      56.033  76.372  -1.774  1.00  0.00     0.007 C 
HETATM   25  C1  UNL     1      55.135  75.782  -0.721  1.00  0.00     0.006 C 
ENDBRANCH  23  24
ENDBRANCH  22  23
ENDBRANCH   1  21
BRANCH  19  26
HETATM   26  C14 UNL     1      61.739  75.821  -0.494  1.00  0.00     0.044 C 
HETATM   27  C15 UNL     1      60.737  74.979   0.255  1.00  0.00     0.039 C 
HETATM   28  C16 UNL     1      61.498  77.312  -0.496  1.00  0.00     0.039 C 
HETATM   29  C17 UNL     1      62.887  75.794   0.581  1.00  0.00     0.039 C 
ENDBRANCH  19  26
TORSDOF 4
ENDMDL
MODEL 4
REMARK VINA RESULT: -6.918780318      3.527      6.112
REMARK  4 active torsions:
REMARK  status: ('A' for Active; 'I' for Inactive)
REMARK    1  A    between atoms: C2_2  and  C3_3 
REMARK    2  A    between atoms: C3_3  and  C4_4 
REMARK    3  A    between atoms: C5_5  and  C6_6 
REMARK    4  A    between atoms: N5_24  and  C14_25 
ROOT
HETATM    1  C6  UNL     1      59.509  77.243  -3.928  1.00  0.00     0.065 A 
HETATM    2  C7  UNL     1      60.564  77.584  -4.781  1.00  0.00     0.061 A 
HETATM    3  C8  UNL     1      61.906  77.412  -4.643  1.00  0.00     0.160 A 
HETATM    4 CL1  UNL     1      62.770  76.685  -3.308  1.00  0.00    -0.055 Cl
HETATM    5  O1  UNL     1      62.482  77.911  -5.738  1.00  0.00    -0.284 OA
HETATM    6  C9  UNL     1      61.586  78.384  -6.554  1.00  0.00     0.184 A 
HETATM    7  C10 UNL     1      61.798  79.002  -7.838  1.00  0.00     0.128 C 
HETATM    8  N1  UNL     1      61.971  79.487  -8.877  1.00  0.00    -0.189 NA
HETATM    9  C11 UNL     1      60.346  78.200  -5.990  1.00  0.00     0.094 A 
HETATM   10  N2  UNL     1      59.097  78.458  -6.319  1.00  0.00    -0.336 N 
ATOM     11  H2  UNL     1      58.927  78.915  -7.215  1.00  0.00     0.167 HD
HETATM   12  C12 UNL     1      58.037  78.163  -5.557  1.00  0.00     0.150 A 
HETATM   13  N3  UNL     1      56.735  78.348  -5.728  1.00  0.00    -0.174 N 
ATOM     14  H3  UNL     1      56.285  78.781  -6.534  1.00  0.00     0.186 HD
HETATM   15  C13 UNL     1      56.120  77.859  -4.644  1.00  0.00     0.681 A 
HETATM   16  N4  UNL     1      54.841  77.880  -4.486  1.00  0.00    -0.234 N 
ATOM     17  H41 UNL     1      54.373  77.507  -3.660  1.00  0.00     0.174 HD
ATOM     18  H42 UNL     1      54.178  78.265  -5.159  1.00  0.00     0.174 HD
HETATM   19  N5  UNL     1      57.013  77.340  -3.737  1.00  0.00    -0.170 N 
HETATM   20  C18 UNL     1      58.226  77.533  -4.313  1.00  0.00     0.117 A 
ENDROOT
BRANCH   1  21
HETATM   21  C5  UNL     1      59.836  76.601  -2.675  1.00  0.00    -0.063 C 
HETATM   22  C4  UNL     1      60.180  76.052  -1.628  1.00  0.00    -0.101 C 
BRANCH  22  23
HETATM   23  C3  UNL     1      60.562  75.399  -0.372  1.00  0.00     0.094 C 
BRANCH  23  24
HETATM   24  C2  UNL     1      61.840  76.013   0.144  1.00  0.00     0.007 C 
HETATM   25  C1  UNL     1      62.995  75.051   0.093  1.00  0.00     0.006 C 
ENDBRANCH  23  24
ENDBRANCH  22  23
ENDBRANCH   1  21
BRANCH  19  26
HETATM   26  C14 UNL     1      56.704  76.741  -2.481  1.00  0.00     0.044 C 
HETATM   27  C15 UNL     1      56.980  77.567  -1.251  1.00  0.00     0.039 C 
HETATM   28  C16 UNL     1      56.910  75.251  -2.352  1.00  0.00     0.039 C 
HETATM   29  C17 UNL     1      55.133  76.745  -2.394  1.00  0.00     0.039 C 
ENDBRANCH  19  26
TORSDOF 4
ENDMDL
MODEL 5
REMARK VINA RESULT: -6.878115701      1.745      1.971
REMARK  4 active torsions:
REMARK  status: ('A' for Active; 'I' for Inactive)
REMARK    1  A    between atoms: C2_2  and  C3_3 
REMARK    2  A    between atoms: C3_3  and  C4_4 
REMARK    3  A    between atoms: C5_5  and  C6_6 
REMARK    4  A    between atoms: N5_24  and  C14_25 
ROOT
HETATM    1  C6  UNL     1      59.294  75.674  -4.213  1.00  0.00     0.065 A 
HETATM    2  C7  UNL     1      60.277  75.341  -3.276  1.00  0.00     0.061 A 
HETATM    3  C8  UNL     1      60.340  75.572  -1.938  1.00  0.00     0.160 A 
HETATM    4 CL1  UNL     1      59.171  76.391  -0.927  1.00  0.00    -0.055 Cl
HETATM    5  O1  UNL     1      61.489  75.052  -1.501  1.00  0.00    -0.284 OA
HETATM    6  C9  UNL     1      62.149  74.509  -2.482  1.00  0.00     0.184 A 
HETATM    7  C10 UNL     1      63.426  73.844  -2.426  1.00  0.00     0.128 C 
HETATM    8  N1  UNL     1      64.448  73.297  -2.376  1.00  0.00    -0.189 NA
HETATM    9  C11 UNL     1      61.419  74.666  -3.636  1.00  0.00     0.094 A 
HETATM   10  N2  UNL     1      61.555  74.342  -4.905  1.00  0.00    -0.336 N 
ATOM     11  H2  UNL     1      62.399  73.841  -5.180  1.00  0.00     0.167 HD
HETATM   12  C12 UNL     1      60.659  74.627  -5.859  1.00  0.00     0.150 A 
HETATM   13  N3  UNL     1      60.633  74.382  -7.162  1.00  0.00    -0.174 N 
ATOM     14  H3  UNL     1      61.349  73.896  -7.701  1.00  0.00     0.186 HD
HETATM   15  C13 UNL     1      59.491  74.893  -7.638  1.00  0.00     0.681 A 
HETATM   16  N4  UNL     1      59.150  74.828  -8.879  1.00  0.00    -0.234 N 
ATOM     17  H41 UNL     1      58.279  75.216  -9.241  1.00  0.00     0.174 HD
ATOM     18  H42 UNL     1      59.706  74.389  -9.613  1.00  0.00     0.174 HD
HETATM   19  N5  UNL     1      58.741  75.484  -6.649  1.00  0.00    -0.170 N 
HETATM   20  C18 UNL     1      59.479  75.317  -5.523  1.00  0.00     0.117 A 
ENDROOT
BRANCH   1  21
HETATM   21  C5  UNL     1      58.128  76.388  -3.743  1.00  0.00    -0.063 C 
HETATM   22  C4  UNL     1      57.120  76.940  -3.302  1.00  0.00    -0.101 C 
BRANCH  22  23
HETATM   23  C3  UNL     1      55.926  77.623  -2.795  1.00  0.00     0.094 C 
BRANCH  23  24
HETATM   24  C2  UNL     1      55.826  77.416  -1.302  1.00  0.00     0.007 C 
HETATM   25  C1  UNL     1      55.320  76.044  -0.951  1.00  0.00     0.006 C 
ENDBRANCH  23  24
ENDBRANCH  22  23
ENDBRANCH   1  21
BRANCH  19  26
HETATM   26  C14 UNL     1      57.475  76.121  -6.804  1.00  0.00     0.044 C 
HETATM   27  C15 UNL     1      57.446  77.619  -6.635  1.00  0.00     0.039 C 
HETATM   28  C16 UNL     1      56.255  75.366  -6.333  1.00  0.00     0.039 C 
HETATM   29  C17 UNL     1      57.171  76.074  -8.346  1.00  0.00     0.039 C 
ENDBRANCH  19  26
TORSDOF 4
ENDMDL
