MODEL 1
REMARK VINA RESULT: -8.949556507      0.000      0.000
REMARK  1 active torsions:
REMARK  status: ('A' for Active; 'I' for Inactive)
REMARK    1  A    between atoms: C14_21  and  C15_22 
ROOT
HETATM    1  N1  UNL     1      53.171  77.302  -5.846  1.00  0.00    -0.365 N 
ATOM      2  H11 UNL     1      52.294  77.498  -5.363  1.00  0.00     0.159 HD
ATOM      3  H12 UNL     1      53.227  77.238  -6.863  1.00  0.00     0.159 HD
HETATM    4  C1  UNL     1      54.244  77.131  -5.112  1.00  0.00     0.222 A 
HETATM    5  N2  UNL     1      55.453  76.862  -5.777  1.00  0.00    -0.296 N 
ATOM      6  H2  UNL     1      55.452  76.818  -6.796  1.00  0.00     0.168 HD
HETATM    7  C2  UNL     1      56.672  76.649  -5.087  1.00  0.00     0.295 A 
HETATM    8  O1  UNL     1      57.746  77.354  -5.707  1.00  0.00    -0.288 OA
HETATM    9  C3  UNL     1      57.893  76.654  -6.927  1.00  0.00     0.108 A 
HETATM   10  C4  UNL     1      58.376  77.014  -8.186  1.00  0.00     0.040 A 
HETATM   11  C5  UNL     1      58.389  76.063  -9.212  1.00  0.00     0.003 A 
HETATM   12  C6  UNL     1      57.927  74.788  -8.971  1.00  0.00     0.003 A 
HETATM   13  C7  UNL     1      57.439  74.406  -7.716  1.00  0.00     0.040 A 
HETATM   14  C8  UNL     1      57.447  75.371  -6.747  1.00  0.00     0.108 A 
HETATM   15  O2  UNL     1      57.021  75.267  -5.412  1.00  0.00    -0.288 OA
HETATM   16  C9  UNL     1      56.586  76.751  -3.649  1.00  0.00     0.072 A 
HETATM   17  C10 UNL     1      55.382  77.018  -3.046  1.00  0.00     0.093 A 
HETATM   18  C11 UNL     1      55.314  77.105  -1.652  1.00  0.00     0.038 A 
HETATM   19  C12 UNL     1      56.430  76.930  -0.873  1.00  0.00     0.004 A 
HETATM   20  C13 UNL     1      57.630  76.666  -1.439  1.00  0.00     0.013 A 
HETATM   21  C14 UNL     1      57.699  76.578  -2.832  1.00  0.00    -0.009 A 
HETATM   22  O3  UNL     1      54.167  77.218  -3.743  1.00  0.00    -0.279 OA
ENDROOT
BRANCH  21  23
HETATM   23  C15 UNL     1      59.015  76.297  -3.366  1.00  0.00    -0.025 A 
HETATM   24  C16 UNL     1      59.433  75.018  -3.567  1.00  0.00     0.015 A 
HETATM   25  C17 UNL     1      60.689  74.686  -4.028  1.00  0.00     0.043 A 
HETATM   26  C18 UNL     1      61.573  75.694  -4.304  1.00  0.00     0.116 A 
HETATM   27  F1  UNL     1      62.826  75.445  -4.761  1.00  0.00    -0.206 F 
HETATM   28  C19 UNL     1      61.191  76.998  -4.115  1.00  0.00     0.043 A 
HETATM   29  C20 UNL     1      59.902  77.302  -3.644  1.00  0.00     0.015 A 
ENDBRANCH  21  23
TORSDOF 1
ENDMDL
MODEL 2
REMARK VINA RESULT: -8.563680154      1.660      2.044
REMARK  1 active torsions:
REMARK  status: ('A' for Active; 'I' for Inactive)
REMARK    1  A    between atoms: C14_21  and  C15_22 
ROOT
HETATM    1  N1  UNL     1      54.283  79.031  -5.584  1.00  0.00    -0.365 N 
ATOM      2  H11 UNL     1      53.285  79.133  -5.398  1.00  0.00     0.159 HD
ATOM      3  H12 UNL     1      54.726  79.441  -6.406  1.00  0.00     0.159 HD
HETATM    4  C1  UNL     1      54.994  78.343  -4.723  1.00  0.00     0.222 A 
HETATM    5  N2  UNL     1      56.369  78.202  -4.978  1.00  0.00    -0.296 N 
ATOM      6  H2  UNL     1      56.760  78.642  -5.811  1.00  0.00     0.168 HD
HETATM    7  C2  UNL     1      57.233  77.472  -4.123  1.00  0.00     0.295 A 
HETATM    8  O1  UNL     1      58.452  78.177  -3.898  1.00  0.00    -0.288 OA
HETATM    9  C3  UNL     1      59.066  78.117  -5.171  1.00  0.00     0.108 A 
HETATM   10  C4  UNL     1      59.991  78.930  -5.828  1.00  0.00     0.040 A 
HETATM   11  C5  UNL     1      60.411  78.587  -7.118  1.00  0.00     0.003 A 
HETATM   12  C6  UNL     1      59.908  77.456  -7.724  1.00  0.00     0.003 A 
HETATM   13  C7  UNL     1      58.981  76.626  -7.083  1.00  0.00     0.040 A 
HETATM   14  C8  UNL     1      58.603  77.005  -5.824  1.00  0.00     0.108 A 
HETATM   15  O2  UNL     1      57.698  76.367  -4.959  1.00  0.00    -0.288 OA
HETATM   16  C9  UNL     1      56.599  76.902  -2.957  1.00  0.00     0.072 A 
HETATM   17  C10 UNL     1      55.252  77.069  -2.752  1.00  0.00     0.093 A 
HETATM   18  C11 UNL     1      54.653  76.503  -1.622  1.00  0.00     0.038 A 
HETATM   19  C12 UNL     1      55.386  75.783  -0.713  1.00  0.00     0.004 A 
HETATM   20  C13 UNL     1      56.715  75.602  -0.890  1.00  0.00     0.013 A 
HETATM   21  C14 UNL     1      57.316  76.167  -2.018  1.00  0.00    -0.009 A 
HETATM   22  O3  UNL     1      54.396  77.790  -3.616  1.00  0.00    -0.279 OA
ENDROOT
BRANCH  21  23
HETATM   23  C15 UNL     1      58.739  75.934  -2.139  1.00  0.00    -0.025 A 
HETATM   24  C16 UNL     1      59.221  74.878  -2.849  1.00  0.00     0.015 A 
HETATM   25  C17 UNL     1      60.562  74.579  -2.961  1.00  0.00     0.043 A 
HETATM   26  C18 UNL     1      61.469  75.384  -2.327  1.00  0.00     0.116 A 
HETATM   27  F1  UNL     1      62.803  75.153  -2.392  1.00  0.00    -0.206 F 
HETATM   28  C19 UNL     1      61.024  76.460  -1.601  1.00  0.00     0.043 A 
HETATM   29  C20 UNL     1      59.650  76.738  -1.507  1.00  0.00     0.015 A 
ENDBRANCH  21  23
TORSDOF 1
ENDMDL
MODEL 3
REMARK VINA RESULT: -8.443834724      2.864      5.427
REMARK  1 active torsions:
REMARK  status: ('A' for Active; 'I' for Inactive)
REMARK    1  A    between atoms: C14_21  and  C15_22 
ROOT
HETATM    1  N1  UNL     1      59.875  74.141  -7.664  1.00  0.00    -0.365 N 
ATOM      2  H11 UNL     1      59.718  73.657  -8.548  1.00  0.00     0.159 HD
ATOM      3  H12 UNL     1      60.806  74.243  -7.259  1.00  0.00     0.159 HD
HETATM    4  C1  UNL     1      58.829  74.637  -7.048  1.00  0.00     0.222 A 
HETATM    5  N2  UNL     1      59.045  75.304  -5.829  1.00  0.00    -0.296 N 
ATOM      6  H2  UNL     1      59.999  75.384  -5.477  1.00  0.00     0.168 HD
HETATM    7  C2  UNL     1      57.989  75.870  -5.072  1.00  0.00     0.295 A 
HETATM    8  O1  UNL     1      58.334  77.170  -4.596  1.00  0.00    -0.288 OA
HETATM    9  C3  UNL     1      59.344  76.879  -3.650  1.00  0.00     0.108 A 
HETATM   10  C4  UNL     1      60.427  77.605  -3.153  1.00  0.00     0.040 A 
HETATM   11  C5  UNL     1      61.263  77.018  -2.196  1.00  0.00     0.003 A 
HETATM   12  C6  UNL     1      61.010  75.737  -1.758  1.00  0.00     0.003 A 
HETATM   13  C7  UNL     1      59.929  74.992  -2.243  1.00  0.00     0.040 A 
HETATM   14  C8  UNL     1      59.142  75.610  -3.176  1.00  0.00     0.108 A 
HETATM   15  O2  UNL     1      58.004  75.104  -3.826  1.00  0.00    -0.288 OA
HETATM   16  C9  UNL     1      56.675  75.730  -5.655  1.00  0.00     0.072 A 
HETATM   17  C10 UNL     1      56.516  75.070  -6.849  1.00  0.00     0.093 A 
HETATM   18  C11 UNL     1      55.236  74.936  -7.396  1.00  0.00     0.038 A 
HETATM   19  C12 UNL     1      54.134  75.452  -6.762  1.00  0.00     0.004 A 
HETATM   20  C13 UNL     1      54.261  76.106  -5.585  1.00  0.00     0.013 A 
HETATM   21  C14 UNL     1      55.539  76.241  -5.037  1.00  0.00    -0.009 A 
HETATM   22  O3  UNL     1      57.575  74.500  -7.593  1.00  0.00    -0.279 OA
ENDROOT
BRANCH  21  23
HETATM   23  C15 UNL     1      55.597  76.955  -3.779  1.00  0.00    -0.025 A 
HETATM   24  C16 UNL     1      55.769  76.292  -2.603  1.00  0.00     0.015 A 
HETATM   25  C17 UNL     1      55.786  76.911  -1.371  1.00  0.00     0.043 A 
HETATM   26  C18 UNL     1      55.622  78.269  -1.317  1.00  0.00     0.116 A 
HETATM   27  F1  UNL     1      55.627  78.947  -0.142  1.00  0.00    -0.206 F 
HETATM   28  C19 UNL     1      55.446  78.975  -2.481  1.00  0.00     0.043 A 
HETATM   29  C20 UNL     1      55.434  78.313  -3.721  1.00  0.00     0.015 A 
ENDBRANCH  21  23
TORSDOF 1
ENDMDL
MODEL 4
REMARK VINA RESULT: -8.371543980      0.727      1.165
REMARK  1 active torsions:
REMARK  status: ('A' for Active; 'I' for Inactive)
REMARK    1  A    between atoms: C14_21  and  C15_22 
ROOT
HETATM    1  N1  UNL     1      53.348  76.140  -6.559  1.00  0.00    -0.365 N 
ATOM      2  H11 UNL     1      52.408  76.206  -6.166  1.00  0.00     0.159 HD
ATOM      3  H12 UNL     1      53.510  75.999  -7.556  1.00  0.00     0.159 HD
HETATM    4  C1  UNL     1      54.360  76.242  -5.732  1.00  0.00     0.222 A 
HETATM    5  N2  UNL     1      55.655  76.152  -6.273  1.00  0.00    -0.296 N 
ATOM      6  H2  UNL     1      55.758  76.020  -7.279  1.00  0.00     0.168 HD
HETATM    7  C2  UNL     1      56.823  76.238  -5.474  1.00  0.00     0.295 A 
HETATM    8  O1  UNL     1      57.803  77.078  -6.081  1.00  0.00    -0.288 OA
HETATM    9  C3  UNL     1      58.189  76.315  -7.208  1.00  0.00     0.108 A 
HETATM   10  C4  UNL     1      58.713  76.649  -8.457  1.00  0.00     0.040 A 
HETATM   11  C5  UNL     1      58.997  75.631  -9.375  1.00  0.00     0.003 A 
HETATM   12  C6  UNL     1      58.755  74.318  -9.038  1.00  0.00     0.003 A 
HETATM   13  C7  UNL     1      58.230  73.960  -7.791  1.00  0.00     0.040 A 
HETATM   14  C8  UNL     1      57.971  74.991  -6.930  1.00  0.00     0.108 A 
HETATM   15  O2  UNL     1      57.447  74.925  -5.627  1.00  0.00    -0.288 OA
HETATM   16  C9  UNL     1      56.585  76.447  -4.065  1.00  0.00     0.072 A 
HETATM   17  C10 UNL     1      55.302  76.530  -3.586  1.00  0.00     0.093 A 
HETATM   18  C11 UNL     1      55.089  76.724  -2.217  1.00  0.00     0.038 A 
HETATM   19  C12 UNL     1      56.140  76.835  -1.342  1.00  0.00     0.004 A 
HETATM   20  C13 UNL     1      57.416  76.756  -1.786  1.00  0.00     0.013 A 
HETATM   21  C14 UNL     1      57.630  76.562  -3.153  1.00  0.00    -0.009 A 
HETATM   22  O3  UNL     1      54.142  76.433  -4.389  1.00  0.00    -0.279 OA
ENDROOT
BRANCH  21  23
HETATM   23  C15 UNL     1      59.019  76.492  -3.554  1.00  0.00    -0.025 A 
HETATM   24  C16 UNL     1      59.701  77.610  -3.924  1.00  0.00     0.015 A 
HETATM   25  C17 UNL     1      61.008  77.601  -4.361  1.00  0.00     0.043 A 
HETATM   26  C18 UNL     1      61.669  76.404  -4.427  1.00  0.00     0.116 A 
HETATM   27  F1  UNL     1      62.955  76.315  -4.846  1.00  0.00    -0.206 F 
HETATM   28  C19 UNL     1      61.017  75.252  -4.063  1.00  0.00     0.043 A 
HETATM   29  C20 UNL     1      59.683  75.296  -3.622  1.00  0.00     0.015 A 
ENDBRANCH  21  23
TORSDOF 1
ENDMDL
MODEL 5
REMARK VINA RESULT: -8.346239309      1.605      4.765
REMARK  1 active torsions:
REMARK  status: ('A' for Active; 'I' for Inactive)
REMARK    1  A    between atoms: C14_21  and  C15_22 
ROOT
HETATM    1  N1  UNL     1      53.763  75.575  -6.778  1.00  0.00    -0.365 N 
ATOM      2  H11 UNL     1      53.409  75.436  -7.725  1.00  0.00     0.159 HD
ATOM      3  H12 UNL     1      53.142  75.633  -5.971  1.00  0.00     0.159 HD
HETATM    4  C1  UNL     1      55.061  75.679  -6.624  1.00  0.00     0.222 A 
HETATM    5  N2  UNL     1      55.549  75.870  -5.319  1.00  0.00    -0.296 N 
ATOM      6  H2  UNL     1      54.882  75.911  -4.548  1.00  0.00     0.168 HD
HETATM    7  C2  UNL     1      56.931  76.006  -5.034  1.00  0.00     0.295 A 
HETATM    8  O1  UNL     1      57.301  75.234  -3.893  1.00  0.00    -0.288 OA
HETATM    9  C3  UNL     1      56.644  75.920  -2.845  1.00  0.00     0.108 A 
HETATM   10  C4  UNL     1      56.167  75.528  -1.595  1.00  0.00     0.040 A 
HETATM   11  C5  UNL     1      55.548  76.474  -0.770  1.00  0.00     0.003 A 
HETATM   12  C6  UNL     1      55.417  77.776  -1.199  1.00  0.00     0.003 A 
HETATM   13  C7  UNL     1      55.889  78.191  -2.449  1.00  0.00     0.040 A 
HETATM   14  C8  UNL     1      56.486  77.229  -3.218  1.00  0.00     0.108 A 
HETATM   15  O2  UNL     1      57.044  77.363  -4.500  1.00  0.00    -0.288 OA
HETATM   16  C9  UNL     1      57.803  75.914  -6.180  1.00  0.00     0.072 A 
HETATM   17  C10 UNL     1      57.278  75.725  -7.435  1.00  0.00     0.093 A 
HETATM   18  C11 UNL     1      58.137  75.646  -8.535  1.00  0.00     0.038 A 
HETATM   19  C12 UNL     1      59.497  75.752  -8.387  1.00  0.00     0.004 A 
HETATM   20  C13 UNL     1      60.042  75.938  -7.163  1.00  0.00     0.013 A 
HETATM   21  C14 UNL     1      59.186  76.018  -6.061  1.00  0.00    -0.009 A 
HETATM   22  O3  UNL     1      55.897  75.600  -7.711  1.00  0.00    -0.279 OA
ENDROOT
BRANCH  21  23
HETATM   23  C15 UNL     1      59.840  76.214  -4.786  1.00  0.00    -0.025 A 
HETATM   24  C16 UNL     1      60.080  77.464  -4.304  1.00  0.00     0.015 A 
HETATM   25  C17 UNL     1      60.740  77.714  -3.120  1.00  0.00     0.043 A 
HETATM   26  C18 UNL     1      61.182  76.653  -2.378  1.00  0.00     0.116 A 
HETATM   27  F1  UNL     1      61.839  76.820  -1.203  1.00  0.00    -0.206 F 
HETATM   28  C19 UNL     1      60.961  75.375  -2.829  1.00  0.00     0.043 A 
HETATM   29  C20 UNL     1      60.284  75.154  -4.041  1.00  0.00     0.015 A 
ENDBRANCH  21  23
TORSDOF 1
ENDMDL
