MODEL 1
REMARK VINA RESULT: -7.872265971      0.000      0.000
REMARK  2 active torsions:
REMARK  status: ('A' for Active; 'I' for Inactive)
REMARK    1  A    between atoms: C2_2  and  N1_3 
REMARK    2  A    between atoms: C14_20  and  N4_21 
ROOT
HETATM    1  N1  UNL     1      56.473  76.267  -3.091  1.00  0.00    -0.252 N 
HETATM    2  C3  UNL     1      57.860  75.836  -3.038  1.00  0.00     0.151 A 
HETATM    3  N2  UNL     1      58.584  75.964  -1.902  1.00  0.00    -0.339 N 
ATOM      4  H2  UNL     1      58.138  76.369  -1.079  1.00  0.00     0.167 HD
HETATM    5  C4  UNL     1      59.868  75.577  -1.817  1.00  0.00     0.044 A 
HETATM    6  C5  UNL     1      60.490  75.768  -0.582  1.00  0.00     0.032 A 
HETATM    7  C6  UNL     1      61.807  75.386  -0.449  1.00  0.00     0.021 A 
HETATM    8  C7  UNL     1      62.466  74.827  -1.539  1.00  0.00     0.011 A 
HETATM    9 BR1  UNL     1      64.293  74.295  -1.358  1.00  0.00    -0.051 Br
HETATM   10  C8  UNL     1      61.856  74.639  -2.748  1.00  0.00     0.032 A 
HETATM   11  C9  UNL     1      60.536  75.023  -2.879  1.00  0.00    -0.006 A 
HETATM   12  C10 UNL     1      59.832  74.878  -4.052  1.00  0.00     0.047 A 
HETATM   13  C11 UNL     1      58.510  75.286  -4.107  1.00  0.00     0.081 A 
HETATM   14  N3  UNL     1      57.767  75.146  -5.304  1.00  0.00    -0.337 N 
ATOM     15  H3  UNL     1      58.203  74.743  -6.133  1.00  0.00     0.168 HD
HETATM   16  C12 UNL     1      56.421  75.566  -5.345  1.00  0.00     0.149 A 
HETATM   17  C13 UNL     1      55.559  75.499  -6.430  1.00  0.00     0.101 A 
HETATM   18  C14 UNL     1      54.384  76.024  -5.966  1.00  0.00     0.118 A 
HETATM   19  N5  UNL     1      54.533  76.393  -4.659  1.00  0.00    -0.263 N 
ATOM     20  H5  UNL     1      53.810  76.812  -4.073  1.00  0.00     0.191 HD
HETATM   21  N6  UNL     1      55.769  76.116  -4.280  1.00  0.00    -0.174 N 
ENDROOT
BRANCH  18  22
HETATM   22  N4  UNL     1      53.303  76.157  -6.645  1.00  0.00    -0.384 N 
ATOM     23  H42 UNL     1      52.754  75.383  -7.019  1.00  0.00     0.157 HD
ATOM     24  H41 UNL     1      52.858  77.041  -6.892  1.00  0.00     0.157 HD
ENDBRANCH  18  22
BRANCH   1  25
HETATM   25  C2  UNL     1      55.984  76.810  -1.876  1.00  0.00     0.148 C 
HETATM   26  C1  UNL     1      55.198  75.999  -0.936  1.00  0.00     0.028 C 
ENDBRANCH   1  25
TORSDOF 2
ENDMDL
MODEL 2
REMARK VINA RESULT: -7.236085763      1.424      2.818
REMARK  2 active torsions:
REMARK  status: ('A' for Active; 'I' for Inactive)
REMARK    1  A    between atoms: C2_2  and  N1_3 
REMARK    2  A    between atoms: C14_20  and  N4_21 
ROOT
HETATM    1  N1  UNL     1      57.454  75.596  -5.266  1.00  0.00    -0.252 N 
HETATM    2  C3  UNL     1      58.367  75.591  -4.136  1.00  0.00     0.151 A 
HETATM    3  N2  UNL     1      59.593  75.027  -4.235  1.00  0.00    -0.339 N 
ATOM      4  H2  UNL     1      59.868  74.603  -5.122  1.00  0.00     0.167 HD
HETATM    5  C4  UNL     1      60.462  75.004  -3.212  1.00  0.00     0.044 A 
HETATM    6  C5  UNL     1      61.690  74.388  -3.458  1.00  0.00     0.032 A 
HETATM    7  C6  UNL     1      62.613  74.342  -2.436  1.00  0.00     0.021 A 
HETATM    8  C7  UNL     1      62.294  74.905  -1.205  1.00  0.00     0.011 A 
HETATM    9 BR1  UNL     1      63.571  74.842   0.216  1.00  0.00    -0.051 Br
HETATM   10  C8  UNL     1      61.091  75.508  -0.964  1.00  0.00     0.032 A 
HETATM   11  C9  UNL     1      60.167  75.554  -1.989  1.00  0.00    -0.006 A 
HETATM   12  C10 UNL     1      58.929  76.137  -1.851  1.00  0.00     0.047 A 
HETATM   13  C11 UNL     1      58.056  76.144  -2.926  1.00  0.00     0.081 A 
HETATM   14  N3  UNL     1      56.777  76.738  -2.804  1.00  0.00    -0.337 N 
ATOM     15  H3  UNL     1      56.492  77.164  -1.923  1.00  0.00     0.168 HD
HETATM   16  C12 UNL     1      55.898  76.738  -3.908  1.00  0.00     0.149 A 
HETATM   17  C13 UNL     1      54.620  77.275  -3.956  1.00  0.00     0.101 A 
HETATM   18  C14 UNL     1      54.190  77.022  -5.229  1.00  0.00     0.118 A 
HETATM   19  N5  UNL     1      55.168  76.361  -5.919  1.00  0.00    -0.263 N 
ATOM     20  H5  UNL     1      55.107  76.054  -6.889  1.00  0.00     0.191 HD
HETATM   21  N6  UNL     1      56.205  76.188  -5.118  1.00  0.00    -0.174 N 
ENDROOT
BRANCH  18  22
HETATM   22  N4  UNL     1      53.048  77.350  -5.715  1.00  0.00    -0.384 N 
ATOM     23  H42 UNL     1      52.275  76.703  -5.867  1.00  0.00     0.157 HD
ATOM     24  H41 UNL     1      52.770  78.287  -6.006  1.00  0.00     0.157 HD
ENDBRANCH  18  22
BRANCH   1  25
HETATM   25  C2  UNL     1      57.967  74.973  -6.433  1.00  0.00     0.148 C 
HETATM   26  C1  UNL     1      58.312  75.754  -7.629  1.00  0.00     0.028 C 
ENDBRANCH   1  25
TORSDOF 2
ENDMDL
MODEL 3
REMARK VINA RESULT: -7.129562072      3.732      6.611
REMARK  2 active torsions:
REMARK  status: ('A' for Active; 'I' for Inactive)
REMARK    1  A    between atoms: C2_2  and  N1_3 
REMARK    2  A    between atoms: C14_20  and  N4_21 
ROOT
HETATM    1  N1  UNL     1      61.100  74.989  -1.507  1.00  0.00    -0.252 N 
HETATM    2  C3  UNL     1      59.892  75.475  -2.152  1.00  0.00     0.151 A 
HETATM    3  N2  UNL     1      58.968  76.179  -1.458  1.00  0.00    -0.339 N 
ATOM      4  H2  UNL     1      59.135  76.365  -0.469  1.00  0.00     0.167 HD
HETATM    5  C4  UNL     1      57.840  76.641  -2.021  1.00  0.00     0.044 A 
HETATM    6  C5  UNL     1      56.978  77.351  -1.184  1.00  0.00     0.032 A 
HETATM    7  C6  UNL     1      55.809  77.846  -1.720  1.00  0.00     0.021 A 
HETATM    8  C7  UNL     1      55.529  77.623  -3.064  1.00  0.00     0.011 A 
HETATM    9 BR1  UNL     1      53.908  78.306  -3.811  1.00  0.00    -0.051 Br
HETATM   10  C8  UNL     1      56.374  76.927  -3.884  1.00  0.00     0.032 A 
HETATM   11  C9  UNL     1      57.545  76.433  -3.345  1.00  0.00    -0.006 A 
HETATM   12  C10 UNL     1      58.462  75.721  -4.083  1.00  0.00     0.047 A 
HETATM   13  C11 UNL     1      59.615  75.257  -3.472  1.00  0.00     0.081 A 
HETATM   14  N3  UNL     1      60.571  74.522  -4.214  1.00  0.00    -0.337 N 
ATOM     15  H3  UNL     1      60.414  74.330  -5.203  1.00  0.00     0.168 HD
HETATM   16  C12 UNL     1      61.741  74.057  -3.578  1.00  0.00     0.149 A 
HETATM   17  C13 UNL     1      62.771  73.328  -4.156  1.00  0.00     0.101 A 
HETATM   18  C14 UNL     1      63.660  73.124  -3.137  1.00  0.00     0.118 A 
HETATM   19  N5  UNL     1      63.186  73.705  -1.994  1.00  0.00    -0.263 N 
ATOM     20  H5  UNL     1      63.654  73.703  -1.088  1.00  0.00     0.191 HD
HETATM   21  N6  UNL     1      62.022  74.271  -2.260  1.00  0.00    -0.174 N 
ENDROOT
BRANCH  18  22
HETATM   22  N4  UNL     1      64.771  72.488  -3.227  1.00  0.00    -0.384 N 
ATOM     23  H42 UNL     1      65.564  72.782  -3.797  1.00  0.00     0.157 HD
ATOM     24  H41 UNL     1      65.001  71.619  -2.746  1.00  0.00     0.157 HD
ENDBRANCH  18  22
BRANCH   1  25
HETATM   25  C2  UNL     1      61.201  75.322  -0.131  1.00  0.00     0.148 C 
HETATM   26  C1  UNL     1      62.151  76.335   0.344  1.00  0.00     0.028 C 
ENDBRANCH   1  25
TORSDOF 2
ENDMDL
MODEL 4
REMARK VINA RESULT: -7.074175105      3.737      7.378
REMARK  2 active torsions:
REMARK  status: ('A' for Active; 'I' for Inactive)
REMARK    1  A    between atoms: C2_2  and  N1_3 
REMARK    2  A    between atoms: C14_20  and  N4_21 
ROOT
HETATM    1  N1  UNL     1      61.713  75.976  -3.068  1.00  0.00    -0.252 N 
HETATM    2  C3  UNL     1      60.324  76.347  -2.859  1.00  0.00     0.151 A 
HETATM    3  N2  UNL     1      59.567  76.813  -3.879  1.00  0.00    -0.339 N 
ATOM      4  H2  UNL     1      59.990  76.900  -4.803  1.00  0.00     0.167 HD
HETATM    5  C4  UNL     1      58.281  77.166  -3.722  1.00  0.00     0.044 A 
HETATM    6  C5  UNL     1      57.623  77.630  -4.862  1.00  0.00     0.032 A 
HETATM    7  C6  UNL     1      56.302  78.002  -4.747  1.00  0.00     0.021 A 
HETATM    8  C7  UNL     1      55.673  77.905  -3.510  1.00  0.00     0.011 A 
HETATM    9 BR1  UNL     1      53.840  78.421  -3.347  1.00  0.00    -0.051 Br
HETATM   10  C8  UNL     1      56.317  77.450  -2.393  1.00  0.00     0.032 A 
HETATM   11  C9  UNL     1      57.641  77.077  -2.511  1.00  0.00    -0.006 A 
HETATM   12  C10 UNL     1      58.379  76.607  -1.449  1.00  0.00     0.047 A 
HETATM   13  C11 UNL     1      59.703  76.252  -1.645  1.00  0.00     0.081 A 
HETATM   14  N3  UNL     1      60.480  75.766  -0.566  1.00  0.00    -0.337 N 
ATOM     15  H3  UNL     1      60.068  75.676   0.362  1.00  0.00     0.168 HD
HETATM   16  C12 UNL     1      61.828  75.408  -0.781  1.00  0.00     0.149 A 
HETATM   17  C13 UNL     1      62.721  74.918   0.162  1.00  0.00     0.101 A 
HETATM   18  C14 UNL     1      63.883  74.728  -0.534  1.00  0.00     0.118 A 
HETATM   19  N5  UNL     1      63.698  75.089  -1.840  1.00  0.00    -0.263 N 
ATOM     20  H5  UNL     1      64.404  75.046  -2.574  1.00  0.00     0.191 HD
HETATM   21  N6  UNL     1      62.451  75.502  -1.991  1.00  0.00    -0.174 N 
ENDROOT
BRANCH  18  22
HETATM   22  N4  UNL     1      64.984  74.282  -0.049  1.00  0.00    -0.384 N 
ATOM     23  H42 UNL     1      65.124  74.021   0.927  1.00  0.00     0.157 HD
ATOM     24  H41 UNL     1      65.848  74.131  -0.569  1.00  0.00     0.157 HD
ENDBRANCH  18  22
BRANCH   1  25
HETATM   25  C2  UNL     1      62.167  76.148  -4.401  1.00  0.00     0.148 C 
HETATM   26  C1  UNL     1      63.112  77.214  -4.757  1.00  0.00     0.028 C 
ENDBRANCH   1  25
TORSDOF 2
ENDMDL
MODEL 5
REMARK VINA RESULT: -7.072086100      1.979      3.198
REMARK  2 active torsions:
REMARK  status: ('A' for Active; 'I' for Inactive)
REMARK    1  A    between atoms: C2_2  and  N1_3 
REMARK    2  A    between atoms: C14_20  and  N4_21 
ROOT
HETATM    1  N1  UNL     1      57.804  77.213  -4.173  1.00  0.00    -0.252 N 
HETATM    2  C3  UNL     1      58.793  76.740  -3.218  1.00  0.00     0.151 A 
HETATM    3  N2  UNL     1      60.021  76.345  -3.627  1.00  0.00    -0.339 N 
ATOM      4  H2  UNL     1      60.243  76.385  -4.622  1.00  0.00     0.167 HD
HETATM    5  C4  UNL     1      60.958  75.902  -2.773  1.00  0.00     0.044 A 
HETATM    6  C5  UNL     1      62.179  75.529  -3.336  1.00  0.00     0.032 A 
HETATM    7  C6  UNL     1      63.171  75.069  -2.497  1.00  0.00     0.021 A 
HETATM    8  C7  UNL     1      62.924  74.993  -1.130  1.00  0.00     0.011 A 
HETATM    9 BR1  UNL     1      64.297  74.355   0.037  1.00  0.00    -0.051 Br
HETATM   10  C8  UNL     1      61.728  75.359  -0.579  1.00  0.00     0.032 A 
HETATM   11  C9  UNL     1      60.736  75.820  -1.421  1.00  0.00    -0.006 A 
HETATM   12  C10 UNL     1      59.498  76.213  -0.968  1.00  0.00     0.047 A 
HETATM   13  C11 UNL     1      58.553  76.665  -1.875  1.00  0.00     0.081 A 
HETATM   14  N3  UNL     1      57.273  77.074  -1.430  1.00  0.00    -0.337 N 
ATOM     15  H3  UNL     1      57.040  77.037  -0.438  1.00  0.00     0.168 HD
HETATM   16  C12 UNL     1      56.321  77.532  -2.365  1.00  0.00     0.149 A 
HETATM   17  C13 UNL     1      55.031  77.967  -2.097  1.00  0.00     0.101 A 
HETATM   18  C14 UNL     1      54.521  78.300  -3.321  1.00  0.00     0.118 A 
HETATM   19  N5  UNL     1      55.463  78.075  -4.285  1.00  0.00    -0.263 N 
ATOM     20  H5  UNL     1      55.342  78.240  -5.285  1.00  0.00     0.191 HD
HETATM   21  N6  UNL     1      56.556  77.608  -3.706  1.00  0.00    -0.174 N 
ENDROOT
BRANCH  18  22
HETATM   22  N4  UNL     1      53.342  78.754  -3.544  1.00  0.00    -0.384 N 
ATOM     23  H42 UNL     1      52.478  78.257  -3.329  1.00  0.00     0.157 HD
ATOM     24  H41 UNL     1      53.120  79.660  -3.958  1.00  0.00     0.157 HD
ENDBRANCH  18  22
BRANCH   1  25
HETATM   25  C2  UNL     1      58.249  77.216  -5.520  1.00  0.00     0.148 C 
HETATM   26  C1  UNL     1      58.594  78.466  -6.209  1.00  0.00     0.028 C 
ENDBRANCH   1  25
TORSDOF 2
ENDMDL
