MODEL 1
REMARK VINA RESULT: -8.500007782      0.000      0.000
REMARK  1 active torsions:
REMARK  status: ('A' for Active; 'I' for Inactive)
REMARK    1  A    between atoms: N1_1  and  C1_4 
ROOT
HETATM    1  C1  UNL     1      55.330  78.133  -4.470  1.00  0.00     0.113 A 
HETATM    2  N2  UNL     1      56.240  78.323  -5.446  1.00  0.00    -0.327 N 
ATOM      3  H2  UNL     1      55.917  78.780  -6.299  1.00  0.00     0.169 HD
HETATM    4  C2  UNL     1      57.489  77.980  -5.398  1.00  0.00     0.123 A 
HETATM    5  C3  UNL     1      58.516  78.064  -6.381  1.00  0.00     0.029 C 
HETATM    6  C4  UNL     1      59.431  79.109  -6.432  1.00  0.00     0.017 C 
HETATM    7  C5  UNL     1      60.493  79.380  -5.560  1.00  0.00     0.004 C 
HETATM    8  C6  UNL     1      61.596  78.841  -4.997  1.00  0.00     0.044 C 
HETATM    9  C7  UNL     1      61.593  77.643  -4.113  1.00  0.00     0.143 C 
HETATM   10  F1  UNL     1      62.535  77.272  -3.323  1.00  0.00    -0.204 F 
HETATM   11  C8  UNL     1      60.402  77.023  -4.319  1.00  0.00     0.098 A 
HETATM   12  C9  UNL     1      59.200  77.138  -4.005  1.00  0.00     0.254 A 
HETATM   13  N3  UNL     1      57.893  77.339  -4.160  1.00  0.00    -0.303 N 
HETATM   14  C10 UNL     1      57.073  77.122  -3.186  1.00  0.00     0.052 A 
HETATM   15  C11 UNL     1      57.499  76.493  -1.995  1.00  0.00     0.031 A 
HETATM   16  C12 UNL     1      56.646  76.261  -0.959  1.00  0.00     0.002 A 
HETATM   17  C13 UNL     1      55.334  76.647  -1.072  1.00  0.00     0.001 A 
HETATM   18  C14 UNL     1      54.901  77.269  -2.243  1.00  0.00     0.017 A 
HETATM   19  C15 UNL     1      55.734  77.521  -3.312  1.00  0.00     0.035 A 
HETATM   20  N4  UNL     1      59.864  76.448  -5.183  1.00  0.00    -0.301 N 
HETATM   21  C16 UNL     1      59.597  75.868  -6.298  1.00  0.00     0.128 A 
HETATM   22  N5  UNL     1      59.833  74.784  -6.915  1.00  0.00    -0.345 N 
ATOM     23  H5  UNL     1      60.364  74.076  -6.409  1.00  0.00     0.167 HD
HETATM   24  C17 UNL     1      59.471  74.486  -8.113  1.00  0.00     0.140 A 
HETATM   25  S1  UNL     1      58.643  75.935  -8.524  1.00  0.00    -0.080 SA
HETATM   26  C18 UNL     1      58.786  76.862  -7.159  1.00  0.00     0.064 A 
ENDROOT
BRANCH   1  27
HETATM   27  N1  UNL     1      54.130  78.510  -4.626  1.00  0.00    -0.385 N 
ATOM     28  H12 UNL     1      53.693  78.506  -5.548  1.00  0.00     0.157 HD
ATOM     29  H11 UNL     1      53.579  78.828  -3.829  1.00  0.00     0.157 HD
ENDBRANCH   1  27
TORSDOF 1
ENDMDL
MODEL 2
REMARK VINA RESULT: -8.145794434      2.805      5.035
REMARK  1 active torsions:
REMARK  status: ('A' for Active; 'I' for Inactive)
REMARK    1  A    between atoms: N1_1  and  C1_4 
ROOT
HETATM    1  C1  UNL     1      60.965  77.971  -3.509  1.00  0.00     0.113 A 
HETATM    2  N2  UNL     1      59.970  78.409  -4.305  1.00  0.00    -0.327 N 
ATOM      3  H2  UNL     1      59.764  79.408  -4.282  1.00  0.00     0.169 HD
HETATM    4  C2  UNL     1      59.251  77.677  -5.096  1.00  0.00     0.123 A 
HETATM    5  C3  UNL     1      58.140  78.013  -5.922  1.00  0.00     0.029 C 
HETATM    6  C4  UNL     1      58.260  78.292  -7.278  1.00  0.00     0.017 C 
HETATM    7  C5  UNL     1      58.543  77.410  -8.327  1.00  0.00     0.004 C 
HETATM    8  C6  UNL     1      58.146  76.257  -8.909  1.00  0.00     0.044 C 
HETATM    9  C7  UNL     1      58.115  74.935  -8.226  1.00  0.00     0.143 C 
HETATM   10  F1  UNL     1      58.044  73.783  -8.790  1.00  0.00    -0.204 F 
HETATM   11  C8  UNL     1      58.170  75.194  -6.894  1.00  0.00     0.098 A 
HETATM   12  C9  UNL     1      58.998  75.518  -6.019  1.00  0.00     0.254 A 
HETATM   13  N3  UNL     1      59.590  76.267  -5.090  1.00  0.00    -0.303 N 
HETATM   14  C10 UNL     1      60.529  75.778  -4.350  1.00  0.00     0.052 A 
HETATM   15  C11 UNL     1      60.832  74.398  -4.365  1.00  0.00     0.031 A 
HETATM   16  C12 UNL     1      61.820  73.869  -3.593  1.00  0.00     0.002 A 
HETATM   17  C13 UNL     1      62.546  74.697  -2.774  1.00  0.00     0.001 A 
HETATM   18  C14 UNL     1      62.256  76.062  -2.749  1.00  0.00     0.017 A 
HETATM   19  C15 UNL     1      61.264  76.634  -3.516  1.00  0.00     0.035 A 
HETATM   20  N4  UNL     1      57.491  75.686  -6.079  1.00  0.00    -0.301 N 
HETATM   21  C16 UNL     1      56.509  76.243  -5.467  1.00  0.00     0.128 A 
HETATM   22  N5  UNL     1      55.374  75.954  -4.974  1.00  0.00    -0.345 N 
ATOM     23  H5  UNL     1      55.103  74.972  -4.995  1.00  0.00     0.167 HD
HETATM   24  C17 UNL     1      54.531  76.773  -4.453  1.00  0.00     0.140 A 
HETATM   25  S1  UNL     1      55.408  78.239  -4.645  1.00  0.00    -0.080 SA
HETATM   26  C18 UNL     1      56.812  77.755  -5.378  1.00  0.00     0.064 A 
ENDROOT
BRANCH   1  27
HETATM   27  N1  UNL     1      61.604  78.780  -2.772  1.00  0.00    -0.385 N 
ATOM     28  H12 UNL     1      61.454  79.786  -2.842  1.00  0.00     0.157 HD
ATOM     29  H11 UNL     1      62.285  78.436  -2.093  1.00  0.00     0.157 HD
ENDBRANCH   1  27
TORSDOF 1
ENDMDL
MODEL 3
REMARK VINA RESULT: -8.093321392      3.319      5.879
REMARK  1 active torsions:
REMARK  status: ('A' for Active; 'I' for Inactive)
REMARK    1  A    between atoms: N1_1  and  C1_4 
ROOT
HETATM    1  C1  UNL     1      62.748  73.681  -3.433  1.00  0.00     0.113 A 
HETATM    2  N2  UNL     1      61.698  74.015  -4.209  1.00  0.00    -0.327 N 
ATOM      3  H2  UNL     1      61.633  73.562  -5.121  1.00  0.00     0.169 HD
HETATM    4  C2  UNL     1      60.764  74.859  -3.902  1.00  0.00     0.123 A 
HETATM    5  C3  UNL     1      59.658  75.340  -4.659  1.00  0.00     0.029 C 
HETATM    6  C4  UNL     1      58.378  74.810  -4.550  1.00  0.00     0.017 C 
HETATM    7  C5  UNL     1      57.473  74.931  -3.489  1.00  0.00     0.004 C 
HETATM    8  C6  UNL     1      56.841  75.828  -2.702  1.00  0.00     0.044 C 
HETATM    9  C7  UNL     1      57.530  76.799  -1.808  1.00  0.00     0.143 C 
HETATM   10  F1  UNL     1      57.004  77.451  -0.834  1.00  0.00    -0.204 F 
HETATM   11  C8  UNL     1      58.819  76.858  -2.234  1.00  0.00     0.098 A 
HETATM   12  C9  UNL     1      59.876  76.199  -2.172  1.00  0.00     0.254 A 
HETATM   13  N3  UNL     1      60.907  75.469  -2.593  1.00  0.00    -0.303 N 
HETATM   14  C10 UNL     1      61.889  75.197  -1.800  1.00  0.00     0.052 A 
HETATM   15  C11 UNL     1      61.999  75.811  -0.532  1.00  0.00     0.031 A 
HETATM   16  C12 UNL     1      63.027  75.532   0.316  1.00  0.00     0.002 A 
HETATM   17  C13 UNL     1      63.987  74.630  -0.068  1.00  0.00     0.001 A 
HETATM   18  C14 UNL     1      63.890  74.017  -1.319  1.00  0.00     0.017 A 
HETATM   19  C15 UNL     1      62.865  74.273  -2.203  1.00  0.00     0.035 A 
HETATM   20  N4  UNL     1      59.402  77.235  -3.175  1.00  0.00    -0.301 N 
HETATM   21  C16 UNL     1      59.707  77.763  -4.305  1.00  0.00     0.128 A 
HETATM   22  N5  UNL     1      59.881  78.904  -4.836  1.00  0.00    -0.345 N 
ATOM     23  H5  UNL     1      59.818  79.711  -4.216  1.00  0.00     0.167 HD
HETATM   24  C17 UNL     1      60.128  79.147  -6.074  1.00  0.00     0.140 A 
HETATM   25  S1  UNL     1      60.136  77.538  -6.679  1.00  0.00    -0.080 SA
HETATM   26  C18 UNL     1      59.828  76.619  -5.337  1.00  0.00     0.064 A 
ENDROOT
BRANCH   1  27
HETATM   27  N1  UNL     1      63.606  72.840  -3.837  1.00  0.00    -0.385 N 
ATOM     28  H12 UNL     1      63.764  72.687  -4.834  1.00  0.00     0.157 HD
ATOM     29  H11 UNL     1      64.155  72.297  -3.170  1.00  0.00     0.157 HD
ENDBRANCH   1  27
TORSDOF 1
ENDMDL
MODEL 4
REMARK VINA RESULT: -7.927095824      2.468      4.084
REMARK  1 active torsions:
REMARK  status: ('A' for Active; 'I' for Inactive)
REMARK    1  A    between atoms: N1_1  and  C1_4 
ROOT
HETATM    1  C1  UNL     1      57.458  76.718  -2.109  1.00  0.00     0.113 A 
HETATM    2  N2  UNL     1      58.655  76.563  -2.709  1.00  0.00    -0.327 N 
ATOM      3  H2  UNL     1      59.384  76.093  -2.172  1.00  0.00     0.169 HD
HETATM    4  C2  UNL     1      58.962  76.956  -3.904  1.00  0.00     0.123 A 
HETATM    5  C3  UNL     1      60.199  76.912  -4.610  1.00  0.00     0.029 C 
HETATM    6  C4  UNL     1      60.520  75.905  -5.512  1.00  0.00     0.017 C 
HETATM    7  C5  UNL     1      59.991  75.678  -6.789  1.00  0.00     0.004 C 
HETATM    8  C6  UNL     1      59.761  76.261  -7.985  1.00  0.00     0.044 C 
HETATM    9  C7  UNL     1      58.901  77.459  -8.188  1.00  0.00     0.143 C 
HETATM   10  F1  UNL     1      58.409  77.869  -9.301  1.00  0.00    -0.204 F 
HETATM   11  C8  UNL     1      58.751  78.031  -6.965  1.00  0.00     0.098 A 
HETATM   12  C9  UNL     1      58.108  77.868  -5.908  1.00  0.00     0.254 A 
HETATM   13  N3  UNL     1      57.885  77.614  -4.620  1.00  0.00    -0.303 N 
HETATM   14  C10 UNL     1      56.716  77.799  -4.105  1.00  0.00     0.052 A 
HETATM   15  C11 UNL     1      55.689  78.446  -4.829  1.00  0.00     0.031 A 
HETATM   16  C12 UNL     1      54.451  78.646  -4.300  1.00  0.00     0.002 A 
HETATM   17  C13 UNL     1      54.187  78.207  -3.027  1.00  0.00     0.001 A 
HETATM   18  C14 UNL     1      55.193  77.566  -2.301  1.00  0.00     0.017 A 
HETATM   19  C15 UNL     1      56.457  77.346  -2.802  1.00  0.00     0.035 A 
HETATM   20  N4  UNL     1      59.420  78.582  -6.180  1.00  0.00    -0.301 N 
HETATM   21  C16 UNL     1      60.405  79.150  -5.583  1.00  0.00     0.128 A 
HETATM   22  N5  UNL     1      61.054  80.242  -5.590  1.00  0.00    -0.345 N 
ATOM     23  H5  UNL     1      60.713  80.972  -6.215  1.00  0.00     0.167 HD
HETATM   24  C17 UNL     1      62.094  80.523  -4.890  1.00  0.00     0.140 A 
HETATM   25  S1  UNL     1      62.266  79.041  -4.036  1.00  0.00    -0.080 SA
HETATM   26  C18 UNL     1      61.009  78.124  -4.598  1.00  0.00     0.064 A 
ENDROOT
BRANCH   1  27
HETATM   27  N1  UNL     1      57.268  76.292  -0.930  1.00  0.00    -0.385 N 
ATOM     28  H12 UNL     1      56.767  76.854  -0.242  1.00  0.00     0.157 HD
ATOM     29  H11 UNL     1      57.616  75.375  -0.647  1.00  0.00     0.157 HD
ENDBRANCH   1  27
TORSDOF 1
ENDMDL
MODEL 5
REMARK VINA RESULT: -7.887437671      2.218      2.777
REMARK  1 active torsions:
REMARK  status: ('A' for Active; 'I' for Inactive)
REMARK    1  A    between atoms: N1_1  and  C1_4 
ROOT
HETATM    1  C1  UNL     1      56.726  76.270  -5.298  1.00  0.00     0.113 A 
HETATM    2  N2  UNL     1      58.030  76.294  -5.640  1.00  0.00    -0.327 N 
ATOM      3  H2  UNL     1      58.254  76.125  -6.621  1.00  0.00     0.169 HD
HETATM    4  C2  UNL     1      59.023  76.511  -4.836  1.00  0.00     0.123 A 
HETATM    5  C3  UNL     1      60.428  76.490  -5.066  1.00  0.00     0.029 C 
HETATM    6  C4  UNL     1      61.170  77.637  -5.321  1.00  0.00     0.017 C 
HETATM    7  C5  UNL     1      61.513  78.667  -4.437  1.00  0.00     0.004 C 
HETATM    8  C6  UNL     1      62.092  78.923  -3.244  1.00  0.00     0.044 C 
HETATM    9  C7  UNL     1      61.605  78.394  -1.940  1.00  0.00     0.143 C 
HETATM   10  F1  UNL     1      61.915  78.831  -0.773  1.00  0.00    -0.204 F 
HETATM   11  C8  UNL     1      60.778  77.358  -2.235  1.00  0.00     0.098 A 
HETATM   12  C9  UNL     1      59.617  77.151  -2.642  1.00  0.00     0.254 A 
HETATM   13  N3  UNL     1      58.643  76.747  -3.456  1.00  0.00    -0.303 N 
HETATM   14  C10 UNL     1      57.414  76.736  -3.058  1.00  0.00     0.052 A 
HETATM   15  C11 UNL     1      57.079  76.967  -1.705  1.00  0.00     0.031 A 
HETATM   16  C12 UNL     1      55.789  76.961  -1.272  1.00  0.00     0.002 A 
HETATM   17  C13 UNL     1      54.781  76.723  -2.172  1.00  0.00     0.001 A 
HETATM   18  C14 UNL     1      55.099  76.493  -3.511  1.00  0.00     0.017 A 
HETATM   19  C15 UNL     1      56.392  76.491  -3.987  1.00  0.00     0.035 A 
HETATM   20  N4  UNL     1      60.863  76.286  -2.694  1.00  0.00    -0.301 N 
HETATM   21  C16 UNL     1      61.316  75.191  -3.189  1.00  0.00     0.128 A 
HETATM   22  N5  UNL     1      61.899  74.122  -2.828  1.00  0.00    -0.345 N 
ATOM     23  H5  UNL     1      62.052  74.001  -1.827  1.00  0.00     0.167 HD
HETATM   24  C17 UNL     1      62.315  73.176  -3.592  1.00  0.00     0.140 A 
HETATM   25  S1  UNL     1      61.845  73.820  -5.115  1.00  0.00    -0.080 SA
HETATM   26  C18 UNL     1      61.135  75.263  -4.722  1.00  0.00     0.064 A 
ENDROOT
BRANCH   1  27
HETATM   27  N1  UNL     1      55.835  76.046  -6.171  1.00  0.00    -0.385 N 
ATOM     28  H12 UNL     1      56.026  75.451  -6.977  1.00  0.00     0.157 HD
ATOM     29  H11 UNL     1      54.907  76.462  -6.082  1.00  0.00     0.157 HD
ENDBRANCH   1  27
TORSDOF 1
ENDMDL
