MODEL 1
REMARK VINA RESULT: -7.639514503      0.000      0.000
REMARK  12 active torsions:
REMARK  status: ('A' for Active; 'I' for Inactive)
REMARK    1  A    between atoms: N1_1  and  C1_4 
REMARK    2  A    between atoms: N6_16  and  C5_17 
REMARK    3  A    between atoms: C7_20  and  C8_21 
REMARK    4  A    between atoms: C12_26  and  C13_27 
REMARK    5  A    between atoms: C13_27  and  O1_28 
REMARK    6  A    between atoms: C13_27  and  C19_44 
REMARK    7  A    between atoms: O1_28  and  C14_29 
REMARK       I    between atoms: C14_29  and  N7_31 
REMARK    8  A    between atoms: N7_31  and  C15_32 
REMARK    9  A    between atoms: N7_31  and  C17_36 
REMARK   10  A    between atoms: C15_32  and  C16_33 
REMARK   11  A    between atoms: C17_36  and  C18_37 
REMARK       I    between atoms: C18_37  and  N8_39 
REMARK   12  A    between atoms: N8_39  and  N9_41 
ROOT
HETATM    1  C5  UNL     1       0.165  19.327  10.350  1.00  0.00     0.129 C 
HETATM    2  C6  UNL     1      -0.453  18.884   9.035  1.00  0.00     0.102 C 
HETATM    3  S1  UNL     1      -1.978  19.871   8.979  1.00  0.00    -0.156 SA
HETATM    4  C7  UNL     1      -1.889  20.499  10.672  1.00  0.00     0.096 C 
HETATM    5  C12 UNL     1      -0.985  19.504  11.309  1.00  0.00     0.068 C 
ENDROOT
BRANCH   5   6
HETATM    6  C13 UNL     1      -1.529  18.300  11.938  1.00  0.00     0.230 C 
BRANCH   6   7
HETATM    7  O1  UNL     1      -1.299  18.328  13.380  1.00  0.00    -0.288 OA
BRANCH   7   8
HETATM    8  C14 UNL     1      -2.212  18.907  14.222  1.00  0.00     0.372 C 
HETATM    9  O2  UNL     1      -1.862  19.940  14.836  1.00  0.00    -0.238 OA
HETATM   10  N7  UNL     1      -3.531  18.412  14.442  1.00  0.00    -0.268 N 
BRANCH  10  11
HETATM   11  C15 UNL     1      -3.955  17.228  13.746  1.00  0.00     0.186 C 
BRANCH  11  12
HETATM   12  C16 UNL     1      -3.664  15.983  14.395  1.00  0.00     0.215 C 
HETATM   13  O3  UNL     1      -2.681  15.293  13.924  1.00  0.00    -0.643 OA
HETATM   14  O4  UNL     1      -4.302  15.451  15.449  1.00  0.00    -0.643 OA
ENDBRANCH  11  12
ENDBRANCH  10  11
BRANCH  10  15
HETATM   15  C17 UNL     1      -4.475  19.143  15.201  1.00  0.00     0.177 C 
BRANCH  15  16
HETATM   16  C18 UNL     1      -4.468  19.171  16.635  1.00  0.00     0.275 C 
HETATM   17  O5  UNL     1      -3.790  18.268  17.256  1.00  0.00    -0.265 OA
HETATM   18  N8  UNL     1      -5.138  20.090  17.437  1.00  0.00    -0.272 N 
ATOM     19  H8  UNL     1      -5.697  20.819  16.993  1.00  0.00     0.189 HD
BRANCH  18  20
HETATM   20  N9  UNL     1      -5.066  20.042  18.847  1.00  0.00    -0.342 N 
ATOM     21  H92 UNL     1      -4.373  19.425  19.271  1.00  0.00     0.176 HD
ATOM     22  H91 UNL     1      -5.681  20.601  19.437  1.00  0.00     0.176 HD
ENDBRANCH  18  20
ENDBRANCH  15  16
ENDBRANCH  10  15
ENDBRANCH   7   8
ENDBRANCH   6   7
BRANCH   6  23
HETATM   23  C19 UNL     1      -1.052  16.973  11.490  1.00  0.00     0.261 C 
HETATM   24  N10 UNL     1      -1.813  16.142  10.615  1.00  0.00    -0.060 NA
HETATM   25  O6  UNL     1       0.037  16.454  11.821  1.00  0.00    -0.274 OA
ENDBRANCH   6  23
ENDBRANCH   5   6
BRANCH   1  26
HETATM   26  N6  UNL     1       0.817  20.592  10.088  1.00  0.00    -0.254 N 
HETATM   27  C3  UNL     1       1.329  21.492  10.959  1.00  0.00     0.157 A 
HETATM   28  N3  UNL     1       1.394  21.497  12.276  1.00  0.00    -0.335 N 
HETATM   29  C4  UNL     1       1.847  22.540  10.242  1.00  0.00     0.139 A 
HETATM   30  C2  UNL     1       1.959  22.516  12.928  1.00  0.00     0.183 A 
ATOM     31  H3  UNL     1       1.007  20.714  12.803  1.00  0.00     0.168 HD
HETATM   32  N2  UNL     1       2.484  23.574  12.269  1.00  0.00    -0.337 N 
HETATM   33  C1  UNL     1       2.428  23.584  10.929  1.00  0.00     0.132 A 
ATOM     34  H2  UNL     1       2.913  24.346  12.779  1.00  0.00     0.168 HD
HETATM   35  N4  UNL     1       1.643  22.266   8.939  1.00  0.00    -0.279 N 
HETATM   36  N5  UNL     1       1.039  21.121   8.897  1.00  0.00    -0.238 N 
ATOM     37  H4  UNL     1       1.911  22.845   8.143  1.00  0.00     0.189 HD
ATOM     38  H5  UNL     1       0.761  20.670   8.025  1.00  0.00     0.208 HD
BRANCH  33  39
HETATM   39  N1  UNL     1       2.922  24.583  10.272  1.00  0.00    -0.383 N 
ATOM     40  H12 UNL     1       2.629  25.532  10.506  1.00  0.00     0.157 HD
ATOM     41  H11 UNL     1       3.599  24.416   9.527  1.00  0.00     0.157 HD
ENDBRANCH  33  39
ENDBRANCH   1  26
BRANCH   4  42
HETATM   42  C8  UNL     1      -3.217  20.661  11.284  1.00  0.00    -0.003 A 
HETATM   43  C9  UNL     1      -3.703  21.457  12.282  1.00  0.00     0.016 A 
HETATM   44  C10 UNL     1      -5.010  21.360  12.571  1.00  0.00     0.008 A 
HETATM   45  C11 UNL     1      -5.754  20.467  11.839  1.00  0.00     0.050 A 
HETATM   46  S2  UNL     1      -4.592  19.803  10.779  1.00  0.00    -0.105 SA
ENDBRANCH   4  42
TORSDOF 12
ENDMDL
MODEL 2
REMARK VINA RESULT: -7.592041583      3.123      7.854
REMARK  12 active torsions:
REMARK  status: ('A' for Active; 'I' for Inactive)
REMARK    1  A    between atoms: N1_1  and  C1_4 
REMARK    2  A    between atoms: N6_16  and  C5_17 
REMARK    3  A    between atoms: C7_20  and  C8_21 
REMARK    4  A    between atoms: C12_26  and  C13_27 
REMARK    5  A    between atoms: C13_27  and  O1_28 
REMARK    6  A    between atoms: C13_27  and  C19_44 
REMARK    7  A    between atoms: O1_28  and  C14_29 
REMARK       I    between atoms: C14_29  and  N7_31 
REMARK    8  A    between atoms: N7_31  and  C15_32 
REMARK    9  A    between atoms: N7_31  and  C17_36 
REMARK   10  A    between atoms: C15_32  and  C16_33 
REMARK   11  A    between atoms: C17_36  and  C18_37 
REMARK       I    between atoms: C18_37  and  N8_39 
REMARK   12  A    between atoms: N8_39  and  N9_41 
ROOT
HETATM    1  C5  UNL     1      -2.141  17.928  11.173  1.00  0.00     0.129 C 
HETATM    2  C6  UNL     1      -1.848  17.175   9.887  1.00  0.00     0.102 C 
HETATM    3  S1  UNL     1      -0.327  16.274  10.311  1.00  0.00    -0.156 SA
HETATM    4  C7  UNL     1      -0.015  17.110  11.884  1.00  0.00     0.096 C 
HETATM    5  C12 UNL     1      -0.803  18.361  11.715  1.00  0.00     0.068 C 
ENDROOT
BRANCH   5   6
HETATM    6  C13 UNL     1      -0.191  19.552  11.125  1.00  0.00     0.230 C 
BRANCH   6   7
HETATM    7  O1  UNL     1       0.187  20.501  12.168  1.00  0.00    -0.288 OA
BRANCH   7   8
HETATM    8  C14 UNL     1       1.307  21.280  12.032  1.00  0.00     0.372 C 
HETATM    9  O2  UNL     1       2.378  20.708  11.725  1.00  0.00    -0.238 OA
HETATM   10  N7  UNL     1       1.331  22.694  12.214  1.00  0.00    -0.268 N 
BRANCH  10  11
HETATM   11  C15 UNL     1       0.113  23.371  12.565  1.00  0.00     0.186 C 
BRANCH  11  12
HETATM   12  C16 UNL     1      -0.212  23.391  13.961  1.00  0.00     0.215 C 
HETATM   13  O3  UNL     1      -1.117  22.564  14.363  1.00  0.00    -0.643 OA
HETATM   14  O4  UNL     1       0.325  24.177  14.907  1.00  0.00    -0.643 OA
ENDBRANCH  11  12
ENDBRANCH  10  11
BRANCH  10  15
HETATM   15  C17 UNL     1       2.482  23.457  11.905  1.00  0.00     0.177 C 
BRANCH  15  16
HETATM   16  C18 UNL     1       2.955  23.645  10.564  1.00  0.00     0.275 C 
HETATM   17  O5  UNL     1       4.189  23.976  10.397  1.00  0.00    -0.265 OA
HETATM   18  N8  UNL     1       2.198  23.509   9.405  1.00  0.00    -0.272 N 
ATOM     19  H8  UNL     1       1.212  23.258   9.483  1.00  0.00     0.189 HD
BRANCH  18  20
HETATM   20  N9  UNL     1       2.755  23.708   8.122  1.00  0.00    -0.342 N 
ATOM     21  H92 UNL     1       3.459  23.045   7.796  1.00  0.00     0.176 HD
ATOM     22  H91 UNL     1       2.474  24.487   7.527  1.00  0.00     0.176 HD
ENDBRANCH  18  20
ENDBRANCH  15  16
ENDBRANCH  10  15
ENDBRANCH   7   8
ENDBRANCH   6   7
BRANCH   6  23
HETATM   23  C19 UNL     1      -0.955  20.340  10.134  1.00  0.00     0.261 C 
HETATM   24  N10 UNL     1      -0.757  20.201   8.727  1.00  0.00    -0.060 NA
HETATM   25  O6  UNL     1      -1.831  21.189  10.415  1.00  0.00    -0.274 OA
ENDBRANCH   6  23
ENDBRANCH   5   6
BRANCH   1  26
HETATM   26  N6  UNL     1      -2.775  16.980  12.064  1.00  0.00    -0.254 N 
HETATM   27  C3  UNL     1      -2.934  17.034  13.407  1.00  0.00     0.157 A 
HETATM   28  N3  UNL     1      -2.572  17.939  14.295  1.00  0.00    -0.335 N 
HETATM   29  C4  UNL     1      -3.598  15.904  13.810  1.00  0.00     0.139 A 
HETATM   30  C2  UNL     1      -2.844  17.771  15.592  1.00  0.00     0.183 A 
ATOM     31  H3  UNL     1      -2.079  18.778  13.988  1.00  0.00     0.168 HD
HETATM   32  N2  UNL     1      -3.496  16.675  16.041  1.00  0.00    -0.337 N 
HETATM   33  C1  UNL     1      -3.872  15.745  15.151  1.00  0.00     0.132 A 
ATOM     34  H2  UNL     1      -3.697  16.558  17.034  1.00  0.00     0.168 HD
HETATM   35  N4  UNL     1      -3.837  15.172  12.705  1.00  0.00    -0.279 N 
HETATM   36  N5  UNL     1      -3.340  15.837  11.711  1.00  0.00    -0.238 N 
ATOM     37  H4  UNL     1      -4.315  14.271  12.659  1.00  0.00     0.189 HD
ATOM     38  H5  UNL     1      -3.380  15.509  10.746  1.00  0.00     0.208 HD
BRANCH  33  39
HETATM   39  N1  UNL     1      -4.497  14.686  15.552  1.00  0.00    -0.383 N 
ATOM     40  H12 UNL     1      -4.049  14.063  16.226  1.00  0.00     0.157 HD
ATOM     41  H11 UNL     1      -5.430  14.481  15.194  1.00  0.00     0.157 HD
ENDBRANCH  33  39
ENDBRANCH   1  26
BRANCH   4  42
HETATM   42  C8  UNL     1       1.421  17.275  12.159  1.00  0.00    -0.003 A 
HETATM   43  C9  UNL     1       2.534  17.308  11.369  1.00  0.00     0.016 A 
HETATM   44  C10 UNL     1       3.717  17.510  11.972  1.00  0.00     0.008 A 
HETATM   45  C11 UNL     1       3.711  17.668  13.337  1.00  0.00     0.050 A 
HETATM   46  S2  UNL     1       2.052  17.527  13.716  1.00  0.00    -0.105 SA
ENDBRANCH   4  42
TORSDOF 12
ENDMDL
MODEL 3
REMARK VINA RESULT: -7.360378409      2.959      7.823
REMARK  12 active torsions:
REMARK  status: ('A' for Active; 'I' for Inactive)
REMARK    1  A    between atoms: N1_1  and  C1_4 
REMARK    2  A    between atoms: N6_16  and  C5_17 
REMARK    3  A    between atoms: C7_20  and  C8_21 
REMARK    4  A    between atoms: C12_26  and  C13_27 
REMARK    5  A    between atoms: C13_27  and  O1_28 
REMARK    6  A    between atoms: C13_27  and  C19_44 
REMARK    7  A    between atoms: O1_28  and  C14_29 
REMARK       I    between atoms: C14_29  and  N7_31 
REMARK    8  A    between atoms: N7_31  and  C15_32 
REMARK    9  A    between atoms: N7_31  and  C17_36 
REMARK   10  A    between atoms: C15_32  and  C16_33 
REMARK   11  A    between atoms: C17_36  and  C18_37 
REMARK       I    between atoms: C18_37  and  N8_39 
REMARK   12  A    between atoms: N8_39  and  N9_41 
ROOT
HETATM    1  C5  UNL     1      -2.893  18.362  11.726  1.00  0.00     0.129 C 
HETATM    2  C6  UNL     1      -2.773  17.554  10.446  1.00  0.00     0.102 C 
HETATM    3  S1  UNL     1      -1.346  16.486  10.802  1.00  0.00    -0.156 SA
HETATM    4  C7  UNL     1      -0.838  17.308  12.329  1.00  0.00     0.096 C 
HETATM    5  C12 UNL     1      -1.481  18.641  12.175  1.00  0.00     0.068 C 
ENDROOT
BRANCH   5   6
HETATM    6  C13 UNL     1      -0.770  19.738  11.517  1.00  0.00     0.230 C 
BRANCH   6   7
HETATM    7  O1  UNL     1      -0.345  20.732  12.499  1.00  0.00    -0.288 OA
BRANCH   7   8
HETATM    8  C14 UNL     1       0.883  21.332  12.400  1.00  0.00     0.372 C 
HETATM    9  O2  UNL     1       1.890  20.589  12.347  1.00  0.00    -0.238 OA
HETATM   10  N7  UNL     1       1.089  22.742  12.349  1.00  0.00    -0.268 N 
BRANCH  10  11
HETATM   11  C15 UNL     1      -0.052  23.614  12.406  1.00  0.00     0.186 C 
BRANCH  11  12
HETATM   12  C16 UNL     1      -0.705  23.709  13.679  1.00  0.00     0.215 C 
HETATM   13  O3  UNL     1       0.024  24.053  14.686  1.00  0.00    -0.643 OA
HETATM   14  O4  UNL     1      -2.000  23.482  13.944  1.00  0.00    -0.643 OA
ENDBRANCH  11  12
ENDBRANCH  10  11
BRANCH  10  15
HETATM   15  C17 UNL     1       2.366  23.291  12.089  1.00  0.00     0.177 C 
BRANCH  15  16
HETATM   16  C18 UNL     1       2.808  23.644  10.770  1.00  0.00     0.275 C 
HETATM   17  O5  UNL     1       3.862  24.376  10.660  1.00  0.00    -0.265 OA
HETATM   18  N8  UNL     1       2.197  23.272   9.577  1.00  0.00    -0.272 N 
ATOM     19  H8  UNL     1       1.352  22.700   9.611  1.00  0.00     0.189 HD
BRANCH  18  20
HETATM   20  N9  UNL     1       2.711  23.663   8.321  1.00  0.00    -0.342 N 
ATOM     21  H92 UNL     1       2.416  23.138   7.498  1.00  0.00     0.176 HD
ATOM     22  H91 UNL     1       3.359  24.444   8.223  1.00  0.00     0.176 HD
ENDBRANCH  18  20
ENDBRANCH  15  16
ENDBRANCH  10  15
ENDBRANCH   7   8
ENDBRANCH   6   7
BRANCH   6  23
HETATM   23  C19 UNL     1      -1.453  20.504  10.452  1.00  0.00     0.261 C 
HETATM   24  N10 UNL     1      -1.217  20.264   9.065  1.00  0.00    -0.060 NA
HETATM   25  O6  UNL     1      -2.285  21.419  10.647  1.00  0.00    -0.274 OA
ENDBRANCH   6  23
ENDBRANCH   5   6
BRANCH   1  26
HETATM   26  N6  UNL     1      -3.577  17.515  12.679  1.00  0.00    -0.254 N 
HETATM   27  C3  UNL     1      -3.740  17.676  14.013  1.00  0.00     0.157 A 
HETATM   28  N3  UNL     1      -3.339  18.625  14.835  1.00  0.00    -0.335 N 
HETATM   29  C4  UNL     1      -4.462  16.613  14.492  1.00  0.00     0.139 A 
HETATM   30  C2  UNL     1      -3.625  18.567  16.138  1.00  0.00     0.183 A 
ATOM     31  H3  UNL     1      -2.803  19.414  14.471  1.00  0.00     0.168 HD
HETATM   32  N2  UNL     1      -4.333  17.541  16.661  1.00  0.00    -0.337 N 
HETATM   33  C1  UNL     1      -4.750  16.567  15.839  1.00  0.00     0.132 A 
ATOM     34  H2  UNL     1      -4.545  17.508  17.658  1.00  0.00     0.168 HD
HETATM   35  N4  UNL     1      -4.731  15.813  13.442  1.00  0.00    -0.279 N 
HETATM   36  N5  UNL     1      -4.196  16.378  12.406  1.00  0.00    -0.238 N 
ATOM     37  H4  UNL     1      -5.253  14.937  13.459  1.00  0.00     0.189 HD
ATOM     38  H5  UNL     1      -4.248  15.982  11.467  1.00  0.00     0.208 HD
BRANCH  33  39
HETATM   39  N1  UNL     1      -5.429  15.572  16.311  1.00  0.00    -0.383 N 
ATOM     40  H12 UNL     1      -6.431  15.517  16.128  1.00  0.00     0.157 HD
ATOM     41  H11 UNL     1      -4.960  14.853  16.862  1.00  0.00     0.157 HD
ENDBRANCH  33  39
ENDBRANCH   1  26
BRANCH   4  42
HETATM   42  C8  UNL     1       0.621  17.305  12.514  1.00  0.00    -0.003 A 
HETATM   43  C9  UNL     1       1.432  17.292  13.613  1.00  0.00     0.016 A 
HETATM   44  C10 UNL     1       2.758  17.264  13.405  1.00  0.00     0.008 A 
HETATM   45  C11 UNL     1       3.192  17.249  12.102  1.00  0.00     0.050 A 
HETATM   46  S2  UNL     1       1.728  17.276  11.225  1.00  0.00    -0.105 SA
ENDBRANCH   4  42
TORSDOF 12
ENDMDL
MODEL 4
REMARK VINA RESULT: -7.210609732      1.700      2.084
REMARK  12 active torsions:
REMARK  status: ('A' for Active; 'I' for Inactive)
REMARK    1  A    between atoms: N1_1  and  C1_4 
REMARK    2  A    between atoms: N6_16  and  C5_17 
REMARK    3  A    between atoms: C7_20  and  C8_21 
REMARK    4  A    between atoms: C12_26  and  C13_27 
REMARK    5  A    between atoms: C13_27  and  O1_28 
REMARK    6  A    between atoms: C13_27  and  C19_44 
REMARK    7  A    between atoms: O1_28  and  C14_29 
REMARK       I    between atoms: C14_29  and  N7_31 
REMARK    8  A    between atoms: N7_31  and  C15_32 
REMARK    9  A    between atoms: N7_31  and  C17_36 
REMARK   10  A    between atoms: C15_32  and  C16_33 
REMARK   11  A    between atoms: C17_36  and  C18_37 
REMARK       I    between atoms: C18_37  and  N8_39 
REMARK   12  A    between atoms: N8_39  and  N9_41 
ROOT
HETATM    1  C5  UNL     1       0.317  19.216  11.485  1.00  0.00     0.129 C 
HETATM    2  C6  UNL     1       0.276  17.938  10.665  1.00  0.00     0.102 C 
HETATM    3  S1  UNL     1      -1.277  18.129   9.740  1.00  0.00    -0.156 SA
HETATM    4  C7  UNL     1      -1.885  19.575  10.639  1.00  0.00     0.096 C 
HETATM    5  C12 UNL     1      -1.107  19.486  11.903  1.00  0.00     0.068 C 
ENDROOT
BRANCH   5   6
HETATM    6  C13 UNL     1      -1.627  18.735  13.046  1.00  0.00     0.230 C 
BRANCH   6   7
HETATM    7  O1  UNL     1      -1.725  19.598  14.221  1.00  0.00    -0.288 OA
BRANCH   7   8
HETATM    8  C14 UNL     1      -2.818  20.404  14.406  1.00  0.00     0.372 C 
HETATM    9  O2  UNL     1      -2.704  21.614  14.105  1.00  0.00    -0.238 OA
HETATM   10  N7  UNL     1      -4.072  19.955  14.915  1.00  0.00    -0.268 N 
BRANCH  10  11
HETATM   11  C15 UNL     1      -4.225  18.569  15.266  1.00  0.00     0.186 C 
BRANCH  11  12
HETATM   12  C16 UNL     1      -3.720  18.190  16.552  1.00  0.00     0.215 C 
HETATM   13  O3  UNL     1      -2.543  17.664  16.587  1.00  0.00    -0.643 OA
HETATM   14  O4  UNL     1      -4.337  18.325  17.737  1.00  0.00    -0.643 OA
ENDBRANCH  11  12
ENDBRANCH  10  11
BRANCH  10  15
HETATM   15  C17 UNL     1      -5.205  20.802  14.934  1.00  0.00     0.177 C 
BRANCH  15  16
HETATM   16  C18 UNL     1      -5.579  21.577  16.082  1.00  0.00     0.275 C 
HETATM   17  O5  UNL     1      -5.971  22.790  15.893  1.00  0.00    -0.265 OA
HETATM   18  N8  UNL     1      -5.554  21.143  17.403  1.00  0.00    -0.272 N 
ATOM     19  H8  UNL     1      -5.241  20.193  17.607  1.00  0.00     0.189 HD
BRANCH  18  20
HETATM   20  N9  UNL     1      -5.950  21.978  18.471  1.00  0.00    -0.342 N 
ATOM     21  H92 UNL     1      -5.606  21.757  19.406  1.00  0.00     0.176 HD
ATOM     22  H91 UNL     1      -6.561  22.782  18.329  1.00  0.00     0.176 HD
ENDBRANCH  18  20
ENDBRANCH  15  16
ENDBRANCH  10  15
ENDBRANCH   7   8
ENDBRANCH   6   7
BRANCH   6  23
HETATM   23  C19 UNL     1      -0.906  17.528  13.505  1.00  0.00     0.261 C 
HETATM   24  N10 UNL     1       0.179  17.589  14.430  1.00  0.00    -0.060 NA
HETATM   25  O6  UNL     1      -1.163  16.358  13.141  1.00  0.00    -0.274 OA
ENDBRANCH   6  23
ENDBRANCH   5   6
BRANCH   1  26
HETATM   26  N6  UNL     1       0.799  20.253  10.599  1.00  0.00    -0.254 N 
HETATM   27  C3  UNL     1       1.413  21.422  10.896  1.00  0.00     0.157 A 
HETATM   28  N3  UNL     1       1.754  21.963  12.050  1.00  0.00    -0.335 N 
HETATM   29  C4  UNL     1       1.685  22.078   9.724  1.00  0.00     0.139 A 
HETATM   30  C2  UNL     1       2.364  23.150  12.094  1.00  0.00     0.183 A 
ATOM     31  H3  UNL     1       1.549  21.469  12.919  1.00  0.00     0.168 HD
HETATM   32  N2  UNL     1       2.654  23.838  10.967  1.00  0.00    -0.337 N 
HETATM   33  C1  UNL     1       2.316  23.303   9.785  1.00  0.00     0.132 A 
ATOM     34  H2  UNL     1       3.120  24.744  11.014  1.00  0.00     0.168 HD
HETATM   35  N4  UNL     1       1.232  21.300   8.722  1.00  0.00    -0.279 N 
HETATM   36  N5  UNL     1       0.723  20.247   9.279  1.00  0.00    -0.238 N 
ATOM     37  H4  UNL     1       1.280  21.500   7.722  1.00  0.00     0.189 HD
ATOM     38  H5  UNL     1       0.303  19.484   8.748  1.00  0.00     0.208 HD
BRANCH  33  39
HETATM   39  N1  UNL     1       2.581  23.938   8.690  1.00  0.00    -0.383 N 
ATOM     40  H12 UNL     1       2.120  24.829   8.502  1.00  0.00     0.157 HD
ATOM     41  H11 UNL     1       3.247  23.546   8.024  1.00  0.00     0.157 HD
ENDBRANCH  33  39
ENDBRANCH   1  26
BRANCH   4  42
HETATM   42  C8  UNL     1      -3.351  19.580  10.774  1.00  0.00    -0.003 A 
HETATM   43  C9  UNL     1      -4.251  20.499  11.231  1.00  0.00     0.016 A 
HETATM   44  C10 UNL     1      -5.552  20.170  11.183  1.00  0.00     0.008 A 
HETATM   45  C11 UNL     1      -5.872  18.934  10.676  1.00  0.00     0.050 A 
HETATM   46  S2  UNL     1      -4.340  18.287  10.291  1.00  0.00    -0.105 SA
ENDBRANCH   4  42
TORSDOF 12
ENDMDL
MODEL 5
REMARK VINA RESULT: -7.173254243      3.387      7.896
REMARK  12 active torsions:
REMARK  status: ('A' for Active; 'I' for Inactive)
REMARK    1  A    between atoms: N1_1  and  C1_4 
REMARK    2  A    between atoms: N6_16  and  C5_17 
REMARK    3  A    between atoms: C7_20  and  C8_21 
REMARK    4  A    between atoms: C12_26  and  C13_27 
REMARK    5  A    between atoms: C13_27  and  O1_28 
REMARK    6  A    between atoms: C13_27  and  C19_44 
REMARK    7  A    between atoms: O1_28  and  C14_29 
REMARK       I    between atoms: C14_29  and  N7_31 
REMARK    8  A    between atoms: N7_31  and  C15_32 
REMARK    9  A    between atoms: N7_31  and  C17_36 
REMARK   10  A    between atoms: C15_32  and  C16_33 
REMARK   11  A    between atoms: C17_36  and  C18_37 
REMARK       I    between atoms: C18_37  and  N8_39 
REMARK   12  A    between atoms: N8_39  and  N9_41 
ROOT
HETATM    1  C5  UNL     1      -1.511  17.607   9.750  1.00  0.00     0.129 C 
HETATM    2  C6  UNL     1      -0.747  16.791   8.721  1.00  0.00     0.102 C 
HETATM    3  S1  UNL     1       0.466  15.916   9.754  1.00  0.00    -0.156 SA
HETATM    4  C7  UNL     1       0.147  16.830  11.281  1.00  0.00     0.096 C 
HETATM    5  C12 UNL     1      -0.488  18.069  10.756  1.00  0.00     0.068 C 
ENDROOT
BRANCH   5   6
HETATM    6  C13 UNL     1       0.329  19.230  10.400  1.00  0.00     0.230 C 
BRANCH   6   7
HETATM    7  O1  UNL     1       0.514  20.098  11.561  1.00  0.00    -0.288 OA
BRANCH   7   8
HETATM    8  C14 UNL     1       1.487  21.063  11.563  1.00  0.00     0.372 C 
HETATM    9  O2  UNL     1       2.673  20.694  11.407  1.00  0.00    -0.238 OA
HETATM   10  N7  UNL     1       1.237  22.458  11.729  1.00  0.00    -0.268 N 
BRANCH  10  11
HETATM   11  C15 UNL     1      -0.118  22.904  11.908  1.00  0.00     0.186 C 
BRANCH  11  12
HETATM   12  C16 UNL     1      -0.431  23.451  13.195  1.00  0.00     0.215 C 
HETATM   13  O3  UNL     1      -0.898  24.653  13.223  1.00  0.00    -0.643 OA
HETATM   14  O4  UNL     1      -0.297  22.848  14.386  1.00  0.00    -0.643 OA
ENDBRANCH  11  12
ENDBRANCH  10  11
BRANCH  10  15
HETATM   15  C17 UNL     1       2.265  23.415  11.564  1.00  0.00     0.177 C 
BRANCH  15  16
HETATM   16  C18 UNL     1       2.893  23.674  10.300  1.00  0.00     0.275 C 
HETATM   17  O5  UNL     1       4.087  24.158  10.305  1.00  0.00    -0.265 OA
HETATM   18  N8  UNL     1       2.328  23.456   9.048  1.00  0.00    -0.272 N 
ATOM     19  H8  UNL     1       1.380  23.083   8.990  1.00  0.00     0.189 HD
BRANCH  18  20
HETATM   20  N9  UNL     1       3.030  23.736   7.854  1.00  0.00    -0.342 N 
ATOM     21  H92 UNL     1       3.802  24.401   7.896  1.00  0.00     0.176 HD
ATOM     22  H91 UNL     1       2.783  23.296   6.968  1.00  0.00     0.176 HD
ENDBRANCH  18  20
ENDBRANCH  15  16
ENDBRANCH  10  15
ENDBRANCH   7   8
ENDBRANCH   6   7
BRANCH   6  23
HETATM   23  C19 UNL     1      -0.121  20.123   9.310  1.00  0.00     0.261 C 
HETATM   24  N10 UNL     1       0.749  20.551   8.263  1.00  0.00    -0.060 NA
HETATM   25  O6  UNL     1      -1.278  20.584   9.193  1.00  0.00    -0.274 OA
ENDBRANCH   6  23
ENDBRANCH   5   6
BRANCH   1  26
HETATM   26  N6  UNL     1      -2.462  16.704  10.360  1.00  0.00    -0.254 N 
HETATM   27  C3  UNL     1      -3.217  16.871  11.471  1.00  0.00     0.157 A 
HETATM   28  N3  UNL     1      -3.320  17.878  12.315  1.00  0.00    -0.335 N 
HETATM   29  C4  UNL     1      -3.969  15.740  11.657  1.00  0.00     0.139 A 
HETATM   30  C2  UNL     1      -4.151  17.813  13.359  1.00  0.00     0.183 A 
ATOM     31  H3  UNL     1      -2.758  18.717  12.170  1.00  0.00     0.168 HD
HETATM   32  N2  UNL     1      -4.913  16.720  13.588  1.00  0.00    -0.337 N 
HETATM   33  C1  UNL     1      -4.822  15.687  12.739  1.00  0.00     0.132 A 
ATOM     34  H2  UNL     1      -5.544  16.682  14.390  1.00  0.00     0.168 HD
HETATM   35  N4  UNL     1      -3.663  14.892  10.656  1.00  0.00    -0.279 N 
HETATM   36  N5  UNL     1      -2.780  15.496   9.925  1.00  0.00    -0.238 N 
ATOM     37  H4  UNL     1      -4.048  13.960  10.503  1.00  0.00     0.189 HD
ATOM     38  H5  UNL     1      -2.368  15.078   9.090  1.00  0.00     0.208 HD
BRANCH  33  39
HETATM   39  N1  UNL     1      -5.540  14.628  12.933  1.00  0.00    -0.383 N 
ATOM     40  H12 UNL     1      -5.561  14.199  13.858  1.00  0.00     0.157 HD
ATOM     41  H11 UNL     1      -6.078  14.232  12.163  1.00  0.00     0.157 HD
ENDBRANCH  33  39
ENDBRANCH   1  26
BRANCH   4  42
HETATM   42  C8  UNL     1       1.359  17.012  12.094  1.00  0.00    -0.003 A 
HETATM   43  C9  UNL     1       2.669  17.251  11.791  1.00  0.00     0.016 A 
HETATM   44  C10 UNL     1       3.526  17.394  12.815  1.00  0.00     0.008 A 
HETATM   45  C11 UNL     1       3.015  17.287  14.085  1.00  0.00     0.050 A 
HETATM   46  S2  UNL     1       1.359  16.993  13.792  1.00  0.00    -0.105 SA
ENDBRANCH   4  42
TORSDOF 12
ENDMDL
