MODEL 1
REMARK VINA RESULT: -7.335658842      0.000      0.000
REMARK  12 active torsions:
REMARK  status: ('A' for Active; 'I' for Inactive)
REMARK    1  A    between atoms: O1_2  and  N1_3 
REMARK    2  A    between atoms: N1_3  and  C2_4 
REMARK    3  A    between atoms: N2_6  and  C4_7 
REMARK    4  A    between atoms: C5_10  and  N4_11 
REMARK    5  A    between atoms: C8_14  and  C9_15 
REMARK    6  A    between atoms: C9_15  and  S1_16 
REMARK    7  A    between atoms: S1_16  and  C10_17 
REMARK    8  A    between atoms: C11_22  and  C12_23 
REMARK    9  A    between atoms: C12_23  and  N7_24 
REMARK   10  A    between atoms: C16_34  and  N9_35 
REMARK   11  A    between atoms: C17_40  and  N11_41 
REMARK       I    between atoms: N11_41  and  C18_43 
REMARK   12  A    between atoms: C21_52  and  O2_53 
ROOT
HETATM    1  C4  UNL     1       1.062  17.268  11.051  1.00  0.00     0.682 A 
HETATM    2  N3  UNL     1      -0.159  17.843  11.089  1.00  0.00    -0.174 N 
ATOM      3  H3  UNL     1      -0.303  18.602  11.754  1.00  0.00     0.186 HD
HETATM    4  C5  UNL     1      -1.198  17.490  10.316  1.00  0.00     0.149 A 
HETATM    5  C15 UNL     1      -1.010  16.467   9.416  1.00  0.00     0.124 A 
HETATM    6  N8  UNL     1      -1.947  16.007   8.605  1.00  0.00    -0.186 N 
ATOM      7  H8  UNL     1      -2.872  16.437   8.634  1.00  0.00     0.184 HD
HETATM    8  C16 UNL     1      -1.732  14.984   7.733  1.00  0.00     0.678 A 
HETATM    9  N10 UNL     1      -0.528  14.384   7.659  1.00  0.00    -0.174 N 
ATOM     10  H10 UNL     1      -0.376  13.619   7.002  1.00  0.00     0.186 HD
HETATM   11  C17 UNL     1       0.466  14.799   8.453  1.00  0.00     0.153 A 
HETATM   12  C19 UNL     1       0.248  15.838   9.341  1.00  0.00     0.124 A 
HETATM   13  N14 UNL     1       1.214  16.271  10.160  1.00  0.00    -0.185 N 
ATOM     14  H14 UNL     1       2.124  15.816  10.105  1.00  0.00     0.184 HD
ENDROOT
BRANCH   4  15
HETATM   15  N4  UNL     1      -2.443  18.162  10.366  1.00  0.00    -0.365 N 
HETATM   16  C6  UNL     1      -2.597  19.398   9.623  1.00  0.00     0.125 C 
HETATM   17  C7  UNL     1      -3.798  20.176  10.200  1.00  0.00     0.025 C 
HETATM   18  C8  UNL     1      -3.835  20.024  11.676  1.00  0.00    -0.002 C 
HETATM   19  C13 UNL     1      -4.254  18.604  12.007  1.00  0.00     0.025 C 
HETATM   20  C14 UNL     1      -3.529  17.611  11.148  1.00  0.00     0.125 C 
BRANCH  18  21
HETATM   21  C9  UNL     1      -4.740  20.989  12.344  1.00  0.00     0.086 C 
BRANCH  21  22
HETATM   22  S1  UNL     1      -4.098  22.169  13.476  1.00  0.00    -0.103 SA
BRANCH  22  23
HETATM   23  C10 UNL     1      -2.372  22.570  13.358  1.00  0.00     0.128 A 
HETATM   24  N5  UNL     1      -1.694  23.489  14.071  1.00  0.00    -0.287 N 
HETATM   25  N6  UNL     1      -0.479  23.694  13.844  1.00  0.00    -0.295 N 
ATOM     26  H5  UNL     1      -2.172  24.019  14.799  1.00  0.00     0.188 HD
HETATM   27  C11 UNL     1       0.153  23.008  12.897  1.00  0.00     0.094 A 
ATOM     28  H6  UNL     1       0.028  24.392  14.389  1.00  0.00     0.187 HD
HETATM   29  S2  UNL     1      -1.110  22.016  12.321  1.00  0.00    -0.048 SA
BRANCH  27  30
HETATM   30  C12 UNL     1       1.592  23.102  12.473  1.00  0.00     0.295 C 
BRANCH  30  31
HETATM   31  N7  UNL     1       2.426  22.267  13.320  1.00  0.00    -0.073 N 
ATOM     32  H73 UNL     1       2.287  22.472  14.309  1.00  0.00     0.274 HD
ATOM     33  H72 UNL     1       2.114  21.297  13.321  1.00  0.00     0.274 HD
ATOM     34  H71 UNL     1       3.405  22.352  13.048  1.00  0.00     0.274 HD
ENDBRANCH  30  31
ENDBRANCH  27  30
ENDBRANCH  22  23
ENDBRANCH  21  22
ENDBRANCH  18  21
ENDBRANCH   4  15
BRANCH   1  35
HETATM   35  N2  UNL     1       2.116  17.687  11.896  1.00  0.00    -0.213 N 
HETATM   36  C3  UNL     1       2.368  19.029  12.328  1.00  0.00     0.167 C 
HETATM   37  C2  UNL     1       3.879  19.093  12.368  1.00  0.00     0.155 C 
HETATM   38  C21 UNL     1       4.378  17.673  12.284  1.00  0.00     0.159 C 
HETATM   39  C20 UNL     1       3.121  16.840  12.466  1.00  0.00     0.174 C 
BRANCH  37  40
HETATM   40  N1  UNL     1       4.347  19.652  13.622  1.00  0.00    -0.092 NA
BRANCH  40  41
HETATM   41  O1  UNL     1       5.145  20.700  13.322  1.00  0.00    -0.291 OA
HETATM   42  C1  UNL     1       5.387  20.732  11.940  1.00  0.00     0.231 C 
ENDBRANCH  40  41
ENDBRANCH  37  40
BRANCH  38  43
HETATM   43  O2  UNL     1       4.959  17.438  11.020  1.00  0.00    -0.392 OA
ATOM     44  H2  UNL     1       5.872  17.701  11.028  1.00  0.00     0.210 HD
ENDBRANCH  38  43
ENDBRANCH   1  35
BRANCH   8  45
HETATM   45  N9  UNL     1      -2.681  14.577   6.965  1.00  0.00    -0.234 N 
ATOM     46  H92 UNL     1      -3.032  13.626   7.074  1.00  0.00     0.174 HD
ATOM     47  H91 UNL     1      -3.073  15.201   6.259  1.00  0.00     0.174 HD
ENDBRANCH   8  45
BRANCH  11  48
HETATM   48  N11 UNL     1       1.642  14.274   8.441  1.00  0.00    -0.315 N 
HETATM   49  C18 UNL     1       1.922  12.959   8.055  1.00  0.00     0.187 C 
HETATM   50  N12 UNL     1       2.547  12.726   6.962  1.00  0.00    -0.373 N 
HETATM   51  N13 UNL     1       1.520  11.870   8.860  1.00  0.00    -0.064 NA
ATOM     52 2H12 UNL     1       2.838  13.513   6.380  1.00  0.00     0.158 HD
ATOM     53 1H12 UNL     1       2.751  11.768   6.681  1.00  0.00     0.158 HD
ATOM     54  H11 UNL     1       2.425  14.859   8.733  1.00  0.00     0.170 HD
ENDBRANCH  11  48
TORSDOF 12
ENDMDL
MODEL 2
REMARK VINA RESULT: -7.238150330      3.039      7.761
REMARK  12 active torsions:
REMARK  status: ('A' for Active; 'I' for Inactive)
REMARK    1  A    between atoms: O1_2  and  N1_3 
REMARK    2  A    between atoms: N1_3  and  C2_4 
REMARK    3  A    between atoms: N2_6  and  C4_7 
REMARK    4  A    between atoms: C5_10  and  N4_11 
REMARK    5  A    between atoms: C8_14  and  C9_15 
REMARK    6  A    between atoms: C9_15  and  S1_16 
REMARK    7  A    between atoms: S1_16  and  C10_17 
REMARK    8  A    between atoms: C11_22  and  C12_23 
REMARK    9  A    between atoms: C12_23  and  N7_24 
REMARK   10  A    between atoms: C16_34  and  N9_35 
REMARK   11  A    between atoms: C17_40  and  N11_41 
REMARK       I    between atoms: N11_41  and  C18_43 
REMARK   12  A    between atoms: C21_52  and  O2_53 
ROOT
HETATM    1  C4  UNL     1      -0.036  19.492  12.109  1.00  0.00     0.682 A 
HETATM    2  N3  UNL     1      -0.987  18.534  12.156  1.00  0.00    -0.174 N 
ATOM      3  H3  UNL     1      -0.707  17.580  11.931  1.00  0.00     0.186 HD
HETATM    4  C5  UNL     1      -2.273  18.745  12.476  1.00  0.00     0.149 A 
HETATM    5  C15 UNL     1      -2.657  20.031  12.781  1.00  0.00     0.124 A 
HETATM    6  N8  UNL     1      -3.891  20.384  13.098  1.00  0.00    -0.186 N 
ATOM      7  H8  UNL     1      -4.612  19.663  13.131  1.00  0.00     0.184 HD
HETATM    8  C16 UNL     1      -4.239  21.668  13.382  1.00  0.00     0.678 A 
HETATM    9  N10 UNL     1      -3.323  22.655  13.351  1.00  0.00    -0.174 N 
ATOM     10  H10 UNL     1      -3.594  23.614  13.566  1.00  0.00     0.186 HD
HETATM   11  C17 UNL     1      -2.055  22.367  13.035  1.00  0.00     0.153 A 
HETATM   12  C19 UNL     1      -1.698  21.061  12.744  1.00  0.00     0.124 A 
HETATM   13  N14 UNL     1      -0.443  20.738  12.412  1.00  0.00    -0.185 N 
ATOM     14  H14 UNL     1       0.250  21.485  12.387  1.00  0.00     0.184 HD
ENDROOT
BRANCH   4  15
HETATM   15  N4  UNL     1      -3.216  17.693  12.556  1.00  0.00    -0.365 N 
HETATM   16  C6  UNL     1      -2.985  16.621  13.506  1.00  0.00     0.125 C 
HETATM   17  C7  UNL     1      -3.824  15.397  13.085  1.00  0.00     0.025 C 
HETATM   18  C8  UNL     1      -3.835  15.277  11.606  1.00  0.00    -0.002 C 
HETATM   19  C13 UNL     1      -4.689  16.394  11.036  1.00  0.00     0.025 C 
HETATM   20  C14 UNL     1      -4.383  17.703  11.700  1.00  0.00     0.125 C 
BRANCH  18  21
HETATM   21  C9  UNL     1      -4.329  13.964  11.126  1.00  0.00     0.086 C 
BRANCH  21  22
HETATM   22  S1  UNL     1      -3.945  13.412   9.504  1.00  0.00    -0.103 SA
BRANCH  22  23
HETATM   23  C10 UNL     1      -2.234  13.140   9.110  1.00  0.00     0.128 A 
HETATM   24  N5  UNL     1      -1.322  14.061   8.745  1.00  0.00    -0.287 N 
HETATM   25  N6  UNL     1      -0.155  13.712   8.451  1.00  0.00    -0.295 N 
ATOM     26  H5  UNL     1      -1.583  15.046   8.708  1.00  0.00     0.188 HD
HETATM   27  C11 UNL     1       0.194  12.430   8.496  1.00  0.00     0.094 A 
ATOM     28  H6  UNL     1       0.530  14.415   8.175  1.00  0.00     0.187 HD
HETATM   29  S2  UNL     1      -1.272  11.714   8.996  1.00  0.00    -0.048 SA
BRANCH  27  30
HETATM   30  C12 UNL     1       1.528  11.810   8.184  1.00  0.00     0.295 C 
BRANCH  30  31
HETATM   31  N7  UNL     1       2.451  12.816   7.690  1.00  0.00    -0.073 N 
ATOM     32  H73 UNL     1       2.134  13.222   6.809  1.00  0.00     0.274 HD
ATOM     33  H72 UNL     1       2.433  13.661   8.260  1.00  0.00     0.274 HD
ATOM     34  H71 UNL     1       3.391  12.429   7.614  1.00  0.00     0.274 HD
ENDBRANCH  30  31
ENDBRANCH  27  30
ENDBRANCH  22  23
ENDBRANCH  21  22
ENDBRANCH  18  21
ENDBRANCH   4  15
BRANCH   1  35
HETATM   35  N2  UNL     1       1.305  19.203  11.761  1.00  0.00    -0.213 N 
HETATM   36  C3  UNL     1       1.869  17.898  11.591  1.00  0.00     0.167 C 
HETATM   37  C2  UNL     1       3.276  18.067  12.121  1.00  0.00     0.155 C 
HETATM   38  C21 UNL     1       3.522  19.549  12.239  1.00  0.00     0.159 C 
HETATM   39  C20 UNL     1       2.336  20.168  11.522  1.00  0.00     0.174 C 
BRANCH  37  40
HETATM   40  N1  UNL     1       4.253  17.530  11.193  1.00  0.00    -0.092 NA
BRANCH  40  41
HETATM   41  O1  UNL     1       5.397  18.227  11.365  1.00  0.00    -0.291 OA
HETATM   42  C1  UNL     1       6.209  17.580  12.310  1.00  0.00     0.231 C 
ENDBRANCH  40  41
ENDBRANCH  37  40
BRANCH  38  43
HETATM   43  O2  UNL     1       3.543  19.928  13.599  1.00  0.00    -0.392 OA
ATOM     44  H2  UNL     1       3.741  20.854  13.676  1.00  0.00     0.210 HD
ENDBRANCH  38  43
ENDBRANCH   1  35
BRANCH   8  45
HETATM   45  N9  UNL     1      -5.457  21.956  13.687  1.00  0.00    -0.234 N 
ATOM     46  H92 UNL     1      -6.182  21.851  12.978  1.00  0.00     0.174 HD
ATOM     47  H91 UNL     1      -5.687  22.284  14.625  1.00  0.00     0.174 HD
ENDBRANCH   8  45
BRANCH  11  48
HETATM   48  N11 UNL     1      -1.124  23.256  12.983  1.00  0.00    -0.315 N 
HETATM   49  C18 UNL     1      -0.374  23.687  14.083  1.00  0.00     0.187 C 
HETATM   50  N12 UNL     1       0.865  23.376  14.181  1.00  0.00    -0.373 N 
HETATM   51  N13 UNL     1      -0.967  24.467  15.099  1.00  0.00    -0.064 NA
ATOM     52 2H12 UNL     1       1.293  22.812  13.446  1.00  0.00     0.158 HD
ATOM     53 1H12 UNL     1       1.411  23.690  14.982  1.00  0.00     0.158 HD
ATOM     54  H11 UNL     1      -0.919  23.675  12.076  1.00  0.00     0.170 HD
ENDBRANCH  11  48
TORSDOF 12
ENDMDL
MODEL 3
REMARK VINA RESULT: -7.171347888      3.814      7.200
REMARK  12 active torsions:
REMARK  status: ('A' for Active; 'I' for Inactive)
REMARK    1  A    between atoms: O1_2  and  N1_3 
REMARK    2  A    between atoms: N1_3  and  C2_4 
REMARK    3  A    between atoms: N2_6  and  C4_7 
REMARK    4  A    between atoms: C5_10  and  N4_11 
REMARK    5  A    between atoms: C8_14  and  C9_15 
REMARK    6  A    between atoms: C9_15  and  S1_16 
REMARK    7  A    between atoms: S1_16  and  C10_17 
REMARK    8  A    between atoms: C11_22  and  C12_23 
REMARK    9  A    between atoms: C12_23  and  N7_24 
REMARK   10  A    between atoms: C16_34  and  N9_35 
REMARK   11  A    between atoms: C17_40  and  N11_41 
REMARK       I    between atoms: N11_41  and  C18_43 
REMARK   12  A    between atoms: C21_52  and  O2_53 
ROOT
HETATM    1  C4  UNL     1      -0.387  19.418  12.503  1.00  0.00     0.682 A 
HETATM    2  N3  UNL     1      -1.303  18.464  12.772  1.00  0.00    -0.174 N 
ATOM      3  H3  UNL     1      -1.034  17.493  12.614  1.00  0.00     0.186 HD
HETATM    4  C5  UNL     1      -2.542  18.697  13.230  1.00  0.00     0.149 A 
HETATM    5  C15 UNL     1      -2.912  20.005  13.445  1.00  0.00     0.124 A 
HETATM    6  N8  UNL     1      -4.103  20.380  13.879  1.00  0.00    -0.186 N 
ATOM      7  H8  UNL     1      -4.799  19.661  14.079  1.00  0.00     0.184 HD
HETATM    8  C16 UNL     1      -4.441  21.684  14.070  1.00  0.00     0.678 A 
HETATM    9  N10 UNL     1      -3.558  22.669  13.819  1.00  0.00    -0.174 N 
ATOM     10  H10 UNL     1      -3.819  23.644  13.966  1.00  0.00     0.186 HD
HETATM   11  C17 UNL     1      -2.334  22.359  13.375  1.00  0.00     0.153 A 
HETATM   12  C19 UNL     1      -1.988  21.033  13.179  1.00  0.00     0.124 A 
HETATM   13  N14 UNL     1      -0.779  20.687  12.724  1.00  0.00    -0.185 N 
ATOM     14  H14 UNL     1      -0.111  21.432  12.532  1.00  0.00     0.184 HD
ENDROOT
BRANCH   4  15
HETATM   15  N4  UNL     1      -3.445  17.652  13.540  1.00  0.00    -0.365 N 
HETATM   16  C6  UNL     1      -4.624  17.482  12.712  1.00  0.00     0.125 C 
HETATM   17  C7  UNL     1      -5.664  16.655  13.495  1.00  0.00     0.025 C 
HETATM   18  C8  UNL     1      -5.642  17.042  14.928  1.00  0.00    -0.002 C 
HETATM   19  C13 UNL     1      -4.361  16.518  15.550  1.00  0.00     0.025 C 
HETATM   20  C14 UNL     1      -3.181  16.778  14.663  1.00  0.00     0.125 C 
BRANCH  18  21
HETATM   21  C9  UNL     1      -6.815  16.550  15.688  1.00  0.00     0.086 C 
BRANCH  21  22
HETATM   22  S1  UNL     1      -7.133  17.145  17.310  1.00  0.00    -0.103 SA
BRANCH  22  23
HETATM   23  C10 UNL     1      -6.648  18.813  17.685  1.00  0.00     0.128 A 
HETATM   24  N5  UNL     1      -5.563  19.214  18.373  1.00  0.00    -0.287 N 
HETATM   25  N6  UNL     1      -5.374  20.432  18.601  1.00  0.00    -0.295 N 
ATOM     26  H5  UNL     1      -4.892  18.524  18.710  1.00  0.00     0.188 HD
HETATM   27  C11 UNL     1      -6.243  21.339  18.165  1.00  0.00     0.094 A 
ATOM     28  H6  UNL     1      -4.550  20.729  19.122  1.00  0.00     0.187 HD
HETATM   29  S2  UNL     1      -7.387  20.342  17.386  1.00  0.00    -0.048 SA
BRANCH  27  30
HETATM   30  C12 UNL     1      -6.202  22.833  18.331  1.00  0.00     0.295 C 
BRANCH  30  31
HETATM   31  N7  UNL     1      -6.030  23.183  19.730  1.00  0.00    -0.073 N 
ATOM     32  H73 UNL     1      -6.174  24.179  19.893  1.00  0.00     0.274 HD
ATOM     33  H72 UNL     1      -6.791  22.824  20.307  1.00  0.00     0.274 HD
ATOM     34  H71 UNL     1      -5.119  22.870  20.066  1.00  0.00     0.274 HD
ENDBRANCH  30  31
ENDBRANCH  27  30
ENDBRANCH  22  23
ENDBRANCH  21  22
ENDBRANCH  18  21
ENDBRANCH   4  15
BRANCH   1  35
HETATM   35  N2  UNL     1       0.905  19.105  12.019  1.00  0.00    -0.213 N 
HETATM   36  C3  UNL     1       1.526  17.815  12.046  1.00  0.00     0.167 C 
HETATM   37  C2  UNL     1       2.980  18.145  12.299  1.00  0.00     0.155 C 
HETATM   38  C21 UNL     1       3.140  19.624  12.056  1.00  0.00     0.159 C 
HETATM   39  C20 UNL     1       1.823  20.027  11.419  1.00  0.00     0.174 C 
BRANCH  37  40
HETATM   40  N1  UNL     1       3.845  17.448  11.365  1.00  0.00    -0.092 NA
BRANCH  40  41
HETATM   41  O1  UNL     1       4.998  18.147  11.287  1.00  0.00    -0.291 OA
HETATM   42  C1  UNL     1       5.917  17.653  12.227  1.00  0.00     0.231 C 
ENDBRANCH  40  41
ENDBRANCH  37  40
BRANCH  38  43
HETATM   43  O2  UNL     1       3.334  20.296  13.282  1.00  0.00    -0.392 OA
ATOM     44  H2  UNL     1       4.205  20.674  13.312  1.00  0.00     0.210 HD
ENDBRANCH  38  43
ENDBRANCH   1  35
BRANCH   8  45
HETATM   45  N9  UNL     1      -5.616  21.993  14.497  1.00  0.00    -0.234 N 
ATOM     46  H92 UNL     1      -5.987  21.512  15.315  1.00  0.00     0.174 HD
ATOM     47  H91 UNL     1      -6.163  22.709  14.019  1.00  0.00     0.174 HD
ENDBRANCH   8  45
BRANCH  11  48
HETATM   48  N11 UNL     1      -1.436  23.245  13.112  1.00  0.00    -0.315 N 
HETATM   49  C18 UNL     1      -0.529  23.760  14.045  1.00  0.00     0.187 C 
HETATM   50  N12 UNL     1       0.714  23.461  13.968  1.00  0.00    -0.373 N 
HETATM   51  N13 UNL     1      -0.966  24.612  15.082  1.00  0.00    -0.064 NA
ATOM     52 2H12 UNL     1       1.030  22.845  13.218  1.00  0.00     0.158 HD
ATOM     53 1H12 UNL     1       1.375  23.836  14.648  1.00  0.00     0.158 HD
ATOM     54  H11 UNL     1      -1.383  23.597  12.155  1.00  0.00     0.170 HD
ENDBRANCH  11  48
TORSDOF 12
ENDMDL
MODEL 4
REMARK VINA RESULT: -6.984424320      3.423      6.697
REMARK  12 active torsions:
REMARK  status: ('A' for Active; 'I' for Inactive)
REMARK    1  A    between atoms: O1_2  and  N1_3 
REMARK    2  A    between atoms: N1_3  and  C2_4 
REMARK    3  A    between atoms: N2_6  and  C4_7 
REMARK    4  A    between atoms: C5_10  and  N4_11 
REMARK    5  A    between atoms: C8_14  and  C9_15 
REMARK    6  A    between atoms: C9_15  and  S1_16 
REMARK    7  A    between atoms: S1_16  and  C10_17 
REMARK    8  A    between atoms: C11_22  and  C12_23 
REMARK    9  A    between atoms: C12_23  and  N7_24 
REMARK   10  A    between atoms: C16_34  and  N9_35 
REMARK   11  A    between atoms: C17_40  and  N11_41 
REMARK       I    between atoms: N11_41  and  C18_43 
REMARK   12  A    between atoms: C21_52  and  O2_53 
ROOT
HETATM    1  C4  UNL     1      -0.091  18.003  10.238  1.00  0.00     0.682 A 
HETATM    2  N3  UNL     1      -1.214  18.723  10.445  1.00  0.00    -0.174 N 
ATOM      3  H3  UNL     1      -2.089  18.351  10.074  1.00  0.00     0.186 HD
HETATM    4  C5  UNL     1      -1.266  19.892  11.102  1.00  0.00     0.149 A 
HETATM    5  C15 UNL     1      -0.090  20.399  11.605  1.00  0.00     0.124 A 
HETATM    6  N8  UNL     1       0.008  21.544  12.258  1.00  0.00    -0.186 N 
ATOM      7  H8  UNL     1      -0.838  22.092  12.413  1.00  0.00     0.184 HD
HETATM    8  C16 UNL     1       1.190  22.023  12.733  1.00  0.00     0.678 A 
HETATM    9  N10 UNL     1       2.335  21.336  12.553  1.00  0.00    -0.174 N 
ATOM     10  H10 UNL     1       3.215  21.702  12.913  1.00  0.00     0.186 HD
HETATM   11  C17 UNL     1       2.307  20.169  11.898  1.00  0.00     0.153 A 
HETATM   12  C19 UNL     1       1.106  19.680  11.414  1.00  0.00     0.124 A 
HETATM   13  N14 UNL     1       1.042  18.525  10.743  1.00  0.00    -0.185 N 
ATOM     14  H14 UNL     1       1.908  18.005  10.605  1.00  0.00     0.184 HD
ENDROOT
BRANCH   4  15
HETATM   15  N4  UNL     1      -2.482  20.580  11.330  1.00  0.00    -0.365 N 
HETATM   16  C6  UNL     1      -2.553  21.521  12.431  1.00  0.00     0.125 C 
HETATM   17  C7  UNL     1      -4.036  21.758  12.786  1.00  0.00     0.025 C 
HETATM   18  C8  UNL     1      -4.793  20.487  12.661  1.00  0.00    -0.002 C 
HETATM   19  C13 UNL     1      -4.923  20.143  11.190  1.00  0.00     0.025 C 
HETATM   20  C14 UNL     1      -3.621  20.337  10.471  1.00  0.00     0.125 C 
BRANCH  18  21
HETATM   21  C9  UNL     1      -6.134  20.539  13.291  1.00  0.00     0.086 C 
BRANCH  21  22
HETATM   22  S1  UNL     1      -6.427  21.589  14.668  1.00  0.00    -0.103 SA
BRANCH  22  23
HETATM   23  C10 UNL     1      -6.113  20.931  16.288  1.00  0.00     0.128 A 
HETATM   24  N5  UNL     1      -5.805  21.618  17.404  1.00  0.00    -0.287 N 
HETATM   25  N6  UNL     1      -5.563  21.010  18.473  1.00  0.00    -0.295 N 
ATOM     26  H5  UNL     1      -5.769  22.637  17.379  1.00  0.00     0.188 HD
HETATM   27  C11 UNL     1      -5.608  19.682  18.515  1.00  0.00     0.094 A 
ATOM     28  H6  UNL     1      -5.331  21.536  19.315  1.00  0.00     0.187 HD
HETATM   29  S2  UNL     1      -6.026  19.322  16.901  1.00  0.00    -0.048 SA
BRANCH  27  30
HETATM   30  C12 UNL     1      -5.353  18.772  19.684  1.00  0.00     0.295 C 
BRANCH  30  31
HETATM   31  N7  UNL     1      -5.563  17.386  19.302  1.00  0.00    -0.073 N 
ATOM     32  H73 UNL     1      -6.540  17.197  19.079  1.00  0.00     0.274 HD
ATOM     33  H72 UNL     1      -5.156  17.178  18.391  1.00  0.00     0.274 HD
ATOM     34  H71 UNL     1      -5.210  16.761  20.027  1.00  0.00     0.274 HD
ENDBRANCH  30  31
ENDBRANCH  27  30
ENDBRANCH  22  23
ENDBRANCH  21  22
ENDBRANCH  18  21
ENDBRANCH   4  15
BRANCH   1  35
HETATM   35  N2  UNL     1      -0.105  16.775   9.534  1.00  0.00    -0.213 N 
HETATM   36  C3  UNL     1       0.548  15.566   9.935  1.00  0.00     0.167 C 
HETATM   37  C2  UNL     1       0.993  14.970   8.618  1.00  0.00     0.155 C 
HETATM   38  C21 UNL     1       0.259  15.715   7.532  1.00  0.00     0.159 C 
HETATM   39  C20 UNL     1      -0.773  16.529   8.291  1.00  0.00     0.174 C 
BRANCH  37  40
HETATM   40  N1  UNL     1       0.619  13.571   8.523  1.00  0.00    -0.092 NA
BRANCH  40  41
HETATM   41  O1  UNL     1      -0.539  13.417   9.201  1.00  0.00    -0.291 OA
HETATM   42  C1  UNL     1      -1.312  12.412   8.598  1.00  0.00     0.231 C 
ENDBRANCH  40  41
ENDBRANCH  37  40
BRANCH  38  43
HETATM   43  O2  UNL     1       1.153  16.557   6.835  1.00  0.00    -0.392 OA
ATOM     44  H2  UNL     1       0.716  16.945   6.086  1.00  0.00     0.210 HD
ENDBRANCH  38  43
ENDBRANCH   1  35
BRANCH   8  45
HETATM   45  N9  UNL     1       1.228  23.144  13.364  1.00  0.00    -0.234 N 
ATOM     46  H92 UNL     1       1.872  23.868  13.048  1.00  0.00     0.174 HD
ATOM     47  H91 UNL     1       0.619  23.301  14.168  1.00  0.00     0.174 HD
ENDBRANCH   8  45
BRANCH  11  48
HETATM   48  N11 UNL     1       3.359  19.456  11.686  1.00  0.00    -0.315 N 
HETATM   49  C18 UNL     1       4.467  19.400  12.539  1.00  0.00     0.187 C 
HETATM   50  N12 UNL     1       4.710  18.337  13.210  1.00  0.00    -0.373 N 
HETATM   51  N13 UNL     1       5.330  20.509  12.676  1.00  0.00    -0.064 NA
ATOM     52 2H12 UNL     1       4.087  17.535  13.112  1.00  0.00     0.158 HD
ATOM     53 1H12 UNL     1       5.517  18.296  13.832  1.00  0.00     0.158 HD
ATOM     54  H11 UNL     1       3.387  18.893  10.836  1.00  0.00     0.170 HD
ENDBRANCH  11  48
TORSDOF 12
ENDMDL
MODEL 5
REMARK VINA RESULT: -6.980852443      1.967      2.642
REMARK  12 active torsions:
REMARK  status: ('A' for Active; 'I' for Inactive)
REMARK    1  A    between atoms: O1_2  and  N1_3 
REMARK    2  A    between atoms: N1_3  and  C2_4 
REMARK    3  A    between atoms: N2_6  and  C4_7 
REMARK    4  A    between atoms: C5_10  and  N4_11 
REMARK    5  A    between atoms: C8_14  and  C9_15 
REMARK    6  A    between atoms: C9_15  and  S1_16 
REMARK    7  A    between atoms: S1_16  and  C10_17 
REMARK    8  A    between atoms: C11_22  and  C12_23 
REMARK    9  A    between atoms: C12_23  and  N7_24 
REMARK   10  A    between atoms: C16_34  and  N9_35 
REMARK   11  A    between atoms: C17_40  and  N11_41 
REMARK       I    between atoms: N11_41  and  C18_43 
REMARK   12  A    between atoms: C21_52  and  O2_53 
ROOT
HETATM    1  C4  UNL     1      -0.083  16.831   9.985  1.00  0.00     0.682 A 
HETATM    2  N3  UNL     1      -1.392  17.146   9.883  1.00  0.00    -0.174 N 
ATOM      3  H3  UNL     1      -1.685  18.062  10.221  1.00  0.00     0.186 HD
HETATM    4  C5  UNL     1      -2.337  16.342   9.372  1.00  0.00     0.149 A 
HETATM    5  C15 UNL     1      -1.948  15.104   8.914  1.00  0.00     0.124 A 
HETATM    6  N8  UNL     1      -2.773  14.207   8.402  1.00  0.00    -0.186 N 
ATOM      7  H8  UNL     1      -3.763  14.440   8.327  1.00  0.00     0.184 HD
HETATM    8  C16 UNL     1      -2.357  12.986   7.968  1.00  0.00     0.678 A 
HETATM    9  N10 UNL     1      -1.060  12.631   8.047  1.00  0.00    -0.174 N 
ATOM     10  H10 UNL     1      -0.757  11.714   7.719  1.00  0.00     0.186 HD
HETATM   11  C17 UNL     1      -0.171  13.492   8.557  1.00  0.00     0.153 A 
HETATM   12  C19 UNL     1      -0.592  14.734   8.999  1.00  0.00     0.124 A 
HETATM   13  N14 UNL     1       0.265  15.614   9.528  1.00  0.00    -0.185 N 
ATOM     14  H14 UNL     1       1.247  15.346   9.589  1.00  0.00     0.184 HD
ENDROOT
BRANCH   4  15
HETATM   15  N4  UNL     1      -3.688  16.744   9.247  1.00  0.00    -0.365 N 
HETATM   16  C6  UNL     1      -4.032  17.728   8.239  1.00  0.00     0.125 C 
HETATM   17  C7  UNL     1      -5.392  18.357   8.603  1.00  0.00     0.025 C 
HETATM   18  C8  UNL     1      -5.489  18.532  10.074  1.00  0.00    -0.002 C 
HETATM   19  C13 UNL     1      -5.647  17.166  10.714  1.00  0.00     0.025 C 
HETATM   20  C14 UNL     1      -4.694  16.174  10.117  1.00  0.00     0.125 C 
BRANCH  18  21
HETATM   21  C9  UNL     1      -6.602  19.419  10.488  1.00  0.00     0.086 C 
BRANCH  21  22
HETATM   22  S1  UNL     1      -6.501  20.324  11.990  1.00  0.00    -0.103 SA
BRANCH  22  23
HETATM   23  C10 UNL     1      -4.939  21.063  12.404  1.00  0.00     0.128 A 
HETATM   24  N5  UNL     1      -3.763  20.898  11.771  1.00  0.00    -0.287 N 
HETATM   25  N6  UNL     1      -2.727  21.451  12.209  1.00  0.00    -0.295 N 
ATOM     26  H5  UNL     1      -3.715  20.321  10.932  1.00  0.00     0.188 HD
HETATM   27  C11 UNL     1      -2.780  22.206  13.302  1.00  0.00     0.094 A 
ATOM     28  H6  UNL     1      -1.839  21.323  11.724  1.00  0.00     0.187 HD
HETATM   29  S2  UNL     1      -4.436  22.088  13.695  1.00  0.00    -0.048 SA
BRANCH  27  30
HETATM   30  C12 UNL     1      -1.665  22.949  13.983  1.00  0.00     0.295 C 
BRANCH  30  31
HETATM   31  N7  UNL     1      -0.382  22.561  13.423  1.00  0.00    -0.073 N 
ATOM     32  H73 UNL     1      -0.439  21.675  12.921  1.00  0.00     0.274 HD
ATOM     33  H72 UNL     1      -0.111  23.159  12.643  1.00  0.00     0.274 HD
ATOM     34  H71 UNL     1       0.332  22.539  14.151  1.00  0.00     0.274 HD
ENDBRANCH  30  31
ENDBRANCH  27  30
ENDBRANCH  22  23
ENDBRANCH  21  22
ENDBRANCH  18  21
ENDBRANCH   4  15
BRANCH   1  35
HETATM   35  N2  UNL     1       0.864  17.726  10.537  1.00  0.00    -0.213 N 
HETATM   36  C3  UNL     1       1.987  17.370  11.350  1.00  0.00     0.167 C 
HETATM   37  C2  UNL     1       2.075  18.521  12.328  1.00  0.00     0.155 C 
HETATM   38  C21 UNL     1       1.203  19.623  11.783  1.00  0.00     0.159 C 
HETATM   39  C20 UNL     1       0.862  19.150  10.381  1.00  0.00     0.174 C 
BRANCH  37  40
HETATM   40  N1  UNL     1       3.430  19.032  12.415  1.00  0.00    -0.092 NA
BRANCH  40  41
HETATM   41  O1  UNL     1       4.183  18.324  11.546  1.00  0.00    -0.291 OA
HETATM   42  C1  UNL     1       5.438  18.057  12.115  1.00  0.00     0.231 C 
ENDBRANCH  40  41
ENDBRANCH  37  40
BRANCH  38  43
HETATM   43  O2  UNL     1       0.037  19.751  12.570  1.00  0.00    -0.392 OA
ATOM     44  H2  UNL     1      -0.236  20.660  12.601  1.00  0.00     0.210 HD
ENDBRANCH  38  43
ENDBRANCH   1  35
BRANCH   8  45
HETATM   45  N9  UNL     1      -3.203  12.150   7.475  1.00  0.00    -0.234 N 
ATOM     46  H92 UNL     1      -3.939  12.497   6.859  1.00  0.00     0.174 HD
ATOM     47  H91 UNL     1      -3.135  11.158   7.701  1.00  0.00     0.174 HD
ENDBRANCH   8  45
BRANCH  11  48
HETATM   48  N11 UNL     1       1.085  13.224   8.666  1.00  0.00    -0.315 N 
HETATM   49  C18 UNL     1       1.773  12.302   7.871  1.00  0.00     0.187 C 
HETATM   50  N12 UNL     1       2.628  12.705   7.007  1.00  0.00    -0.373 N 
HETATM   51  N13 UNL     1       1.537  10.916   8.005  1.00  0.00    -0.064 NA
ATOM     52 2H12 UNL     1       2.798  13.707   6.910  1.00  0.00     0.158 HD
ATOM     53 1H12 UNL     1       3.129  12.033   6.427  1.00  0.00     0.158 HD
ATOM     54  H11 UNL     1       1.615  13.721   9.383  1.00  0.00     0.170 HD
ENDBRANCH  11  48
TORSDOF 12
ENDMDL
