MODEL 1
REMARK VINA RESULT: -8.255465652      0.000      0.000
REMARK  15 active torsions:
REMARK  status: ('A' for Active; 'I' for Inactive)
REMARK    1  A    between atoms: C2_2  and  O1_3 
REMARK    2  A    between atoms: C2_2  and  C3_5 
REMARK    3  A    between atoms: C3_5  and  O2_6 
REMARK    4  A    between atoms: C3_5  and  N1_8 
REMARK    5  A    between atoms: C4_9  and  C5_10 
REMARK    6  A    between atoms: C5_10  and  N2_11 
REMARK    7  A    between atoms: N2_11  and  C6_13 
REMARK    8  A    between atoms: C7_16  and  C8_17 
REMARK    9  A    between atoms: C8_17  and  C9_18 
REMARK       I    between atoms: C9_18  and  N4_20 
REMARK   10  A    between atoms: N4_20  and  C10_22 
REMARK   11  A    between atoms: C12_29  and  C13_30 
REMARK   12  A    between atoms: C16_37  and  O6_38 
REMARK   13  A    between atoms: C20_45  and  N10_46 
REMARK   14  A    between atoms: N10_46  and  N11_47 
REMARK   15  A    between atoms: N10_46  and  O7_50 
ROOT
HETATM    1  C6  UNL     1      -1.953  18.668  14.449  1.00  0.00     0.147 A 
HETATM    2  N3  UNL     1      -1.650  19.756  13.764  1.00  0.00    -0.341 N 
ATOM      3  H3  UNL     1      -0.682  19.897  13.476  1.00  0.00     0.167 HD
HETATM    4  C7  UNL     1      -2.572  20.696  13.427  1.00  0.00     0.052 A 
HETATM    5  C12 UNL     1      -3.886  20.530  13.808  1.00  0.00     0.132 A 
HETATM    6  N8  UNL     1      -4.234  19.414  14.520  1.00  0.00    -0.254 N 
HETATM    7  C14 UNL     1      -5.500  19.241  14.911  1.00  0.00     0.258 A 
HETATM    8  O5  UNL     1      -6.419  20.059  14.652  1.00  0.00    -0.267 OA
HETATM    9  C15 UNL     1      -5.878  18.109  15.654  1.00  0.00     0.130 A 
HETATM   10  C16 UNL     1      -4.875  17.216  15.942  1.00  0.00     0.146 A 
HETATM   11  N9  UNL     1      -3.615  17.396  15.550  1.00  0.00    -0.320 N 
ATOM     12  H9  UNL     1      -2.903  16.705  15.786  1.00  0.00     0.169 HD
HETATM   13  C17 UNL     1      -3.286  18.485  14.844  1.00  0.00     0.162 A 
ENDROOT
BRANCH   1  14
HETATM   14  N2  UNL     1      -1.125  17.757  14.788  1.00  0.00    -0.368 N 
ATOM     15  H2  UNL     1      -0.899  17.710  15.782  1.00  0.00     0.161 HD
BRANCH  14  16
HETATM   16  C5  UNL     1      -0.477  16.797  13.958  1.00  0.00     0.178 C 
BRANCH  16  17
HETATM   17  C4  UNL     1       0.921  17.180  13.580  1.00  0.00     0.033 A 
HETATM   18  N1  UNL     1       1.335  17.871  12.521  1.00  0.00    -0.307 N 
HETATM   19  C20 UNL     1       2.661  17.987  12.554  1.00  0.00     0.133 A 
HETATM   20  C19 UNL     1       3.109  17.339  13.686  1.00  0.00     0.049 A 
HETATM   21  C18 UNL     1       2.009  16.832  14.330  1.00  0.00     0.030 A 
BRANCH  18  22
HETATM   22  C3  UNL     1       0.453  18.403  11.498  1.00  0.00     0.254 C 
BRANCH  22  23
HETATM   23  C2  UNL     1       0.648  17.794  10.147  1.00  0.00     0.163 C 
HETATM   24  C1  UNL     1       0.261  16.354  10.038  1.00  0.00     0.044 C 
BRANCH  23  25
HETATM   25  O1  UNL     1       0.057  18.506   9.130  1.00  0.00    -0.392 OA
ATOM     26  H1  UNL     1       0.095  19.435   9.330  1.00  0.00     0.210 HD
ENDBRANCH  23  25
ENDBRANCH  22  23
BRANCH  22  27
HETATM   27  O2  UNL     1       0.575  19.784  11.481  1.00  0.00    -0.374 OA
ATOM     28  H2  UNL     1       1.367  20.075  11.044  1.00  0.00     0.212 HD
ENDBRANCH  22  27
ENDBRANCH  18  22
BRANCH  19  29
HETATM   29  N10 UNL     1       3.517  18.665  11.597  1.00  0.00    -0.060 NA
BRANCH  29  30
HETATM   30  N11 UNL     1       3.708  19.996  11.944  1.00  0.00    -0.335 NA
ATOM     31 2H11 UNL     1       3.583  20.097  12.952  1.00  0.00     0.173 HD
ATOM     32 1H11 UNL     1       3.020  20.599  11.493  1.00  0.00     0.173 HD
ENDBRANCH  29  30
BRANCH  29  33
HETATM   33  O7  UNL     1       4.703  18.036  11.608  1.00  0.00    -0.288 OA
ATOM     34  H7  UNL     1       5.347  18.654  11.933  1.00  0.00     0.239 HD
ENDBRANCH  29  33
ENDBRANCH  19  29
ENDBRANCH  16  17
ENDBRANCH  14  16
ENDBRANCH   1  14
BRANCH   4  35
HETATM   35  C8  UNL     1      -2.162  21.866  12.626  1.00  0.00     0.163 C 
BRANCH  35  36
HETATM   36  C9  UNL     1      -1.276  22.805  13.316  1.00  0.00     0.229 C 
HETATM   37  O3  UNL     1      -1.073  22.631  14.565  1.00  0.00    -0.273 OA
HETATM   38  N4  UNL     1      -0.674  23.866  12.624  1.00  0.00    -0.306 N 
ATOM     39  H4  UNL     1      -1.094  24.791  12.713  1.00  0.00     0.171 HD
BRANCH  38  40
HETATM   40  C10 UNL     1       0.373  23.750  11.886  1.00  0.00     0.168 A 
HETATM   41  N5  UNL     1       0.653  24.205  10.666  1.00  0.00    -0.331 N 
HETATM   42  C11 UNL     1       1.813  23.931  10.149  1.00  0.00     0.189 A 
ATOM     43  H5  UNL     1      -0.029  24.759  10.147  1.00  0.00     0.168 HD
HETATM   44  N6  UNL     1       2.675  23.206  10.861  1.00  0.00    -0.320 N 
HETATM   45  S1  UNL     1       1.833  22.906  12.284  1.00  0.00     0.024 SA
ATOM     46  H6  UNL     1       3.616  22.907  10.605  1.00  0.00     0.175 HD
ENDBRANCH  38  40
ENDBRANCH  35  36
ENDBRANCH   4  35
BRANCH   5  47
HETATM   47  C13 UNL     1      -4.898  21.521  13.492  1.00  0.00     0.284 C 
HETATM   48  N7  UNL     1      -5.020  22.660  14.370  1.00  0.00    -0.056 NA
HETATM   49  O4  UNL     1      -5.689  21.491  12.521  1.00  0.00    -0.269 OA
ENDBRANCH   5  47
BRANCH  10  50
HETATM   50  O6  UNL     1      -5.205  16.066  16.684  1.00  0.00    -0.346 OA
ATOM     51  H6  UNL     1      -4.738  15.262  16.494  1.00  0.00     0.219 HD
ENDBRANCH  10  50
TORSDOF 15
ENDMDL
MODEL 2
REMARK VINA RESULT: -7.708683903      2.705      7.566
REMARK  15 active torsions:
REMARK  status: ('A' for Active; 'I' for Inactive)
REMARK    1  A    between atoms: C2_2  and  O1_3 
REMARK    2  A    between atoms: C2_2  and  C3_5 
REMARK    3  A    between atoms: C3_5  and  O2_6 
REMARK    4  A    between atoms: C3_5  and  N1_8 
REMARK    5  A    between atoms: C4_9  and  C5_10 
REMARK    6  A    between atoms: C5_10  and  N2_11 
REMARK    7  A    between atoms: N2_11  and  C6_13 
REMARK    8  A    between atoms: C7_16  and  C8_17 
REMARK    9  A    between atoms: C8_17  and  C9_18 
REMARK       I    between atoms: C9_18  and  N4_20 
REMARK   10  A    between atoms: N4_20  and  C10_22 
REMARK   11  A    between atoms: C12_29  and  C13_30 
REMARK   12  A    between atoms: C16_37  and  O6_38 
REMARK   13  A    between atoms: C20_45  and  N10_46 
REMARK   14  A    between atoms: N10_46  and  N11_47 
REMARK   15  A    between atoms: N10_46  and  O7_50 
ROOT
HETATM    1  C6  UNL     1       0.468  19.375  11.260  1.00  0.00     0.147 A 
HETATM    2  N3  UNL     1      -0.455  18.518  11.655  1.00  0.00    -0.341 N 
ATOM      3  H3  UNL     1      -1.361  18.526  11.185  1.00  0.00     0.167 HD
HETATM    4  C7  UNL     1      -0.251  17.625  12.659  1.00  0.00     0.052 A 
HETATM    5  C12 UNL     1       0.962  17.597  13.311  1.00  0.00     0.132 A 
HETATM    6  N8  UNL     1       1.941  18.474  12.929  1.00  0.00    -0.254 N 
HETATM    7  C14 UNL     1       3.120  18.472  13.557  1.00  0.00     0.258 A 
HETATM    8  O5  UNL     1       3.397  17.688  14.501  1.00  0.00    -0.267 OA
HETATM    9  C15 UNL     1       4.135  19.372  13.190  1.00  0.00     0.130 A 
HETATM   10  C16 UNL     1       3.835  20.231  12.162  1.00  0.00     0.146 A 
HETATM   11  N9  UNL     1       2.657  20.228  11.541  1.00  0.00    -0.320 N 
ATOM     12  H9  UNL     1       2.478  20.885  10.782  1.00  0.00     0.169 HD
HETATM   13  C17 UNL     1       1.708  19.359  11.914  1.00  0.00     0.162 A 
ENDROOT
BRANCH   1  14
HETATM   14  N2  UNL     1       0.327  20.231  10.323  1.00  0.00    -0.368 N 
ATOM     15  H2  UNL     1       0.978  20.147   9.542  1.00  0.00     0.161 HD
BRANCH  14  16
HETATM   16  C5  UNL     1      -0.624  21.289  10.228  1.00  0.00     0.178 C 
BRANCH  16  17
HETATM   17  C4  UNL     1      -0.459  22.337  11.285  1.00  0.00     0.033 A 
HETATM   18  N1  UNL     1      -1.073  22.433  12.462  1.00  0.00    -0.307 N 
HETATM   19  C20 UNL     1      -0.647  23.521  13.101  1.00  0.00     0.133 A 
HETATM   20  C19 UNL     1       0.279  24.144  12.292  1.00  0.00     0.049 A 
HETATM   21  C18 UNL     1       0.395  23.395  11.148  1.00  0.00     0.030 A 
BRANCH  18  22
HETATM   22  C3  UNL     1      -2.057  21.483  12.949  1.00  0.00     0.254 C 
BRANCH  22  23
HETATM   23  C2  UNL     1      -3.368  22.098  13.319  1.00  0.00     0.163 C 
HETATM   24  C1  UNL     1      -4.566  21.480  12.672  1.00  0.00     0.044 C 
BRANCH  23  25
HETATM   25  O1  UNL     1      -3.574  22.184  14.676  1.00  0.00    -0.392 OA
ATOM     26  H1  UNL     1      -3.364  23.062  14.973  1.00  0.00     0.210 HD
ENDBRANCH  23  25
ENDBRANCH  22  23
BRANCH  22  27
HETATM   27  O2  UNL     1      -1.498  20.758  13.989  1.00  0.00    -0.374 OA
ATOM     28  H2  UNL     1      -2.153  20.360  14.550  1.00  0.00     0.212 HD
ENDBRANCH  22  27
ENDBRANCH  18  22
BRANCH  19  29
HETATM   29  N10 UNL     1      -1.054  23.997  14.410  1.00  0.00    -0.060 NA
BRANCH  29  30
HETATM   30  N11 UNL     1       0.044  24.212  15.233  1.00  0.00    -0.335 NA
ATOM     31 2H11 UNL     1       0.889  23.922  14.741  1.00  0.00     0.173 HD
ATOM     32 1H11 UNL     1      -0.016  23.653  16.084  1.00  0.00     0.173 HD
ENDBRANCH  29  30
BRANCH  29  33
HETATM   33  O7  UNL     1      -1.697  25.162  14.228  1.00  0.00    -0.288 OA
ATOM     34  H7  UNL     1      -1.083  25.764  13.825  1.00  0.00     0.239 HD
ENDBRANCH  29  33
ENDBRANCH  19  29
ENDBRANCH  16  17
ENDBRANCH  14  16
ENDBRANCH   1  14
BRANCH   4  35
HETATM   35  C8  UNL     1      -1.321  16.672  13.016  1.00  0.00     0.163 C 
BRANCH  35  36
HETATM   36  C9  UNL     1      -2.682  17.165  12.801  1.00  0.00     0.229 C 
HETATM   37  O3  UNL     1      -3.412  16.558  11.947  1.00  0.00    -0.273 OA
HETATM   38  N4  UNL     1      -3.165  18.275  13.509  1.00  0.00    -0.306 N 
ATOM     39  H4  UNL     1      -3.173  19.177  13.033  1.00  0.00     0.171 HD
BRANCH  38  40
HETATM   40  C10 UNL     1      -3.599  18.231  14.719  1.00  0.00     0.168 A 
HETATM   41  N5  UNL     1      -3.595  19.135  15.697  1.00  0.00    -0.331 N 
HETATM   42  C11 UNL     1      -4.110  18.815  16.846  1.00  0.00     0.189 A 
ATOM     43  H5  UNL     1      -3.195  20.062  15.547  1.00  0.00     0.168 HD
HETATM   44  N6  UNL     1      -4.623  17.595  16.999  1.00  0.00    -0.320 N 
HETATM   45  S1  UNL     1      -4.372  16.887  15.495  1.00  0.00     0.024 SA
ATOM     46  H6  UNL     1      -5.061  17.189  17.826  1.00  0.00     0.175 HD
ENDBRANCH  38  40
ENDBRANCH  35  36
ENDBRANCH   4  35
BRANCH   5  47
HETATM   47  C13 UNL     1       1.213  16.678  14.407  1.00  0.00     0.284 C 
HETATM   48  N7  UNL     1       1.806  15.402  14.089  1.00  0.00    -0.056 NA
HETATM   49  O4  UNL     1       0.965  16.882  15.617  1.00  0.00    -0.269 OA
ENDBRANCH   5  47
BRANCH  10  50
HETATM   50  O6  UNL     1       4.821  21.152  11.758  1.00  0.00    -0.346 OA
ATOM     51  H6  UNL     1       4.827  21.430  10.850  1.00  0.00     0.219 HD
ENDBRANCH  10  50
TORSDOF 15
ENDMDL
MODEL 3
REMARK VINA RESULT: -7.613259528      2.497      5.358
REMARK  15 active torsions:
REMARK  status: ('A' for Active; 'I' for Inactive)
REMARK    1  A    between atoms: C2_2  and  O1_3 
REMARK    2  A    between atoms: C2_2  and  C3_5 
REMARK    3  A    between atoms: C3_5  and  O2_6 
REMARK    4  A    between atoms: C3_5  and  N1_8 
REMARK    5  A    between atoms: C4_9  and  C5_10 
REMARK    6  A    between atoms: C5_10  and  N2_11 
REMARK    7  A    between atoms: N2_11  and  C6_13 
REMARK    8  A    between atoms: C7_16  and  C8_17 
REMARK    9  A    between atoms: C8_17  and  C9_18 
REMARK       I    between atoms: C9_18  and  N4_20 
REMARK   10  A    between atoms: N4_20  and  C10_22 
REMARK   11  A    between atoms: C12_29  and  C13_30 
REMARK   12  A    between atoms: C16_37  and  O6_38 
REMARK   13  A    between atoms: C20_45  and  N10_46 
REMARK   14  A    between atoms: N10_46  and  N11_47 
REMARK   15  A    between atoms: N10_46  and  O7_50 
ROOT
HETATM    1  C6  UNL     1      -1.717  20.221  11.242  1.00  0.00     0.147 A 
HETATM    2  N3  UNL     1      -2.704  19.352  11.124  1.00  0.00    -0.341 N 
ATOM      3  H3  UNL     1      -2.593  18.573  10.475  1.00  0.00     0.167 HD
HETATM    4  C7  UNL     1      -3.862  19.450  11.830  1.00  0.00     0.052 A 
HETATM    5  C12 UNL     1      -4.037  20.495  12.710  1.00  0.00     0.132 A 
HETATM    6  N8  UNL     1      -3.035  21.416  12.855  1.00  0.00    -0.254 N 
HETATM    7  C14 UNL     1      -3.191  22.445  13.693  1.00  0.00     0.258 A 
HETATM    8  O5  UNL     1      -4.228  22.622  14.382  1.00  0.00    -0.267 OA
HETATM    9  C15 UNL     1      -2.180  23.409  13.850  1.00  0.00     0.130 A 
HETATM   10  C16 UNL     1      -1.047  23.220  13.096  1.00  0.00     0.146 A 
HETATM   11  N9  UNL     1      -0.899  22.193  12.262  1.00  0.00    -0.320 N 
ATOM     12  H9  UNL     1      -0.040  22.093  11.723  1.00  0.00     0.169 HD
HETATM   13  C17 UNL     1      -1.881  21.291  12.134  1.00  0.00     0.162 A 
ENDROOT
BRANCH   1  14
HETATM   14  N2  UNL     1      -0.612  20.173  10.605  1.00  0.00    -0.368 N 
ATOM     15  H2  UNL     1      -0.488  20.875   9.875  1.00  0.00     0.161 HD
BRANCH  14  16
HETATM   16  C5  UNL     1       0.471  19.263  10.781  1.00  0.00     0.178 C 
BRANCH  16  17
HETATM   17  C4  UNL     1       1.741  19.923  11.223  1.00  0.00     0.033 A 
HETATM   18  N1  UNL     1       2.781  19.385  11.855  1.00  0.00    -0.307 N 
HETATM   19  C20 UNL     1       3.704  20.319  12.072  1.00  0.00     0.133 A 
HETATM   20  C19 UNL     1       3.227  21.505  11.555  1.00  0.00     0.049 A 
HETATM   21  C18 UNL     1       1.990  21.252  11.020  1.00  0.00     0.030 A 
BRANCH  18  22
HETATM   22  C3  UNL     1       2.867  17.988  12.240  1.00  0.00     0.254 C 
BRANCH  22  23
HETATM   23  C2  UNL     1       2.699  17.747  13.706  1.00  0.00     0.163 C 
HETATM   24  C1  UNL     1       2.103  16.424  14.069  1.00  0.00     0.044 C 
BRANCH  23  25
HETATM   25  O1  UNL     1       3.849  17.947  14.433  1.00  0.00    -0.392 OA
ATOM     26  H1  UNL     1       4.599  17.927  13.850  1.00  0.00     0.210 HD
ENDBRANCH  23  25
ENDBRANCH  22  23
BRANCH  22  27
HETATM   27  O2  UNL     1       4.053  17.464  11.748  1.00  0.00    -0.374 OA
ATOM     28  H2  UNL     1       4.705  18.133  11.581  1.00  0.00     0.212 HD
ENDBRANCH  22  27
ENDBRANCH  18  22
BRANCH  19  29
HETATM   29  N10 UNL     1       4.990  20.160  12.727  1.00  0.00    -0.060 NA
BRANCH  29  30
HETATM   30  N11 UNL     1       6.006  20.762  11.995  1.00  0.00    -0.335 NA
ATOM     31 2H11 UNL     1       5.600  21.226  11.183  1.00  0.00     0.173 HD
ATOM     32 1H11 UNL     1       6.671  20.071  11.647  1.00  0.00     0.173 HD
ENDBRANCH  29  30
BRANCH  29  33
HETATM   33  O7  UNL     1       4.903  20.757  13.926  1.00  0.00    -0.288 OA
ATOM     34  H7  UNL     1       5.542  20.343  14.495  1.00  0.00     0.239 HD
ENDBRANCH  29  33
ENDBRANCH  19  29
ENDBRANCH  16  17
ENDBRANCH  14  16
ENDBRANCH   1  14
BRANCH   4  35
HETATM   35  C8  UNL     1      -4.903  18.416  11.670  1.00  0.00     0.163 C 
BRANCH  35  36
HETATM   36  C9  UNL     1      -4.547  17.097  12.193  1.00  0.00     0.229 C 
HETATM   37  O3  UNL     1      -4.355  16.152  11.357  1.00  0.00    -0.273 OA
HETATM   38  N4  UNL     1      -4.426  16.879  13.573  1.00  0.00    -0.306 N 
ATOM     39  H4  UNL     1      -5.208  16.437  14.056  1.00  0.00     0.171 HD
BRANCH  38  40
HETATM   40  C10 UNL     1      -3.395  17.201  14.271  1.00  0.00     0.168 A 
HETATM   41  N5  UNL     1      -3.275  17.718  15.493  1.00  0.00    -0.331 N 
HETATM   42  C11 UNL     1      -2.085  17.948  15.960  1.00  0.00     0.189 A 
ATOM     43  H5  UNL     1      -4.103  17.928  16.052  1.00  0.00     0.168 HD
HETATM   44  N6  UNL     1      -1.032  17.657  15.198  1.00  0.00    -0.320 N 
HETATM   45  S1  UNL     1      -1.735  17.048  13.797  1.00  0.00     0.024 SA
ATOM     46  H6  UNL     1      -0.042  17.774  15.412  1.00  0.00     0.175 HD
ENDBRANCH  38  40
ENDBRANCH  35  36
ENDBRANCH   4  35
BRANCH   5  47
HETATM   47  C13 UNL     1      -5.268  20.654  13.464  1.00  0.00     0.284 C 
HETATM   48  N7  UNL     1      -5.367  19.980  14.735  1.00  0.00    -0.056 NA
HETATM   49  O4  UNL     1      -6.268  21.325  13.119  1.00  0.00    -0.269 OA
ENDBRANCH   5  47
BRANCH  10  50
HETATM   50  O6  UNL     1      -0.005  24.160  13.219  1.00  0.00    -0.346 OA
ATOM     51  H6  UNL     1       0.773  24.035  12.690  1.00  0.00     0.219 HD
ENDBRANCH  10  50
TORSDOF 15
ENDMDL
MODEL 4
REMARK VINA RESULT: -7.600606380      2.566      8.111
REMARK  15 active torsions:
REMARK  status: ('A' for Active; 'I' for Inactive)
REMARK    1  A    between atoms: C2_2  and  O1_3 
REMARK    2  A    between atoms: C2_2  and  C3_5 
REMARK    3  A    between atoms: C3_5  and  O2_6 
REMARK    4  A    between atoms: C3_5  and  N1_8 
REMARK    5  A    between atoms: C4_9  and  C5_10 
REMARK    6  A    between atoms: C5_10  and  N2_11 
REMARK    7  A    between atoms: N2_11  and  C6_13 
REMARK    8  A    between atoms: C7_16  and  C8_17 
REMARK    9  A    between atoms: C8_17  and  C9_18 
REMARK       I    between atoms: C9_18  and  N4_20 
REMARK   10  A    between atoms: N4_20  and  C10_22 
REMARK   11  A    between atoms: C12_29  and  C13_30 
REMARK   12  A    between atoms: C16_37  and  O6_38 
REMARK   13  A    between atoms: C20_45  and  N10_46 
REMARK   14  A    between atoms: N10_46  and  N11_47 
REMARK   15  A    between atoms: N10_46  and  O7_50 
ROOT
HETATM    1  C6  UNL     1      -0.095  19.927  11.215  1.00  0.00     0.147 A 
HETATM    2  N3  UNL     1       0.284  18.747  11.670  1.00  0.00    -0.341 N 
ATOM      3  H3  UNL     1      -0.408  18.000  11.726  1.00  0.00     0.167 HD
HETATM    4  C7  UNL     1       1.557  18.485  12.067  1.00  0.00     0.052 A 
HETATM    5  C12 UNL     1       2.510  19.478  12.005  1.00  0.00     0.132 A 
HETATM    6  N8  UNL     1       2.150  20.714  11.540  1.00  0.00    -0.254 N 
HETATM    7  C14 UNL     1       3.055  21.695  11.484  1.00  0.00     0.258 A 
HETATM    8  O5  UNL     1       4.253  21.548  11.836  1.00  0.00    -0.267 OA
HETATM    9  C15 UNL     1       2.705  22.975  11.021  1.00  0.00     0.130 A 
HETATM   10  C16 UNL     1       1.396  23.140  10.640  1.00  0.00     0.146 A 
HETATM   11  N9  UNL     1       0.499  22.158  10.699  1.00  0.00    -0.320 N 
ATOM     12  H9  UNL     1      -0.463  22.326  10.405  1.00  0.00     0.169 HD
HETATM   13  C17 UNL     1       0.863  20.949  11.146  1.00  0.00     0.162 A 
ENDROOT
BRANCH   1  14
HETATM   14  N2  UNL     1      -1.276  20.223  10.829  1.00  0.00    -0.368 N 
ATOM     15  H2  UNL     1      -1.338  20.808   9.995  1.00  0.00     0.161 HD
BRANCH  14  16
HETATM   16  C5  UNL     1      -2.519  19.842  11.414  1.00  0.00     0.178 C 
BRANCH  16  17
HETATM   17  C4  UNL     1      -3.054  20.846  12.388  1.00  0.00     0.033 A 
HETATM   18  N1  UNL     1      -4.249  20.882  12.972  1.00  0.00    -0.307 N 
HETATM   19  C20 UNL     1      -4.326  21.948  13.767  1.00  0.00     0.133 A 
HETATM   20  C19 UNL     1      -3.125  22.619  13.682  1.00  0.00     0.049 A 
HETATM   21  C18 UNL     1      -2.325  21.922  12.813  1.00  0.00     0.030 A 
BRANCH  18  22
HETATM   22  C3  UNL     1      -5.293  19.896  12.754  1.00  0.00     0.254 C 
BRANCH  22  23
HETATM   23  C2  UNL     1      -6.431  20.388  11.920  1.00  0.00     0.163 C 
HETATM   24  C1  UNL     1      -6.907  19.435  10.870  1.00  0.00     0.044 C 
BRANCH  23  25
HETATM   25  O1  UNL     1      -7.504  20.831  12.656  1.00  0.00    -0.392 OA
ATOM     26  H1  UNL     1      -7.276  20.831  13.579  1.00  0.00     0.210 HD
ENDBRANCH  23  25
ENDBRANCH  22  23
BRANCH  22  27
HETATM   27  O2  UNL     1      -5.707  19.409  13.984  1.00  0.00    -0.374 OA
ATOM     28  H2  UNL     1      -6.349  18.713  13.904  1.00  0.00     0.212 HD
ENDBRANCH  22  27
ENDBRANCH  18  22
BRANCH  19  29
HETATM   29  N10 UNL     1      -5.449  22.361  14.589  1.00  0.00    -0.060 NA
BRANCH  29  30
HETATM   30  N11 UNL     1      -5.272  21.977  15.913  1.00  0.00    -0.335 NA
ATOM     31 2H11 UNL     1      -6.129  22.172  16.432  1.00  0.00     0.173 HD
ATOM     32 1H11 UNL     1      -4.523  22.509  16.355  1.00  0.00     0.173 HD
ENDBRANCH  29  30
BRANCH  29  33
HETATM   33  O7  UNL     1      -5.515  23.701  14.528  1.00  0.00    -0.288 OA
ATOM     34  H7  UNL     1      -6.404  23.928  14.281  1.00  0.00     0.239 HD
ENDBRANCH  29  33
ENDBRANCH  19  29
ENDBRANCH  16  17
ENDBRANCH  14  16
ENDBRANCH   1  14
BRANCH   4  35
HETATM   35  C8  UNL     1       1.912  17.128  12.528  1.00  0.00     0.163 C 
BRANCH  35  36
HETATM   36  C9  UNL     1       1.649  16.870  13.944  1.00  0.00     0.229 C 
HETATM   37  O3  UNL     1       2.561  17.164  14.788  1.00  0.00    -0.273 OA
HETATM   38  N4  UNL     1       0.432  16.310  14.359  1.00  0.00    -0.306 N 
ATOM     39  H4  UNL     1       0.413  15.311  14.567  1.00  0.00     0.171 HD
BRANCH  38  40
HETATM   40  C10 UNL     1      -0.663  16.971  14.493  1.00  0.00     0.168 A 
HETATM   41  N5  UNL     1      -0.960  18.061  15.199  1.00  0.00    -0.331 N 
HETATM   42  C11 UNL     1      -2.173  18.523  15.152  1.00  0.00     0.189 A 
ATOM     43  H5  UNL     1      -0.249  18.525  15.765  1.00  0.00     0.168 HD
HETATM   44  N6  UNL     1      -3.071  17.889  14.399  1.00  0.00    -0.320 N 
HETATM   45  S1  UNL     1      -2.187  16.616  13.747  1.00  0.00     0.024 SA
ATOM     46  H6  UNL     1      -4.054  18.118  14.253  1.00  0.00     0.175 HD
ENDBRANCH  38  40
ENDBRANCH  35  36
ENDBRANCH   4  35
BRANCH   5  47
HETATM   47  C13 UNL     1       3.875  19.249  12.444  1.00  0.00     0.284 C 
HETATM   48  N7  UNL     1       4.787  18.638  11.508  1.00  0.00    -0.056 NA
HETATM   49  O4  UNL     1       4.349  19.531  13.568  1.00  0.00    -0.269 OA
ENDBRANCH   5  47
BRANCH  10  50
HETATM   50  O6  UNL     1       0.998  24.406  10.169  1.00  0.00    -0.346 OA
ATOM     51  H6  UNL     1       0.130  24.490   9.793  1.00  0.00     0.219 HD
ENDBRANCH  10  50
TORSDOF 15
ENDMDL
MODEL 5
REMARK VINA RESULT: -7.584580366      2.387      6.373
REMARK  15 active torsions:
REMARK  status: ('A' for Active; 'I' for Inactive)
REMARK    1  A    between atoms: C2_2  and  O1_3 
REMARK    2  A    between atoms: C2_2  and  C3_5 
REMARK    3  A    between atoms: C3_5  and  O2_6 
REMARK    4  A    between atoms: C3_5  and  N1_8 
REMARK    5  A    between atoms: C4_9  and  C5_10 
REMARK    6  A    between atoms: C5_10  and  N2_11 
REMARK    7  A    between atoms: N2_11  and  C6_13 
REMARK    8  A    between atoms: C7_16  and  C8_17 
REMARK    9  A    between atoms: C8_17  and  C9_18 
REMARK       I    between atoms: C9_18  and  N4_20 
REMARK   10  A    between atoms: N4_20  and  C10_22 
REMARK   11  A    between atoms: C12_29  and  C13_30 
REMARK   12  A    between atoms: C16_37  and  O6_38 
REMARK   13  A    between atoms: C20_45  and  N10_46 
REMARK   14  A    between atoms: N10_46  and  N11_47 
REMARK   15  A    between atoms: N10_46  and  O7_50 
ROOT
HETATM    1  C6  UNL     1       0.735  19.246  11.290  1.00  0.00     0.147 A 
HETATM    2  N3  UNL     1       1.349  20.348  10.900  1.00  0.00    -0.341 N 
ATOM      3  H3  UNL     1       0.909  20.926  10.184  1.00  0.00     0.167 HD
HETATM    4  C7  UNL     1       2.545  20.746  11.411  1.00  0.00     0.052 A 
HETATM    5  C12 UNL     1       3.162  19.981  12.376  1.00  0.00     0.132 A 
HETATM    6  N8  UNL     1       2.553  18.831  12.802  1.00  0.00    -0.254 N 
HETATM    7  C14 UNL     1       3.142  18.068  13.727  1.00  0.00     0.258 A 
HETATM    8  O5  UNL     1       4.249  18.352  14.252  1.00  0.00    -0.267 OA
HETATM    9  C15 UNL     1       2.541  16.878  14.171  1.00  0.00     0.130 A 
HETATM   10  C16 UNL     1       1.333  16.564  13.597  1.00  0.00     0.146 A 
HETATM   11  N9  UNL     1       0.753  17.328  12.674  1.00  0.00    -0.320 N 
ATOM     12  H9  UNL     1      -0.145  17.056  12.276  1.00  0.00     0.169 HD
HETATM   13  C17 UNL     1       1.351  18.457  12.271  1.00  0.00     0.162 A 
ENDROOT
BRANCH   1  14
HETATM   14  N2  UNL     1      -0.387  18.831  10.842  1.00  0.00    -0.368 N 
ATOM     15  H2  UNL     1      -0.353  17.982  10.278  1.00  0.00     0.161 HD
BRANCH  14  16
HETATM   16  C5  UNL     1      -1.680  19.400  11.031  1.00  0.00     0.178 C 
BRANCH  16  17
HETATM   17  C4  UNL     1      -2.097  19.472  12.468  1.00  0.00     0.033 A 
HETATM   18  N1  UNL     1      -2.563  18.499  13.247  1.00  0.00    -0.307 N 
HETATM   19  C20 UNL     1      -2.824  18.983  14.460  1.00  0.00     0.133 A 
HETATM   20  C19 UNL     1      -2.508  20.325  14.449  1.00  0.00     0.049 A 
HETATM   21  C18 UNL     1      -2.050  20.630  13.193  1.00  0.00     0.030 A 
BRANCH  18  22
HETATM   22  C3  UNL     1      -2.754  17.126  12.812  1.00  0.00     0.254 C 
BRANCH  22  23
HETATM   23  C2  UNL     1      -4.186  16.730  12.651  1.00  0.00     0.163 C 
HETATM   24  C1  UNL     1      -4.479  15.879  11.457  1.00  0.00     0.044 C 
BRANCH  23  25
HETATM   25  O1  UNL     1      -4.727  16.148  13.773  1.00  0.00    -0.392 OA
ATOM     26  H1  UNL     1      -4.279  16.473  14.545  1.00  0.00     0.210 HD
ENDBRANCH  23  25
ENDBRANCH  22  23
BRANCH  22  27
HETATM   27  O2  UNL     1      -2.064  16.288  13.675  1.00  0.00    -0.374 OA
ATOM     28  H2  UNL     1      -1.154  16.177  13.425  1.00  0.00     0.212 HD
ENDBRANCH  22  27
ENDBRANCH  18  22
BRANCH  19  29
HETATM   29  N10 UNL     1      -3.342  18.264  15.609  1.00  0.00    -0.060 NA
BRANCH  29  30
HETATM   30  N11 UNL     1      -2.322  17.633  16.311  1.00  0.00    -0.335 NA
ATOM     31 2H11 UNL     1      -1.847  16.979  15.689  1.00  0.00     0.173 HD
ATOM     32 1H11 UNL     1      -2.691  17.093  17.093  1.00  0.00     0.173 HD
ENDBRANCH  29  30
BRANCH  29  33
HETATM   33  O7  UNL     1      -3.931  19.166  16.411  1.00  0.00    -0.288 OA
ATOM     34  H7  UNL     1      -4.302  18.691  17.146  1.00  0.00     0.239 HD
ENDBRANCH  29  33
ENDBRANCH  19  29
ENDBRANCH  16  17
ENDBRANCH  14  16
ENDBRANCH   1  14
BRANCH   4  35
HETATM   35  C8  UNL     1       3.150  22.011  10.951  1.00  0.00     0.163 C 
BRANCH  35  36
HETATM   36  C9  UNL     1       2.204  22.982  10.399  1.00  0.00     0.229 C 
HETATM   37  O3  UNL     1       1.789  22.803   9.205  1.00  0.00    -0.273 OA
HETATM   38  N4  UNL     1       1.773  24.078  11.160  1.00  0.00    -0.306 N 
ATOM     39  H4  UNL     1       2.213  24.982  10.985  1.00  0.00     0.171 HD
BRANCH  38  40
HETATM   40  C10 UNL     1       0.860  24.020  12.064  1.00  0.00     0.168 A 
HETATM   41  N5  UNL     1      -0.394  24.470  12.089  1.00  0.00    -0.331 N 
HETATM   42  C11 UNL     1      -1.107  24.270  13.156  1.00  0.00     0.189 A 
ATOM     43  H5  UNL     1      -0.786  24.963  11.287  1.00  0.00     0.168 HD
HETATM   44  N6  UNL     1      -0.556  23.621  14.181  1.00  0.00    -0.320 N 
HETATM   45  S1  UNL     1       0.997  23.290  13.630  1.00  0.00     0.024 SA
ATOM     46  H6  UNL     1      -0.974  23.383  15.081  1.00  0.00     0.175 HD
ENDBRANCH  38  40
ENDBRANCH  35  36
ENDBRANCH   4  35
BRANCH   5  47
HETATM   47  C13 UNL     1       4.451  20.355  12.930  1.00  0.00     0.284 C 
HETATM   48  N7  UNL     1       5.623  20.117  12.123  1.00  0.00    -0.056 NA
HETATM   49  O4  UNL     1       4.654  20.871  14.054  1.00  0.00    -0.269 OA
ENDBRANCH   5  47
BRANCH  10  50
HETATM   50  O6  UNL     1       0.692  15.379  14.009  1.00  0.00    -0.346 OA
ATOM     51  H6  UNL     1      -0.257  15.348  13.970  1.00  0.00     0.219 HD
ENDBRANCH  10  50
TORSDOF 15
ENDMDL
