MODEL 1
REMARK VINA RESULT: -8.138013733      0.000      0.000
REMARK  11 active torsions:
REMARK  status: ('A' for Active; 'I' for Inactive)
REMARK    1  A    between atoms: C2_2  and  C3_3 
REMARK    2  A    between atoms: C3_3  and  O1_4 
REMARK    3  A    between atoms: C4_9  and  N2_10 
REMARK    4  A    between atoms: C7_15  and  N4_16 
REMARK    5  A    between atoms: N6_22  and  N7_24 
REMARK    6  A    between atoms: N7_24  and  C9_26 
REMARK    7  A    between atoms: C12_34  and  S1_35 
REMARK    8  A    between atoms: S1_35  and  C13_36 
REMARK    9  A    between atoms: C13_36  and  C14_37 
REMARK   10  A    between atoms: C14_37  and  S2_38 
REMARK   11  A    between atoms: N13_46  and  N14_47 
ROOT
HETATM    1  C9  UNL     1       3.952  18.038  13.217  1.00  0.00     0.207 C 
HETATM    2  N8  UNL     1       3.828  19.070  12.485  1.00  0.00    -0.289 N 
ATOM      3  H8  UNL     1       2.920  19.245  12.054  1.00  0.00     0.178 HD
HETATM    4  C10 UNL     1       4.854  19.974  12.238  1.00  0.00     0.182 C 
HETATM    5  N9  UNL     1       5.701  20.748  12.037  1.00  0.00    -0.172 NA
ENDROOT
BRANCH   1   6
HETATM    6  N7  UNL     1       2.866  17.154  13.429  1.00  0.00    -0.281 N 
ATOM      7  H7  UNL     1       3.008  16.153  13.297  1.00  0.00     0.188 HD
BRANCH   6   8
HETATM    8  N6  UNL     1       1.608  17.613  13.813  1.00  0.00    -0.131 N 
HETATM    9  C8  UNL     1       0.652  17.557  12.938  1.00  0.00     0.700 A 
HETATM   10  N5  UNL     1       0.877  17.071  11.701  1.00  0.00    -0.173 N 
HETATM   11  N10 UNL     1      -0.568  17.995  13.290  1.00  0.00    -0.172 N 
HETATM   12  C7  UNL     1      -0.085  16.995  10.764  1.00  0.00     0.145 A 
ATOM     13  H5  UNL     1       1.815  16.747  11.466  1.00  0.00     0.186 HD
HETATM   14  C6  UNL     1      -1.347  17.456  11.149  1.00  0.00     0.123 A 
HETATM   15  N3  UNL     1      -2.494  17.513  10.457  1.00  0.00    -0.346 N 
HETATM   16  C11 UNL     1      -1.601  17.956  12.406  1.00  0.00     0.156 A 
HETATM   17  C5  UNL     1      -3.425  18.033  11.264  1.00  0.00     0.187 A 
ATOM     18  H3  UNL     1      -2.631  17.215   9.492  1.00  0.00     0.167 HD
HETATM   19  N2  UNL     1      -2.889  18.309  12.462  1.00  0.00    -0.296 N 
ATOM     20  H10 UNL     1      -0.722  18.361  14.230  1.00  0.00     0.186 HD
ATOM     21  H6  UNL     1       1.444  17.981  14.750  1.00  0.00     0.205 HD
BRANCH  12  22
HETATM   22  N4  UNL     1       0.113  16.534   9.577  1.00  0.00    -0.383 N 
ATOM     23  H42 UNL     1      -0.528  16.688   8.799  1.00  0.00     0.157 HD
ATOM     24  H41 UNL     1       0.943  15.981   9.366  1.00  0.00     0.157 HD
ENDBRANCH  12  22
BRANCH  19  25
HETATM   25  C4  UNL     1      -3.496  18.870  13.638  1.00  0.00     0.312 C 
HETATM   26  N1  UNL     1      -4.308  17.904  14.353  1.00  0.00    -0.018 N 
HETATM   27  C2  UNL     1      -5.064  18.561  15.414  1.00  0.00     0.246 C 
ATOM     28  H12 UNL     1      -3.750  17.128  14.709  1.00  0.00     0.283 HD
ATOM     29  H11 UNL     1      -4.915  17.377  13.725  1.00  0.00     0.283 HD
HETATM   30  C1  UNL     1      -6.550  18.537  15.167  1.00  0.00     0.081 C 
HETATM   31  O2  UNL     1      -4.641  19.839  15.636  1.00  0.00    -0.352 OA
HETATM   32  C19 UNL     1      -4.737  20.726  14.598  1.00  0.00     0.190 C 
HETATM   33  C12 UNL     1      -4.360  20.078  13.293  1.00  0.00     0.122 C 
BRANCH  27  34
HETATM   34  C3  UNL     1      -4.730  17.771  16.690  1.00  0.00     0.232 C 
BRANCH  34  35
HETATM   35  O1  UNL     1      -3.420  18.093  17.068  1.00  0.00    -0.396 OA
ATOM     36  H1  UNL     1      -3.317  17.874  17.987  1.00  0.00     0.209 HD
ENDBRANCH  34  35
ENDBRANCH  27  34
BRANCH  33  37
HETATM   37  S1  UNL     1      -3.447  21.226  12.272  1.00  0.00    -0.157 SA
BRANCH  37  38
HETATM   38  C13 UNL     1      -1.702  21.365  12.615  1.00  0.00     0.085 C 
BRANCH  38  39
HETATM   39  C14 UNL     1      -0.971  21.955  11.465  1.00  0.00     0.098 C 
BRANCH  39  40
HETATM   40  S2  UNL     1       0.651  21.243  11.254  1.00  0.00    -0.079 SA
HETATM   41  N11 UNL     1       1.589  21.455  12.725  1.00  0.00    -0.178 NA
HETATM   42  C15 UNL     1       1.986  22.812  12.572  1.00  0.00     0.184 C 
HETATM   43  C16 UNL     1       2.254  23.133  11.177  1.00  0.00     0.083 A 
HETATM   44  C17 UNL     1       1.578  22.353  10.269  1.00  0.00     0.102 A 
HETATM   45  N13 UNL     1       2.984  23.996  10.445  1.00  0.00    -0.258 N 
HETATM   46  N12 UNL     1       1.872  22.711   9.039  1.00  0.00    -0.343 N 
HETATM   47  C18 UNL     1       2.750  23.738   9.148  1.00  0.00     0.207 A 
ATOM     48  H12 UNL     1       1.513  22.300   8.177  1.00  0.00     0.167 HD
BRANCH  45  49
HETATM   49  N14 UNL     1       3.852  25.009  10.865  1.00  0.00    -0.338 N 
ATOM     50 2H14 UNL     1       3.695  25.545  11.718  1.00  0.00     0.177 HD
ATOM     51 1H14 UNL     1       4.710  25.351  10.432  1.00  0.00     0.177 HD
ENDBRANCH  45  49
ENDBRANCH  39  40
ENDBRANCH  38  39
ENDBRANCH  37  38
ENDBRANCH  33  37
ENDBRANCH  19  25
ENDBRANCH   6   8
ENDBRANCH   1   6
TORSDOF 11
ENDMDL
MODEL 2
REMARK VINA RESULT: -7.699830780      1.448      1.939
REMARK  11 active torsions:
REMARK  status: ('A' for Active; 'I' for Inactive)
REMARK    1  A    between atoms: C2_2  and  C3_3 
REMARK    2  A    between atoms: C3_3  and  O1_4 
REMARK    3  A    between atoms: C4_9  and  N2_10 
REMARK    4  A    between atoms: C7_15  and  N4_16 
REMARK    5  A    between atoms: N6_22  and  N7_24 
REMARK    6  A    between atoms: N7_24  and  C9_26 
REMARK    7  A    between atoms: C12_34  and  S1_35 
REMARK    8  A    between atoms: S1_35  and  C13_36 
REMARK    9  A    between atoms: C13_36  and  C14_37 
REMARK   10  A    between atoms: C14_37  and  S2_38 
REMARK   11  A    between atoms: N13_46  and  N14_47 
ROOT
HETATM    1  C9  UNL     1       3.537  17.322  13.525  1.00  0.00     0.207 C 
HETATM    2  N8  UNL     1       3.791  17.642  12.321  1.00  0.00    -0.289 N 
ATOM      3  H8  UNL     1       3.056  17.513  11.625  1.00  0.00     0.178 HD
HETATM    4  C10 UNL     1       5.010  18.156  11.896  1.00  0.00     0.182 C 
HETATM    5  N9  UNL     1       6.022  18.603  11.530  1.00  0.00    -0.172 NA
ENDROOT
BRANCH   1   6
HETATM    6  N7  UNL     1       2.272  16.801  13.894  1.00  0.00    -0.281 N 
ATOM      7  H7  UNL     1       2.181  15.801  14.073  1.00  0.00     0.188 HD
BRANCH   6   8
HETATM    8  N6  UNL     1       1.149  17.616  14.019  1.00  0.00    -0.131 N 
HETATM    9  C8  UNL     1       0.288  17.611  13.050  1.00  0.00     0.700 A 
HETATM   10  N5  UNL     1       0.481  16.841  11.960  1.00  0.00    -0.173 N 
HETATM   11  N10 UNL     1      -0.801  18.390  13.154  1.00  0.00    -0.172 N 
HETATM   12  C7  UNL     1      -0.385  16.807  10.932  1.00  0.00     0.145 A 
ATOM     13  H5  UNL     1       1.319  16.262  11.913  1.00  0.00     0.186 HD
HETATM   14  C6  UNL     1      -1.512  17.624  11.058  1.00  0.00     0.123 A 
HETATM   15  N3  UNL     1      -2.542  17.811  10.222  1.00  0.00    -0.346 N 
HETATM   16  C11 UNL     1      -1.731  18.418  12.161  1.00  0.00     0.156 A 
HETATM   17  C5  UNL     1      -3.371  18.692  10.793  1.00  0.00     0.187 A 
ATOM     18  H3  UNL     1      -2.672  17.361   9.315  1.00  0.00     0.167 HD
HETATM   19  N2  UNL     1      -2.882  19.072  11.983  1.00  0.00    -0.296 N 
ATOM     20  H10 UNL     1      -0.932  18.967  13.985  1.00  0.00     0.186 HD
ATOM     21  H6  UNL     1       1.009  18.196  14.847  1.00  0.00     0.205 HD
BRANCH  12  22
HETATM   22  N4  UNL     1      -0.216  16.078   9.883  1.00  0.00    -0.383 N 
ATOM     23  H42 UNL     1      -0.760  16.188   9.027  1.00  0.00     0.157 HD
ATOM     24  H41 UNL     1       0.490  15.342   9.869  1.00  0.00     0.157 HD
ENDBRANCH  12  22
BRANCH  19  25
HETATM   25  C4  UNL     1      -3.419  19.990  12.949  1.00  0.00     0.312 C 
HETATM   26  N1  UNL     1      -4.797  19.690  13.290  1.00  0.00    -0.018 N 
HETATM   27  C2  UNL     1      -5.362  20.757  14.109  1.00  0.00     0.246 C 
ATOM     28  H12 UNL     1      -4.886  18.778  13.739  1.00  0.00     0.283 HD
ATOM     29  H11 UNL     1      -5.362  19.506  12.461  1.00  0.00     0.283 HD
HETATM   30  C1  UNL     1      -6.465  21.505  13.406  1.00  0.00     0.081 C 
HETATM   31  O2  UNL     1      -4.411  21.626  14.556  1.00  0.00    -0.352 OA
HETATM   32  C19 UNL     1      -3.688  22.312  13.618  1.00  0.00     0.190 C 
HETATM   33  C12 UNL     1      -3.340  21.429  12.450  1.00  0.00     0.122 C 
BRANCH  27  34
HETATM   34  C3  UNL     1      -5.919  20.050  15.356  1.00  0.00     0.232 C 
BRANCH  34  35
HETATM   35  O1  UNL     1      -4.882  19.945  16.293  1.00  0.00    -0.396 OA
ATOM     36  H1  UNL     1      -5.000  19.132  16.770  1.00  0.00     0.209 HD
ENDBRANCH  34  35
ENDBRANCH  27  34
BRANCH  33  37
HETATM   37  S1  UNL     1      -1.691  21.797  11.867  1.00  0.00    -0.157 SA
BRANCH  37  38
HETATM   38  C13 UNL     1      -0.828  23.100  12.724  1.00  0.00     0.085 C 
BRANCH  38  39
HETATM   39  C14 UNL     1       0.227  23.703  11.869  1.00  0.00     0.098 C 
BRANCH  39  40
HETATM   40  S2  UNL     1       1.593  22.591  11.591  1.00  0.00    -0.079 SA
HETATM   41  N11 UNL     1       3.096  23.499  11.525  1.00  0.00    -0.178 NA
HETATM   42  C15 UNL     1       3.023  24.002  10.197  1.00  0.00     0.184 C 
HETATM   43  C16 UNL     1       2.416  23.032   9.295  1.00  0.00     0.083 A 
HETATM   44  C17 UNL     1       1.560  22.143   9.900  1.00  0.00     0.102 A 
HETATM   45  N13 UNL     1       2.416  22.707   7.988  1.00  0.00    -0.258 N 
HETATM   46  N12 UNL     1       1.055  21.311   9.018  1.00  0.00    -0.343 N 
HETATM   47  C18 UNL     1       1.588  21.662   7.822  1.00  0.00     0.207 A 
ATOM     48  H12 UNL     1       0.394  20.553   9.196  1.00  0.00     0.167 HD
BRANCH  45  49
HETATM   49  N14 UNL     1       3.111  23.290   6.924  1.00  0.00    -0.338 N 
ATOM     50 2H14 UNL     1       3.672  24.135   7.034  1.00  0.00     0.177 HD
ATOM     51 1H14 UNL     1       3.174  22.996   5.949  1.00  0.00     0.177 HD
ENDBRANCH  45  49
ENDBRANCH  39  40
ENDBRANCH  38  39
ENDBRANCH  37  38
ENDBRANCH  33  37
ENDBRANCH  19  25
ENDBRANCH   6   8
ENDBRANCH   1   6
TORSDOF 11
ENDMDL
MODEL 3
REMARK VINA RESULT: -7.642289503      2.643      4.062
REMARK  11 active torsions:
REMARK  status: ('A' for Active; 'I' for Inactive)
REMARK    1  A    between atoms: C2_2  and  C3_3 
REMARK    2  A    between atoms: C3_3  and  O1_4 
REMARK    3  A    between atoms: C4_9  and  N2_10 
REMARK    4  A    between atoms: C7_15  and  N4_16 
REMARK    5  A    between atoms: N6_22  and  N7_24 
REMARK    6  A    between atoms: N7_24  and  C9_26 
REMARK    7  A    between atoms: C12_34  and  S1_35 
REMARK    8  A    between atoms: S1_35  and  C13_36 
REMARK    9  A    between atoms: C13_36  and  C14_37 
REMARK   10  A    between atoms: C14_37  and  S2_38 
REMARK   11  A    between atoms: N13_46  and  N14_47 
ROOT
HETATM    1  C9  UNL     1       3.727  18.176  13.444  1.00  0.00     0.207 C 
HETATM    2  N8  UNL     1       3.794  19.019  12.495  1.00  0.00    -0.289 N 
ATOM      3  H8  UNL     1       3.035  19.036  11.814  1.00  0.00     0.178 HD
HETATM    4  C10 UNL     1       4.840  19.918  12.329  1.00  0.00     0.182 C 
HETATM    5  N9  UNL     1       5.704  20.688  12.188  1.00  0.00    -0.172 NA
ENDROOT
BRANCH   1   6
HETATM    6  N7  UNL     1       2.632  17.285  13.557  1.00  0.00    -0.281 N 
ATOM      7  H7  UNL     1       2.606  16.628  14.337  1.00  0.00     0.188 HD
BRANCH   6   8
HETATM    8  N6  UNL     1       1.590  17.278  12.633  1.00  0.00    -0.131 N 
HETATM    9  C8  UNL     1       0.377  17.343  13.089  1.00  0.00     0.700 A 
HETATM   10  N5  UNL     1       0.142  17.413  14.415  1.00  0.00    -0.173 N 
HETATM   11  N10 UNL     1      -0.640  17.339  12.212  1.00  0.00    -0.172 N 
HETATM   12  C7  UNL     1      -1.098  17.482  14.930  1.00  0.00     0.145 A 
ATOM     13  H5  UNL     1       0.938  17.414  15.053  1.00  0.00     0.186 HD
HETATM   14  C6  UNL     1      -2.143  17.476  14.003  1.00  0.00     0.123 A 
HETATM   15  N3  UNL     1      -3.469  17.532  14.195  1.00  0.00    -0.346 N 
HETATM   16  C11 UNL     1      -1.929  17.406  12.645  1.00  0.00     0.156 A 
HETATM   17  C5  UNL     1      -4.052  17.498  12.991  1.00  0.00     0.187 A 
ATOM     18  H3  UNL     1      -3.946  17.591  15.094  1.00  0.00     0.167 HD
HETATM   19  N2  UNL     1      -3.116  17.420  12.033  1.00  0.00    -0.296 N 
ATOM     20  H10 UNL     1      -0.446  17.285  11.213  1.00  0.00     0.186 HD
ATOM     21  H6  UNL     1       1.774  17.225  11.631  1.00  0.00     0.205 HD
BRANCH  12  22
HETATM   22  N4  UNL     1      -1.340  17.548  16.194  1.00  0.00    -0.383 N 
ATOM     23  H42 UNL     1      -2.277  17.477  16.593  1.00  0.00     0.157 HD
ATOM     24  H41 UNL     1      -0.582  17.680  16.863  1.00  0.00     0.157 HD
ENDBRANCH  12  22
BRANCH  19  25
HETATM   25  C4  UNL     1      -3.261  17.362  10.605  1.00  0.00     0.312 C 
HETATM   26  N1  UNL     1      -2.725  16.136  10.045  1.00  0.00    -0.018 N 
HETATM   27  C2  UNL     1      -2.707  16.208   8.588  1.00  0.00     0.246 C 
ATOM     28  H12 UNL     1      -3.229  15.314  10.378  1.00  0.00     0.283 HD
ATOM     29  H11 UNL     1      -1.806  15.914  10.426  1.00  0.00     0.283 HD
HETATM   30  C1  UNL     1      -1.309  16.216   8.025  1.00  0.00     0.081 C 
HETATM   31  O2  UNL     1      -3.414  17.272   8.112  1.00  0.00    -0.352 OA
HETATM   32  C19 UNL     1      -3.003  18.523   8.485  1.00  0.00     0.190 C 
HETATM   33  C12 UNL     1      -2.582  18.548   9.929  1.00  0.00     0.122 C 
BRANCH  27  34
HETATM   34  C3  UNL     1      -3.455  14.950   8.117  1.00  0.00     0.232 C 
BRANCH  34  35
HETATM   35  O1  UNL     1      -2.623  14.259   7.226  1.00  0.00    -0.396 OA
ATOM     36  H1  UNL     1      -2.887  14.487   6.342  1.00  0.00     0.209 HD
ENDBRANCH  34  35
ENDBRANCH  27  34
BRANCH  33  37
HETATM   37  S1  UNL     1      -3.093  20.079  10.697  1.00  0.00    -0.157 SA
BRANCH  37  38
HETATM   38  C13 UNL     1      -1.974  20.762  11.905  1.00  0.00     0.085 C 
BRANCH  38  39
HETATM   39  C14 UNL     1      -1.037  21.734  11.286  1.00  0.00     0.098 C 
BRANCH  39  40
HETATM   40  S2  UNL     1       0.606  21.067  11.096  1.00  0.00    -0.079 SA
HETATM   41  N11 UNL     1       1.514  21.287  12.585  1.00  0.00    -0.178 NA
HETATM   42  C15 UNL     1       1.877  22.655  12.453  1.00  0.00     0.184 C 
HETATM   43  C16 UNL     1       2.161  22.998  11.066  1.00  0.00     0.083 A 
HETATM   44  C17 UNL     1       1.521  22.210  10.138  1.00  0.00     0.102 A 
HETATM   45  N13 UNL     1       2.881  23.887  10.356  1.00  0.00    -0.258 N 
HETATM   46  N12 UNL     1       1.827  22.589   8.918  1.00  0.00    -0.343 N 
HETATM   47  C18 UNL     1       2.676  23.637   9.052  1.00  0.00     0.207 A 
ATOM     48  H12 UNL     1       1.493  22.178   8.046  1.00  0.00     0.167 HD
BRANCH  45  49
HETATM   49  N14 UNL     1       3.715  24.918  10.801  1.00  0.00    -0.338 N 
ATOM     50 2H14 UNL     1       4.512  24.750  11.414  1.00  0.00     0.177 HD
ATOM     51 1H14 UNL     1       3.674  25.918  10.606  1.00  0.00     0.177 HD
ENDBRANCH  45  49
ENDBRANCH  39  40
ENDBRANCH  38  39
ENDBRANCH  37  38
ENDBRANCH  33  37
ENDBRANCH  19  25
ENDBRANCH   6   8
ENDBRANCH   1   6
TORSDOF 11
ENDMDL
MODEL 4
REMARK VINA RESULT: -7.508879906      1.200      1.616
REMARK  11 active torsions:
REMARK  status: ('A' for Active; 'I' for Inactive)
REMARK    1  A    between atoms: C2_2  and  C3_3 
REMARK    2  A    between atoms: C3_3  and  O1_4 
REMARK    3  A    between atoms: C4_9  and  N2_10 
REMARK    4  A    between atoms: C7_15  and  N4_16 
REMARK    5  A    between atoms: N6_22  and  N7_24 
REMARK    6  A    between atoms: N7_24  and  C9_26 
REMARK    7  A    between atoms: C12_34  and  S1_35 
REMARK    8  A    between atoms: S1_35  and  C13_36 
REMARK    9  A    between atoms: C13_36  and  C14_37 
REMARK   10  A    between atoms: C14_37  and  S2_38 
REMARK   11  A    between atoms: N13_46  and  N14_47 
ROOT
HETATM    1  C9  UNL     1       3.575  17.930  13.532  1.00  0.00     0.207 C 
HETATM    2  N8  UNL     1       3.710  18.685  12.518  1.00  0.00    -0.289 N 
ATOM      3  H8  UNL     1       2.992  18.647  11.793  1.00  0.00     0.178 HD
HETATM    4  C10 UNL     1       4.776  19.558  12.337  1.00  0.00     0.182 C 
HETATM    5  N9  UNL     1       5.656  20.305  12.181  1.00  0.00    -0.172 NA
ENDROOT
BRANCH   1   6
HETATM    6  N7  UNL     1       2.463  17.061  13.657  1.00  0.00    -0.281 N 
ATOM      7  H7  UNL     1       2.585  16.069  13.453  1.00  0.00     0.188 HD
BRANCH   6   8
HETATM    8  N6  UNL     1       1.209  17.522  14.050  1.00  0.00    -0.131 N 
HETATM    9  C8  UNL     1       0.266  17.541  13.160  1.00  0.00     0.700 A 
HETATM   10  N5  UNL     1       0.501  17.127  11.898  1.00  0.00    -0.173 N 
HETATM   11  N10 UNL     1      -0.950  17.982  13.521  1.00  0.00    -0.172 N 
HETATM   12  C7  UNL     1      -0.447  17.130  10.944  1.00  0.00     0.145 A 
ATOM     13  H5  UNL     1       1.436  16.798  11.657  1.00  0.00     0.186 HD
HETATM   14  C6  UNL     1      -1.706  17.593  11.339  1.00  0.00     0.123 A 
HETATM   15  N3  UNL     1      -2.840  17.717  10.636  1.00  0.00    -0.346 N 
HETATM   16  C11 UNL     1      -1.969  18.020  12.620  1.00  0.00     0.156 A 
HETATM   17  C5  UNL     1      -3.773  18.206  11.460  1.00  0.00     0.187 A 
ATOM     18  H3  UNL     1      -2.968  17.482   9.651  1.00  0.00     0.167 HD
HETATM   19  N2  UNL     1      -3.250  18.396  12.680  1.00  0.00    -0.296 N 
ATOM     20  H10 UNL     1      -1.111  18.292  14.479  1.00  0.00     0.186 HD
ATOM     21  H6  UNL     1       1.038  17.835  15.006  1.00  0.00     0.205 HD
BRANCH  12  22
HETATM   22  N4  UNL     1      -0.240  16.739   9.734  1.00  0.00    -0.383 N 
ATOM     23  H42 UNL     1      -0.968  16.706   9.020  1.00  0.00     0.157 HD
ATOM     24  H41 UNL     1       0.687  16.437   9.436  1.00  0.00     0.157 HD
ENDBRANCH  12  22
BRANCH  19  25
HETATM   25  C4  UNL     1      -3.864  18.896  13.879  1.00  0.00     0.312 C 
HETATM   26  N1  UNL     1      -4.728  17.914  14.507  1.00  0.00    -0.018 N 
HETATM   27  C2  UNL     1      -5.484  18.524  15.595  1.00  0.00     0.246 C 
ATOM     28  H12 UNL     1      -4.207  17.094  14.819  1.00  0.00     0.283 HD
ATOM     29  H11 UNL     1      -5.338  17.456  13.830  1.00  0.00     0.283 HD
HETATM   30  C1  UNL     1      -6.964  18.574  15.317  1.00  0.00     0.081 C 
HETATM   31  O2  UNL     1      -5.021  19.766  15.916  1.00  0.00    -0.352 OA
HETATM   32  C19 UNL     1      -5.059  20.726  14.942  1.00  0.00     0.190 C 
HETATM   33  C12 UNL     1      -4.675  20.157  13.603  1.00  0.00     0.122 C 
BRANCH  27  34
HETATM   34  C3  UNL     1      -5.210  17.634  16.819  1.00  0.00     0.232 C 
BRANCH  34  35
HETATM   35  O1  UNL     1      -4.032  18.087  17.428  1.00  0.00    -0.396 OA
ATOM     36  H1  UNL     1      -3.453  18.406  16.746  1.00  0.00     0.209 HD
ENDBRANCH  34  35
ENDBRANCH  27  34
BRANCH  33  37
HETATM   37  S1  UNL     1      -3.696  21.338  12.686  1.00  0.00    -0.157 SA
BRANCH  37  38
HETATM   38  C13 UNL     1      -2.792  22.530  13.656  1.00  0.00     0.085 C 
BRANCH  38  39
HETATM   39  C14 UNL     1      -1.422  22.047  13.966  1.00  0.00     0.098 C 
BRANCH  39  40
HETATM   40  S2  UNL     1      -0.213  23.358  13.915  1.00  0.00    -0.079 SA
HETATM   41  N11 UNL     1      -0.788  24.658  12.881  1.00  0.00    -0.178 NA
HETATM   42  C15 UNL     1      -0.487  24.110  11.604  1.00  0.00     0.184 C 
HETATM   43  C16 UNL     1       0.754  23.347  11.632  1.00  0.00     0.083 A 
HETATM   44  C17 UNL     1       1.080  22.827  12.862  1.00  0.00     0.102 A 
HETATM   45  N13 UNL     1       1.737  22.960  10.799  1.00  0.00    -0.258 N 
HETATM   46  N12 UNL     1       2.206  22.153  12.797  1.00  0.00    -0.343 N 
HETATM   47  C18 UNL     1       2.618  22.234  11.508  1.00  0.00     0.207 A 
ATOM     48  H12 UNL     1       2.675  21.667  13.561  1.00  0.00     0.167 HD
BRANCH  45  49
HETATM   49  N14 UNL     1       1.901  23.212   9.433  1.00  0.00    -0.338 N 
ATOM     50 2H14 UNL     1       1.137  23.117   8.763  1.00  0.00     0.177 HD
ATOM     51 1H14 UNL     1       2.732  23.508   8.921  1.00  0.00     0.177 HD
ENDBRANCH  45  49
ENDBRANCH  39  40
ENDBRANCH  38  39
ENDBRANCH  37  38
ENDBRANCH  33  37
ENDBRANCH  19  25
ENDBRANCH   6   8
ENDBRANCH   1   6
TORSDOF 11
ENDMDL
MODEL 5
REMARK VINA RESULT: -7.318247644      3.352      7.163
REMARK  11 active torsions:
REMARK  status: ('A' for Active; 'I' for Inactive)
REMARK    1  A    between atoms: C2_2  and  C3_3 
REMARK    2  A    between atoms: C3_3  and  O1_4 
REMARK    3  A    between atoms: C4_9  and  N2_10 
REMARK    4  A    between atoms: C7_15  and  N4_16 
REMARK    5  A    between atoms: N6_22  and  N7_24 
REMARK    6  A    between atoms: N7_24  and  C9_26 
REMARK    7  A    between atoms: C12_34  and  S1_35 
REMARK    8  A    between atoms: S1_35  and  C13_36 
REMARK    9  A    between atoms: C13_36  and  C14_37 
REMARK   10  A    between atoms: C14_37  and  S2_38 
REMARK   11  A    between atoms: N13_46  and  N14_47 
ROOT
HETATM    1  C9  UNL     1      -3.294  18.103  16.354  1.00  0.00     0.207 C 
HETATM    2  N8  UNL     1      -4.403  17.574  16.681  1.00  0.00    -0.289 N 
ATOM      3  H8  UNL     1      -4.413  16.576  16.896  1.00  0.00     0.178 HD
HETATM    4  C10 UNL     1      -5.601  18.272  16.765  1.00  0.00     0.182 C 
HETATM    5  N9  UNL     1      -6.609  18.850  16.854  1.00  0.00    -0.172 NA
ENDROOT
BRANCH   1   6
HETATM    6  N7  UNL     1      -2.106  17.334  16.287  1.00  0.00    -0.281 N 
ATOM      7  H7  UNL     1      -2.053  16.457  16.805  1.00  0.00     0.188 HD
BRANCH   6   8
HETATM    8  N6  UNL     1      -1.007  17.742  15.534  1.00  0.00    -0.131 N 
HETATM    9  C8  UNL     1      -1.051  17.557  14.251  1.00  0.00     0.700 A 
HETATM   10  N5  UNL     1      -2.128  16.986  13.673  1.00  0.00    -0.173 N 
HETATM   11  N10 UNL     1      -0.001  17.944  13.509  1.00  0.00    -0.172 N 
HETATM   12  C7  UNL     1      -2.215  16.775  12.349  1.00  0.00     0.145 A 
ATOM     13  H5  UNL     1      -2.908  16.703  14.266  1.00  0.00     0.186 HD
HETATM   14  C6  UNL     1      -1.112  17.185  11.593  1.00  0.00     0.123 A 
HETATM   15  N3  UNL     1      -0.895  17.114  10.273  1.00  0.00    -0.346 N 
HETATM   16  C11 UNL     1      -0.002  17.770  12.160  1.00  0.00     0.156 A 
HETATM   17  C5  UNL     1       0.312  17.640  10.034  1.00  0.00     0.187 A 
ATOM     18  H3  UNL     1      -1.534  16.730   9.576  1.00  0.00     0.167 HD
HETATM   19  N2  UNL     1       0.869  18.045  11.185  1.00  0.00    -0.296 N 
ATOM     20  H10 UNL     1       0.806  18.374  13.962  1.00  0.00     0.186 HD
ATOM     21  H6  UNL     1      -0.195  18.173  15.977  1.00  0.00     0.205 HD
BRANCH  12  22
HETATM   22  N4  UNL     1      -3.235  16.231  11.780  1.00  0.00    -0.383 N 
ATOM     23  H42 UNL     1      -4.106  16.728  11.590  1.00  0.00     0.157 HD
ATOM     24  H41 UNL     1      -3.210  15.253  11.492  1.00  0.00     0.157 HD
ENDBRANCH  12  22
BRANCH  19  25
HETATM   25  C4  UNL     1       2.142  18.666  11.425  1.00  0.00     0.312 C 
HETATM   26  N1  UNL     1       2.990  17.869  12.291  1.00  0.00    -0.018 N 
HETATM   27  C2  UNL     1       4.179  18.623  12.672  1.00  0.00     0.246 C 
ATOM     28  H12 UNL     1       3.228  16.972  11.868  1.00  0.00     0.283 HD
ATOM     29  H11 UNL     1       2.483  17.522  13.105  1.00  0.00     0.283 HD
HETATM   30  C1  UNL     1       4.218  18.941  14.144  1.00  0.00     0.081 C 
HETATM   31  O2  UNL     1       4.328  19.762  11.938  1.00  0.00    -0.352 OA
HETATM   32  C19 UNL     1       3.334  20.700  12.017  1.00  0.00     0.190 C 
HETATM   33  C12 UNL     1       1.977  20.051  12.040  1.00  0.00     0.122 C 
BRANCH  27  34
HETATM   34  C3  UNL     1       5.364  17.715  12.299  1.00  0.00     0.232 C 
BRANCH  34  35
HETATM   35  O1  UNL     1       5.848  18.127  11.051  1.00  0.00    -0.396 OA
ATOM     36  H1  UNL     1       6.795  18.046  11.063  1.00  0.00     0.209 HD
ENDBRANCH  34  35
ENDBRANCH  27  34
BRANCH  33  37
HETATM   37  S1  UNL     1       0.811  21.019  11.092  1.00  0.00    -0.157 SA
BRANCH  37  38
HETATM   38  C13 UNL     1       0.237  22.525  11.855  1.00  0.00     0.085 C 
BRANCH  38  39
HETATM   39  C14 UNL     1      -1.231  22.492  12.079  1.00  0.00     0.098 C 
BRANCH  39  40
HETATM   40  S2  UNL     1      -1.810  20.872  12.549  1.00  0.00    -0.079 SA
HETATM   41  N11 UNL     1      -2.610  20.106  11.184  1.00  0.00    -0.178 NA
HETATM   42  C15 UNL     1      -3.874  20.754  11.243  1.00  0.00     0.184 C 
HETATM   43  C16 UNL     1      -4.285  20.992  12.620  1.00  0.00     0.083 A 
HETATM   44  C17 UNL     1      -3.250  21.098  13.518  1.00  0.00     0.102 A 
HETATM   45  N13 UNL     1      -5.411  21.157  13.340  1.00  0.00    -0.258 N 
HETATM   46  N12 UNL     1      -3.707  21.317  14.730  1.00  0.00    -0.343 N 
HETATM   47  C18 UNL     1      -5.057  21.354  14.621  1.00  0.00     0.207 A 
ATOM     48  H12 UNL     1      -3.157  21.435  15.581  1.00  0.00     0.167 HD
BRANCH  45  49
HETATM   49  N14 UNL     1      -6.746  21.144  12.924  1.00  0.00    -0.338 N 
ATOM     50 2H14 UNL     1      -7.269  20.278  12.788  1.00  0.00     0.177 HD
ATOM     51 1H14 UNL     1      -7.368  21.923  12.707  1.00  0.00     0.177 HD
ENDBRANCH  45  49
ENDBRANCH  39  40
ENDBRANCH  38  39
ENDBRANCH  37  38
ENDBRANCH  33  37
ENDBRANCH  19  25
ENDBRANCH   6   8
ENDBRANCH   1   6
TORSDOF 11
ENDMDL
