MODEL 1
REMARK VINA RESULT: -7.673776877      0.000      0.000
REMARK  5 active torsions:
REMARK  status: ('A' for Active; 'I' for Inactive)
REMARK    1  A    between atoms: C3_8  and  C4_9 
REMARK    2  A    between atoms: C4_9  and  C5_10 
REMARK    3  A    between atoms: N3_13  and  C8_14 
REMARK    4  A    between atoms: C8_14  and  C9_15 
REMARK    5  A    between atoms: C9_15  and  O2_16 
ROOT
HETATM    1  O1  UNL     1      35.991  11.554  -3.459  1.00  0.00    -0.245 OA
HETATM    2  C1  UNL     1      35.139  11.876  -4.323  1.00  0.00     0.341 A 
HETATM    3  N1  UNL     1      35.528  12.223  -5.564  1.00  0.00    -0.251 N 
ATOM      4  H1  UNL     1      36.519  12.225  -5.804  1.00  0.00     0.191 HD
HETATM    5  N2  UNL     1      34.641  12.556  -6.460  1.00  0.00    -0.292 N 
ATOM      6  H2  UNL     1      34.957  12.814  -7.395  1.00  0.00     0.187 HD
HETATM    7  C2  UNL     1      33.289  12.569  -6.185  1.00  0.00     0.116 A 
HETATM    8  C3  UNL     1      32.376  12.952  -7.239  1.00  0.00     0.039 C 
HETATM    9  C10 UNL     1      32.905  12.219  -4.934  1.00  0.00     0.277 A 
HETATM   10  O3  UNL     1      31.713  12.199  -4.586  1.00  0.00    -0.266 OA
HETATM   11  N5  UNL     1      33.838  11.871  -4.000  1.00  0.00    -0.272 N 
ATOM     12  H5  UNL     1      33.545  11.608  -3.059  1.00  0.00     0.173 HD
ENDROOT
BRANCH   8  13
HETATM   13  C4  UNL     1      31.087  13.042  -7.233  1.00  0.00     0.033 C 
BRANCH  13  14
HETATM   14  C5  UNL     1      30.338  13.774  -8.284  1.00  0.00     0.049 A 
HETATM   15  C6  UNL     1      30.503  15.093  -8.649  1.00  0.00     0.049 A 
HETATM   16  C7  UNL     1      29.614  15.376  -9.662  1.00  0.00     0.112 A 
HETATM   17  N3  UNL     1      28.932  14.266  -9.902  1.00  0.00    -0.301 N 
HETATM   18  N4  UNL     1      29.363  13.305  -9.079  1.00  0.00    -0.299 N 
ATOM     19  H4  UNL     1      29.004  12.350  -9.058  1.00  0.00     0.187 HD
BRANCH  17  20
HETATM   20  C8  UNL     1      27.868  14.037 -10.885  1.00  0.00     0.174 C 
BRANCH  20  21
HETATM   21  C9  UNL     1      27.704  12.523 -10.974  1.00  0.00     0.185 C 
BRANCH  21  22
HETATM   22  O2  UNL     1      26.721  12.169 -10.056  1.00  0.00    -0.399 OA
ATOM     23  H2  UNL     1      26.627  11.225 -10.103  1.00  0.00     0.209 HD
ENDBRANCH  21  22
ENDBRANCH  20  21
ENDBRANCH  17  20
ENDBRANCH  13  14
ENDBRANCH   8  13
TORSDOF 5
ENDMDL
MODEL 2
REMARK VINA RESULT: -7.580712090      1.549      1.913
REMARK  5 active torsions:
REMARK  status: ('A' for Active; 'I' for Inactive)
REMARK    1  A    between atoms: C3_8  and  C4_9 
REMARK    2  A    between atoms: C4_9  and  C5_10 
REMARK    3  A    between atoms: N3_13  and  C8_14 
REMARK    4  A    between atoms: C8_14  and  C9_15 
REMARK    5  A    between atoms: C9_15  and  O2_16 
ROOT
HETATM    1  O1  UNL     1      34.313   9.732  -3.794  1.00  0.00    -0.245 OA
HETATM    2  C1  UNL     1      33.589  10.477  -4.500  1.00  0.00     0.341 A 
HETATM    3  N1  UNL     1      32.258  10.514  -4.303  1.00  0.00    -0.251 N 
ATOM      4  H1  UNL     1      31.835   9.934  -3.579  1.00  0.00     0.191 HD
HETATM    5  N2  UNL     1      31.508  11.289  -5.037  1.00  0.00    -0.292 N 
ATOM      6  H2  UNL     1      30.502  11.303  -4.871  1.00  0.00     0.187 HD
HETATM    7  C2  UNL     1      32.032  12.091  -6.030  1.00  0.00     0.116 A 
HETATM    8  C3  UNL     1      31.126  12.919  -6.794  1.00  0.00     0.039 C 
HETATM    9  C10 UNL     1      33.372  12.048  -6.221  1.00  0.00     0.277 A 
HETATM   10  O3  UNL     1      33.941  12.732  -7.088  1.00  0.00    -0.266 OA
HETATM   11  N5  UNL     1      34.152  11.236  -5.451  1.00  0.00    -0.272 N 
ATOM     12  H5  UNL     1      35.161  11.206  -5.598  1.00  0.00     0.173 HD
ENDROOT
BRANCH   8  13
HETATM   13  C4  UNL     1      31.365  13.743  -7.761  1.00  0.00     0.033 C 
BRANCH  13  14
HETATM   14  C5  UNL     1      30.393  13.985  -8.856  1.00  0.00     0.049 A 
HETATM   15  C6  UNL     1      29.829  15.192  -9.207  1.00  0.00     0.049 A 
HETATM   16  C7  UNL     1      28.984  14.982 -10.274  1.00  0.00     0.112 A 
HETATM   17  N3  UNL     1      29.034  13.688 -10.559  1.00  0.00    -0.301 N 
HETATM   18  N4  UNL     1      29.878  13.089  -9.712  1.00  0.00    -0.299 N 
ATOM     19  H4  UNL     1      30.099  12.093  -9.717  1.00  0.00     0.187 HD
BRANCH  17  20
HETATM   20  C8  UNL     1      28.321  12.952 -11.609  1.00  0.00     0.174 C 
BRANCH  20  21
HETATM   21  C9  UNL     1      27.738  11.719 -10.926  1.00  0.00     0.185 C 
BRANCH  21  22
HETATM   22  O2  UNL     1      26.813  12.174  -9.991  1.00  0.00    -0.399 OA
ATOM     23  H2  UNL     1      25.981  11.771 -10.207  1.00  0.00     0.209 HD
ENDBRANCH  21  22
ENDBRANCH  20  21
ENDBRANCH  17  20
ENDBRANCH  13  14
ENDBRANCH   8  13
TORSDOF 5
ENDMDL
MODEL 3
REMARK VINA RESULT: -7.488730912      1.767      2.108
REMARK  5 active torsions:
REMARK  status: ('A' for Active; 'I' for Inactive)
REMARK    1  A    between atoms: C3_8  and  C4_9 
REMARK    2  A    between atoms: C4_9  and  C5_10 
REMARK    3  A    between atoms: N3_13  and  C8_14 
REMARK    4  A    between atoms: C8_14  and  C9_15 
REMARK    5  A    between atoms: C9_15  and  O2_16 
ROOT
HETATM    1  O1  UNL     1      34.187  10.672  -4.592  1.00  0.00    -0.245 OA
HETATM    2  C1  UNL     1      33.640  11.475  -5.387  1.00  0.00     0.341 A 
HETATM    3  N1  UNL     1      34.375  12.129  -6.306  1.00  0.00    -0.251 N 
ATOM      4  H1  UNL     1      35.381  11.971  -6.357  1.00  0.00     0.191 HD
HETATM    5  N2  UNL     1      33.804  12.962  -7.131  1.00  0.00    -0.292 N 
ATOM      6  H2  UNL     1      34.379  13.445  -7.820  1.00  0.00     0.187 HD
HETATM    7  C2  UNL     1      32.447  13.210  -7.101  1.00  0.00     0.116 A 
HETATM    8  C3  UNL     1      31.899  14.150  -8.054  1.00  0.00     0.039 C 
HETATM    9  C10 UNL     1      31.714  12.549  -6.174  1.00  0.00     0.277 A 
HETATM   10  O3  UNL     1      30.486  12.701  -6.066  1.00  0.00    -0.266 OA
HETATM   11  N5  UNL     1      32.316  11.678  -5.313  1.00  0.00    -0.272 N 
ATOM     12  H5  UNL     1      31.761  11.182  -4.616  1.00  0.00     0.173 HD
ENDROOT
BRANCH   8  13
HETATM   13  C4  UNL     1      30.681  14.546  -8.226  1.00  0.00     0.033 C 
BRANCH  13  14
HETATM   14  C5  UNL     1      29.828  14.032  -9.326  1.00  0.00     0.049 A 
HETATM   15  C6  UNL     1      30.121  12.993 -10.182  1.00  0.00     0.049 A 
HETATM   16  C7  UNL     1      29.065  12.838 -11.053  1.00  0.00     0.112 A 
HETATM   17  N3  UNL     1      28.162  13.754 -10.735  1.00  0.00    -0.301 N 
HETATM   18  N4  UNL     1      28.615  14.470  -9.701  1.00  0.00    -0.299 N 
ATOM     19  H4  UNL     1      28.111  15.239  -9.259  1.00  0.00     0.187 HD
BRANCH  17  20
HETATM   20  C8  UNL     1      26.858  14.011 -11.356  1.00  0.00     0.174 C 
BRANCH  20  21
HETATM   21  C9  UNL     1      27.140  14.224 -12.839  1.00  0.00     0.185 C 
BRANCH  21  22
HETATM   22  O2  UNL     1      26.449  15.370 -13.221  1.00  0.00    -0.399 OA
ATOM     23  H2  UNL     1      27.028  15.864 -13.789  1.00  0.00     0.209 HD
ENDBRANCH  21  22
ENDBRANCH  20  21
ENDBRANCH  17  20
ENDBRANCH  13  14
ENDBRANCH   8  13
TORSDOF 5
ENDMDL
MODEL 4
REMARK VINA RESULT: -7.461230269      1.593      2.027
REMARK  5 active torsions:
REMARK  status: ('A' for Active; 'I' for Inactive)
REMARK    1  A    between atoms: C3_8  and  C4_9 
REMARK    2  A    between atoms: C4_9  and  C5_10 
REMARK    3  A    between atoms: N3_13  and  C8_14 
REMARK    4  A    between atoms: C8_14  and  C9_15 
REMARK    5  A    between atoms: C9_15  and  O2_16 
ROOT
HETATM    1  O1  UNL     1      37.117  12.029  -4.236  1.00  0.00    -0.245 OA
HETATM    2  C1  UNL     1      35.909  12.133  -4.563  1.00  0.00     0.341 A 
HETATM    3  N1  UNL     1      34.983  12.463  -3.644  1.00  0.00    -0.251 N 
ATOM      4  H1  UNL     1      35.263  12.629  -2.677  1.00  0.00     0.191 HD
HETATM    5  N2  UNL     1      33.729  12.571  -3.986  1.00  0.00    -0.292 N 
ATOM      6  H2  UNL     1      33.044  12.823  -3.274  1.00  0.00     0.187 HD
HETATM    7  C2  UNL     1      33.300  12.355  -5.279  1.00  0.00     0.116 A 
HETATM    8  C3  UNL     1      31.891  12.497  -5.569  1.00  0.00     0.039 C 
HETATM    9  C10 UNL     1      34.238  12.024  -6.198  1.00  0.00     0.277 A 
HETATM   10  O3  UNL     1      33.955  11.809  -7.389  1.00  0.00    -0.266 OA
HETATM   11  N5  UNL     1      35.549  11.912  -5.835  1.00  0.00    -0.272 N 
ATOM     12  H5  UNL     1      36.252  11.662  -6.531  1.00  0.00     0.173 HD
ENDROOT
BRANCH   8  13
HETATM   13  C4  UNL     1      31.250  12.350  -6.681  1.00  0.00     0.033 C 
BRANCH  13  14
HETATM   14  C5  UNL     1      31.038  13.472  -7.629  1.00  0.00     0.049 A 
HETATM   15  C6  UNL     1      31.903  14.514  -7.881  1.00  0.00     0.049 A 
HETATM   16  C7  UNL     1      31.328  15.336  -8.825  1.00  0.00     0.112 A 
HETATM   17  N3  UNL     1      30.152  14.809  -9.134  1.00  0.00    -0.301 N 
HETATM   18  N4  UNL     1      29.976  13.692  -8.420  1.00  0.00    -0.299 N 
ATOM     19  H4  UNL     1      29.152  13.093  -8.470  1.00  0.00     0.187 HD
BRANCH  17  20
HETATM   20  C8  UNL     1      29.150  15.298 -10.087  1.00  0.00     0.174 C 
BRANCH  20  21
HETATM   21  C9  UNL     1      28.763  14.091 -10.936  1.00  0.00     0.185 C 
BRANCH  21  22
HETATM   22  O2  UNL     1      29.945  13.547 -11.428  1.00  0.00    -0.399 OA
ATOM     23  H2  UNL     1      29.846  12.603 -11.402  1.00  0.00     0.209 HD
ENDBRANCH  21  22
ENDBRANCH  20  21
ENDBRANCH  17  20
ENDBRANCH  13  14
ENDBRANCH   8  13
TORSDOF 5
ENDMDL
MODEL 5
REMARK VINA RESULT: -7.451968138      1.727      7.395
REMARK  5 active torsions:
REMARK  status: ('A' for Active; 'I' for Inactive)
REMARK    1  A    between atoms: C3_8  and  C4_9 
REMARK    2  A    between atoms: C4_9  and  C5_10 
REMARK    3  A    between atoms: N3_13  and  C8_14 
REMARK    4  A    between atoms: C8_14  and  C9_15 
REMARK    5  A    between atoms: C9_15  and  O2_16 
ROOT
HETATM    1  O1  UNL     1      26.804  12.739 -11.441  1.00  0.00    -0.245 OA
HETATM    2  C1  UNL     1      27.917  12.908 -10.884  1.00  0.00     0.341 A 
HETATM    3  N1  UNL     1      29.044  12.463 -11.470  1.00  0.00    -0.251 N 
ATOM      4  H1  UNL     1      28.995  11.986 -12.370  1.00  0.00     0.191 HD
HETATM    5  N2  UNL     1      30.199  12.639 -10.890  1.00  0.00    -0.292 N 
ATOM      6  H2  UNL     1      31.040  12.295 -11.352  1.00  0.00     0.187 HD
HETATM    7  C2  UNL     1      30.318  13.276  -9.672  1.00  0.00     0.116 A 
HETATM    8  C3  UNL     1      31.638  13.428  -9.102  1.00  0.00     0.039 C 
HETATM    9  C10 UNL     1      29.180  13.721  -9.089  1.00  0.00     0.277 A 
HETATM   10  O3  UNL     1      29.179  14.307  -7.994  1.00  0.00    -0.266 OA
HETATM   11  N5  UNL     1      27.974  13.534  -9.700  1.00  0.00    -0.272 N 
ATOM     12  H5  UNL     1      27.119  13.871  -9.258  1.00  0.00     0.173 HD
ENDROOT
BRANCH   8  13
HETATM   13  C4  UNL     1      32.008  13.978  -7.993  1.00  0.00     0.033 C 
BRANCH  13  14
HETATM   14  C5  UNL     1      32.343  13.182  -6.786  1.00  0.00     0.049 A 
HETATM   15  C6  UNL     1      31.514  12.310  -6.116  1.00  0.00     0.049 A 
HETATM   16  C7  UNL     1      32.211  11.778  -5.053  1.00  0.00     0.112 A 
HETATM   17  N3  UNL     1      33.424  12.313  -5.079  1.00  0.00    -0.301 N 
HETATM   18  N4  UNL     1      33.506  13.153  -6.116  1.00  0.00    -0.299 N 
ATOM     19  H4  UNL     1      34.335  13.695  -6.362  1.00  0.00     0.187 HD
BRANCH  17  20
HETATM   20  C8  UNL     1      34.548  12.079  -4.167  1.00  0.00     0.174 C 
BRANCH  20  21
HETATM   21  C9  UNL     1      35.804  12.159  -5.029  1.00  0.00     0.185 C 
BRANCH  21  22
HETATM   22  O2  UNL     1      36.886  12.257  -4.159  1.00  0.00    -0.399 OA
ATOM     23  H2  UNL     1      37.433  11.496  -4.312  1.00  0.00     0.209 HD
ENDBRANCH  21  22
ENDBRANCH  20  21
ENDBRANCH  17  20
ENDBRANCH  13  14
ENDBRANCH   8  13
TORSDOF 5
ENDMDL
