MODEL 1
REMARK VINA RESULT: -6.298331973      0.000      0.000
REMARK  7 active torsions:
REMARK  status: ('A' for Active; 'I' for Inactive)
REMARK    1  A    between atoms: C1_2  and  C2_4 
REMARK    2  A    between atoms: C2_4  and  C10_12 
REMARK    3  A    between atoms: C3_5  and  C4_6 
REMARK    4  A    between atoms: C10_12  and  N2_13 
REMARK    5  A    between atoms: C10_12  and  C11_17 
REMARK       I    between atoms: C11_17  and  N3_19 
REMARK    6  A    between atoms: N3_19  and  N4_20 
REMARK    7  A    between atoms: N3_19  and  N5_23 
ROOT
HETATM    1  C10 UNL     1      29.339  11.788 -11.280  1.00  0.00     0.316 C 
ENDROOT
BRANCH   1   2
HETATM    2  C2  UNL     1      28.229  12.534 -10.655  1.00  0.00     0.047 C 
HETATM    3  C3  UNL     1      28.400  13.430  -9.733  1.00  0.00     0.026 C 
BRANCH   2   4
HETATM    4  C1  UNL     1      26.847  12.221 -11.073  1.00  0.00     0.263 C 
HETATM    5  N1  UNL     1      25.939  13.280 -11.309  1.00  0.00    -0.057 NA
HETATM    6  O1  UNL     1      26.432  11.048 -11.231  1.00  0.00    -0.271 OA
ENDBRANCH   2   4
BRANCH   3   7
HETATM    7  C4  UNL     1      29.608  13.940  -9.136  1.00  0.00    -0.035 A 
HETATM    8  C5  UNL     1      30.385  13.210  -8.312  1.00  0.00     0.011 A 
HETATM    9  C6  UNL     1      31.539  13.729  -7.737  1.00  0.00     0.001 A 
HETATM   10  C7  UNL     1      31.929  15.027  -7.998  1.00  0.00     0.000 A 
HETATM   11  C8  UNL     1      31.113  15.751  -8.846  1.00  0.00     0.001 A 
HETATM   12  C9  UNL     1      29.973  15.261  -9.424  1.00  0.00     0.011 A 
ENDBRANCH   3   7
ENDBRANCH   1   2
BRANCH   1  13
HETATM   13  N2  UNL     1      29.155  10.349 -11.124  1.00  0.00    -0.062 N 
ATOM     14  H23 UNL     1      29.832   9.952 -10.471  1.00  0.00     0.275 HD
ATOM     15  H22 UNL     1      28.301  10.132 -10.612  1.00  0.00     0.275 HD
ATOM     16  H21 UNL     1      29.183   9.878 -12.028  1.00  0.00     0.275 HD
ENDBRANCH   1  13
BRANCH   1  17
HETATM   17  C11 UNL     1      29.520  12.163 -12.697  1.00  0.00     0.292 C 
HETATM   18  O2  UNL     1      30.201  13.220 -12.948  1.00  0.00    -0.267 OA
HETATM   19  N3  UNL     1      28.999  11.441 -13.782  1.00  0.00    -0.172 N 
BRANCH  19  20
HETATM   20  N4  UNL     1      29.210  11.871 -15.112  1.00  0.00    -0.322 N 
ATOM     21  H42 UNL     1      28.433  11.747 -15.762  1.00  0.00     0.179 HD
ATOM     22  H41 UNL     1      30.099  12.280 -15.397  1.00  0.00     0.179 HD
ENDBRANCH  19  20
BRANCH  19  23
HETATM   23  N5  UNL     1      28.264  10.282 -13.612  1.00  0.00    -0.322 N 
ATOM     24  H52 UNL     1      28.130   9.960 -12.654  1.00  0.00     0.179 HD
ATOM     25  H51 UNL     1      27.868   9.768 -14.399  1.00  0.00     0.179 HD
ENDBRANCH  19  23
ENDBRANCH   1  17
TORSDOF 7
ENDMDL
MODEL 2
REMARK VINA RESULT: -6.268278432      6.431      7.642
REMARK  7 active torsions:
REMARK  status: ('A' for Active; 'I' for Inactive)
REMARK    1  A    between atoms: C1_2  and  C2_4 
REMARK    2  A    between atoms: C2_4  and  C10_12 
REMARK    3  A    between atoms: C3_5  and  C4_6 
REMARK    4  A    between atoms: C10_12  and  N2_13 
REMARK    5  A    between atoms: C10_12  and  C11_17 
REMARK       I    between atoms: C11_17  and  N3_19 
REMARK    6  A    between atoms: N3_19  and  N4_20 
REMARK    7  A    between atoms: N3_19  and  N5_23 
ROOT
HETATM    1  C10 UNL     1      33.662  12.344  -5.774  1.00  0.00     0.316 C 
ENDROOT
BRANCH   1   2
HETATM    2  C2  UNL     1      32.258  11.910  -5.631  1.00  0.00     0.047 C 
HETATM    3  C3  UNL     1      31.273  12.456  -6.273  1.00  0.00     0.026 C 
BRANCH   2   4
HETATM    4  C1  UNL     1      31.951  10.821  -4.680  1.00  0.00     0.263 C 
HETATM    5  N1  UNL     1      32.514  10.856  -3.383  1.00  0.00    -0.057 NA
HETATM    6  O1  UNL     1      31.205   9.855  -4.968  1.00  0.00    -0.271 OA
ENDBRANCH   2   4
BRANCH   3   7
HETATM    7  C4  UNL     1      31.264  13.514  -7.250  1.00  0.00    -0.035 A 
HETATM    8  C5  UNL     1      32.317  14.329  -7.461  1.00  0.00     0.011 A 
HETATM    9  C6  UNL     1      32.279  15.352  -8.400  1.00  0.00     0.001 A 
HETATM   10  C7  UNL     1      31.145  15.567  -9.156  1.00  0.00     0.000 A 
HETATM   11  C8  UNL     1      30.083  14.717  -8.919  1.00  0.00     0.001 A 
HETATM   12  C9  UNL     1      30.097  13.703  -8.001  1.00  0.00     0.011 A 
ENDBRANCH   3   7
ENDBRANCH   1   2
BRANCH   1  13
HETATM   13  N2  UNL     1      33.973  13.424  -4.843  1.00  0.00    -0.062 N 
ATOM     14  H23 UNL     1      33.375  14.236  -4.994  1.00  0.00     0.275 HD
ATOM     15  H22 UNL     1      33.685  13.195  -3.892  1.00  0.00     0.275 HD
ATOM     16  H21 UNL     1      34.962  13.671  -4.888  1.00  0.00     0.275 HD
ENDBRANCH   1  13
BRANCH   1  17
HETATM   17  C11 UNL     1      34.601  11.213  -5.630  1.00  0.00     0.292 C 
HETATM   18  O2  UNL     1      34.663  10.368  -6.591  1.00  0.00    -0.267 OA
HETATM   19  N3  UNL     1      35.427  11.005  -4.515  1.00  0.00    -0.172 N 
BRANCH  19  20
HETATM   20  N4  UNL     1      36.296   9.892  -4.448  1.00  0.00    -0.322 N 
ATOM     21  H42 UNL     1      37.137  10.000  -3.881  1.00  0.00     0.179 HD
ATOM     22  H41 UNL     1      36.083   9.029  -4.949  1.00  0.00     0.179 HD
ENDBRANCH  19  20
BRANCH  19  23
HETATM   23  N5  UNL     1      35.441  11.869  -3.435  1.00  0.00    -0.322 N 
ATOM     24  H52 UNL     1      34.689  12.556  -3.388  1.00  0.00     0.179 HD
ATOM     25  H51 UNL     1      36.162  11.829  -2.714  1.00  0.00     0.179 HD
ENDBRANCH  19  23
ENDBRANCH   1  17
TORSDOF 7
ENDMDL
MODEL 3
REMARK VINA RESULT: -6.188907726      1.666      2.694
REMARK  7 active torsions:
REMARK  status: ('A' for Active; 'I' for Inactive)
REMARK    1  A    between atoms: C1_2  and  C2_4 
REMARK    2  A    between atoms: C2_4  and  C10_12 
REMARK    3  A    between atoms: C3_5  and  C4_6 
REMARK    4  A    between atoms: C10_12  and  N2_13 
REMARK    5  A    between atoms: C10_12  and  C11_17 
REMARK       I    between atoms: C11_17  and  N3_19 
REMARK    6  A    between atoms: N3_19  and  N4_20 
REMARK    7  A    between atoms: N3_19  and  N5_23 
ROOT
HETATM    1  C10 UNL     1      29.077  13.148 -12.285  1.00  0.00     0.316 C 
ENDROOT
BRANCH   1   2
HETATM    2  C2  UNL     1      28.826  12.184 -11.196  1.00  0.00     0.047 C 
HETATM    3  C3  UNL     1      29.297  12.324  -9.996  1.00  0.00     0.026 C 
BRANCH   2   4
HETATM    4  C1  UNL     1      28.025  10.978 -11.493  1.00  0.00     0.263 C 
HETATM    5  N1  UNL     1      26.806  10.771 -10.807  1.00  0.00    -0.057 NA
HETATM    6  O1  UNL     1      28.376  10.118 -12.335  1.00  0.00    -0.271 OA
ENDBRANCH   2   4
BRANCH   3   7
HETATM    7  C4  UNL     1      30.093  13.377  -9.419  1.00  0.00    -0.035 A 
HETATM    8  C5  UNL     1      29.774  14.682  -9.527  1.00  0.00     0.011 A 
HETATM    9  C6  UNL     1      30.566  15.681  -8.973  1.00  0.00     0.001 A 
HETATM   10  C7  UNL     1      31.718  15.360  -8.285  1.00  0.00     0.000 A 
HETATM   11  C8  UNL     1      32.018  14.016  -8.189  1.00  0.00     0.001 A 
HETATM   12  C9  UNL     1      31.255  13.015  -8.726  1.00  0.00     0.011 A 
ENDBRANCH   3   7
ENDBRANCH   1   2
BRANCH   1  13
HETATM   13  N2  UNL     1      30.135  12.673 -13.170  1.00  0.00    -0.062 N 
ATOM     14  H23 UNL     1      30.693  13.444 -13.539  1.00  0.00     0.275 HD
ATOM     15  H22 UNL     1      30.867  12.186 -12.654  1.00  0.00     0.275 HD
ATOM     16  H21 UNL     1      29.753  12.093 -13.918  1.00  0.00     0.275 HD
ENDBRANCH   1  13
BRANCH   1  17
HETATM   17  C11 UNL     1      27.843  13.463 -13.033  1.00  0.00     0.292 C 
HETATM   18  O2  UNL     1      27.792  13.115 -14.265  1.00  0.00    -0.267 OA
HETATM   19  N3  UNL     1      26.727  14.114 -12.484  1.00  0.00    -0.172 N 
BRANCH  19  20
HETATM   20  N4  UNL     1      25.584  14.388 -13.269  1.00  0.00    -0.322 N 
ATOM     21  H42 UNL     1      25.626  14.113 -14.251  1.00  0.00     0.179 HD
ATOM     22  H41 UNL     1      24.765  14.840 -12.864  1.00  0.00     0.179 HD
ENDBRANCH  19  20
BRANCH  19  23
HETATM   23  N5  UNL     1      26.683  14.515 -11.161  1.00  0.00    -0.322 N 
ATOM     24  H52 UNL     1      27.578  14.698 -10.707  1.00  0.00     0.179 HD
ATOM     25  H51 UNL     1      25.805  14.629 -10.655  1.00  0.00     0.179 HD
ENDBRANCH  19  23
ENDBRANCH   1  17
TORSDOF 7
ENDMDL
MODEL 4
REMARK VINA RESULT: -6.183398610      0.083      1.112
REMARK  7 active torsions:
REMARK  status: ('A' for Active; 'I' for Inactive)
REMARK    1  A    between atoms: C1_2  and  C2_4 
REMARK    2  A    between atoms: C2_4  and  C10_12 
REMARK    3  A    between atoms: C3_5  and  C4_6 
REMARK    4  A    between atoms: C10_12  and  N2_13 
REMARK    5  A    between atoms: C10_12  and  C11_17 
REMARK       I    between atoms: C11_17  and  N3_19 
REMARK    6  A    between atoms: N3_19  and  N4_20 
REMARK    7  A    between atoms: N3_19  and  N5_23 
ROOT
HETATM    1  C10 UNL     1      29.321  11.796 -11.298  1.00  0.00     0.316 C 
ENDROOT
BRANCH   1   2
HETATM    2  C2  UNL     1      28.193  12.542 -10.706  1.00  0.00     0.047 C 
HETATM    3  C3  UNL     1      28.341  13.458  -9.800  1.00  0.00     0.026 C 
BRANCH   2   4
HETATM    4  C1  UNL     1      26.821  12.206 -11.140  1.00  0.00     0.263 C 
HETATM    5  N1  UNL     1      25.898  13.249 -11.383  1.00  0.00    -0.057 NA
HETATM    6  O1  UNL     1      26.429  11.026 -11.307  1.00  0.00    -0.271 OA
ENDBRANCH   2   4
BRANCH   3   7
HETATM    7  C4  UNL     1      29.533  13.992  -9.194  1.00  0.00    -0.035 A 
HETATM    8  C5  UNL     1      29.996  15.232  -9.451  1.00  0.00     0.011 A 
HETATM    9  C6  UNL     1      31.156  15.720  -8.864  1.00  0.00     0.001 A 
HETATM   10  C7  UNL     1      31.880  14.938  -7.986  1.00  0.00     0.000 A 
HETATM   11  C8  UNL     1      31.381  13.674  -7.742  1.00  0.00     0.001 A 
HETATM   12  C9  UNL     1      30.241  13.171  -8.308  1.00  0.00     0.011 A 
ENDBRANCH   3   7
ENDBRANCH   1   2
BRANCH   1  13
HETATM   13  N2  UNL     1      29.149  10.358 -11.118  1.00  0.00    -0.062 N 
ATOM     14  H23 UNL     1      30.034   9.858 -11.208  1.00  0.00     0.275 HD
ATOM     15  H22 UNL     1      28.938  10.123 -10.148  1.00  0.00     0.275 HD
ATOM     16  H21 UNL     1      28.443   9.991 -11.756  1.00  0.00     0.275 HD
ENDBRANCH   1  13
BRANCH   1  17
HETATM   17  C11 UNL     1      29.522  12.145 -12.720  1.00  0.00     0.292 C 
HETATM   18  O2  UNL     1      30.203  13.198 -12.980  1.00  0.00    -0.267 OA
HETATM   19  N3  UNL     1      29.018  11.402 -13.798  1.00  0.00    -0.172 N 
BRANCH  19  20
HETATM   20  N4  UNL     1      29.246  11.808 -15.133  1.00  0.00    -0.322 N 
ATOM     21  H42 UNL     1      28.900  12.730 -15.397  1.00  0.00     0.179 HD
ATOM     22  H41 UNL     1      29.732  11.198 -15.791  1.00  0.00     0.179 HD
ENDBRANCH  19  20
BRANCH  19  23
HETATM   23  N5  UNL     1      28.283  10.244 -13.618  1.00  0.00    -0.322 N 
ATOM     24  H52 UNL     1      27.631   9.995 -14.362  1.00  0.00     0.179 HD
ATOM     25  H51 UNL     1      28.381   9.660 -12.788  1.00  0.00     0.179 HD
ENDBRANCH  19  23
ENDBRANCH   1  17
TORSDOF 7
ENDMDL
MODEL 5
REMARK VINA RESULT: -6.129676537      1.520      1.941
REMARK  7 active torsions:
REMARK  status: ('A' for Active; 'I' for Inactive)
REMARK    1  A    between atoms: C1_2  and  C2_4 
REMARK    2  A    between atoms: C2_4  and  C10_12 
REMARK    3  A    between atoms: C3_5  and  C4_6 
REMARK    4  A    between atoms: C10_12  and  N2_13 
REMARK    5  A    between atoms: C10_12  and  C11_17 
REMARK       I    between atoms: C11_17  and  N3_19 
REMARK    6  A    between atoms: N3_19  and  N4_20 
REMARK    7  A    between atoms: N3_19  and  N5_23 
ROOT
HETATM    1  C10 UNL     1      28.032  12.115 -10.976  1.00  0.00     0.316 C 
ENDROOT
BRANCH   1   2
HETATM    2  C2  UNL     1      27.819  13.566 -11.141  1.00  0.00     0.047 C 
HETATM    3  C3  UNL     1      28.552  14.466 -10.563  1.00  0.00     0.026 C 
BRANCH   2   4
HETATM    4  C1  UNL     1      26.691  14.022 -11.981  1.00  0.00     0.263 C 
HETATM    5  N1  UNL     1      25.385  13.563 -11.692  1.00  0.00    -0.057 NA
HETATM    6  O1  UNL     1      26.836  14.807 -12.948  1.00  0.00    -0.271 OA
ENDBRANCH   2   4
BRANCH   3   7
HETATM    7  C4  UNL     1      29.702  14.327  -9.705  1.00  0.00    -0.035 A 
HETATM    8  C5  UNL     1      30.226  13.132  -9.367  1.00  0.00     0.011 A 
HETATM    9  C6  UNL     1      31.327  13.024  -8.527  1.00  0.00     0.001 A 
HETATM   10  C7  UNL     1      31.926  14.154  -8.007  1.00  0.00     0.000 A 
HETATM   11  C8  UNL     1      31.367  15.363  -8.371  1.00  0.00     0.001 A 
HETATM   12  C9  UNL     1      30.283  15.495  -9.197  1.00  0.00     0.011 A 
ENDBRANCH   3   7
ENDBRANCH   1   2
BRANCH   1  13
HETATM   13  N2  UNL     1      26.973  11.520 -10.166  1.00  0.00    -0.062 N 
ATOM     14  H23 UNL     1      27.099  11.723  -9.174  1.00  0.00     0.275 HD
ATOM     15  H22 UNL     1      26.081  11.992 -10.308  1.00  0.00     0.275 HD
ATOM     16  H21 UNL     1      26.901  10.517 -10.339  1.00  0.00     0.275 HD
ENDBRANCH   1  13
BRANCH   1  17
HETATM   17  C11 UNL     1      28.169  11.431 -12.278  1.00  0.00     0.292 C 
HETATM   18  O2  UNL     1      27.170  10.747 -12.697  1.00  0.00    -0.267 OA
HETATM   19  N3  UNL     1      29.318  11.481 -13.083  1.00  0.00    -0.172 N 
BRANCH  19  20
HETATM   20  N4  UNL     1      29.375  10.790 -14.315  1.00  0.00    -0.322 N 
ATOM     21  H42 UNL     1      28.551  10.853 -14.914  1.00  0.00     0.179 HD
ATOM     22  H41 UNL     1      30.203  10.257 -14.581  1.00  0.00     0.179 HD
ENDBRANCH  19  20
BRANCH  19  23
HETATM   23  N5  UNL     1      30.441  12.203 -12.723  1.00  0.00    -0.322 N 
ATOM     24  H52 UNL     1      31.033  11.798 -11.998  1.00  0.00     0.179 HD
ATOM     25  H51 UNL     1      30.677  13.096 -13.156  1.00  0.00     0.179 HD
ENDBRANCH  19  23
ENDBRANCH   1  17
TORSDOF 7
ENDMDL
