MODEL 1
REMARK VINA RESULT: -6.636283976      0.000      0.000
REMARK  10 active torsions:
REMARK  status: ('A' for Active; 'I' for Inactive)
REMARK    1  A    between atoms: C3_3  and  C4_4 
REMARK    2  A    between atoms: C4_4  and  N1_5 
REMARK    3  A    between atoms: C4_4  and  C8_15 
REMARK       I    between atoms: N1_5  and  C5_7 
REMARK    4  A    between atoms: C5_7  and  C6_9 
REMARK    5  A    between atoms: C6_9  and  N2_11 
REMARK    6  A    between atoms: C8_15  and  O2_16 
REMARK    7  A    between atoms: C8_15  and  N3_18 
REMARK    8  A    between atoms: N3_18  and  C9_20 
REMARK    9  A    between atoms: C9_20  and  O3_21 
REMARK   10  A    between atoms: C9_20  and  N4_23 
ROOT
HETATM    1  C1  UNL     1      31.827  10.513  -4.278  1.00  0.00     0.012 C 
HETATM    2  C2  UNL     1      31.606  11.275  -5.191  1.00  0.00    -0.115 C 
HETATM    3  C3  UNL     1      31.314  12.175  -6.286  1.00  0.00     0.126 C 
ENDROOT
BRANCH   3   4
HETATM    4  C4  UNL     1      32.445  13.174  -6.542  1.00  0.00     0.170 C 
BRANCH   4   5
HETATM    5  N1  UNL     1      33.670  12.344  -6.389  1.00  0.00    -0.346 N 
HETATM    6  C5  UNL     1      34.605  12.612  -5.377  1.00  0.00     0.248 C 
HETATM    7  O1  UNL     1      34.384  13.574  -4.600  1.00  0.00    -0.271 OA
ATOM      8  H1  UNL     1      33.832  11.567  -7.030  1.00  0.00     0.163 HD
BRANCH   6   9
HETATM    9  C6  UNL     1      35.836  11.827  -5.170  1.00  0.00     0.270 C 
HETATM   10  C7  UNL     1      35.458  10.481  -4.604  1.00  0.00     0.050 C 
BRANCH   9  11
HETATM   11  N2  UNL     1      36.739  12.468  -4.231  1.00  0.00    -0.067 N 
ATOM     12  H23 UNL     1      36.659  13.483  -4.275  1.00  0.00     0.275 HD
ATOM     13  H22 UNL     1      36.435  12.324  -3.268  1.00  0.00     0.275 HD
ATOM     14  H21 UNL     1      37.705  12.167  -4.362  1.00  0.00     0.275 HD
ENDBRANCH   9  11
ENDBRANCH   6   9
ENDBRANCH   4   5
BRANCH   4  15
HETATM   15  C8  UNL     1      32.406  13.621  -7.939  1.00  0.00     0.142 C 
BRANCH  15  16
HETATM   16  O2  UNL     1      33.114  12.831  -8.721  1.00  0.00    -0.348 OA
ATOM     17  H2  UNL     1      32.712  12.733  -9.576  1.00  0.00     0.219 HD
ENDBRANCH  15  16
BRANCH  15  18
HETATM   18  N3  UNL     1      31.787  14.681  -8.561  1.00  0.00    -0.305 N 
ATOM     19  H3  UNL     1      32.459  15.326  -8.977  1.00  0.00     0.171 HD
BRANCH  18  20
HETATM   20  C9  UNL     1      30.472  15.094  -8.766  1.00  0.00     0.218 C 
BRANCH  20  21
HETATM   21  O3  UNL     1      30.241  16.333  -9.115  1.00  0.00    -0.333 OA
ATOM     22  H3  UNL     1      30.068  16.979  -8.440  1.00  0.00     0.220 HD
ENDBRANCH  20  21
BRANCH  20  23
HETATM   23  N4  UNL     1      29.313  14.336  -8.645  1.00  0.00    -0.361 N 
HETATM   24  C10 UNL     1      28.789  13.536  -9.768  1.00  0.00     0.150 C 
ATOM     25  H4  UNL     1      28.812  14.334  -7.757  1.00  0.00     0.162 HD
ENDBRANCH  20  23
ENDBRANCH  18  20
ENDBRANCH  15  18
ENDBRANCH   4  15
ENDBRANCH   3   4
TORSDOF 10
ENDMDL
MODEL 2
REMARK VINA RESULT: -6.212356511      1.208      1.384
REMARK  10 active torsions:
REMARK  status: ('A' for Active; 'I' for Inactive)
REMARK    1  A    between atoms: C3_3  and  C4_4 
REMARK    2  A    between atoms: C4_4  and  N1_5 
REMARK    3  A    between atoms: C4_4  and  C8_15 
REMARK       I    between atoms: N1_5  and  C5_7 
REMARK    4  A    between atoms: C5_7  and  C6_9 
REMARK    5  A    between atoms: C6_9  and  N2_11 
REMARK    6  A    between atoms: C8_15  and  O2_16 
REMARK    7  A    between atoms: C8_15  and  N3_18 
REMARK    8  A    between atoms: N3_18  and  C9_20 
REMARK    9  A    between atoms: C9_20  and  O3_21 
REMARK   10  A    between atoms: C9_20  and  N4_23 
ROOT
HETATM    1  C1  UNL     1      31.915  10.414  -4.181  1.00  0.00     0.012 C 
HETATM    2  C2  UNL     1      31.661  11.133  -5.120  1.00  0.00    -0.115 C 
HETATM    3  C3  UNL     1      31.333  11.978  -6.248  1.00  0.00     0.126 C 
ENDROOT
BRANCH   3   4
HETATM    4  C4  UNL     1      32.337  13.118  -6.438  1.00  0.00     0.170 C 
BRANCH   4   5
HETATM    5  N1  UNL     1      33.652  12.426  -6.365  1.00  0.00    -0.346 N 
HETATM    6  C5  UNL     1      34.516  12.625  -5.277  1.00  0.00     0.248 C 
HETATM    7  O1  UNL     1      34.153  13.406  -4.362  1.00  0.00    -0.271 OA
ATOM      8  H1  UNL     1      33.929  11.796  -7.118  1.00  0.00     0.163 HD
BRANCH   6   9
HETATM    9  C6  UNL     1      35.830  11.970  -5.143  1.00  0.00     0.270 C 
HETATM   10  C7  UNL     1      35.619  10.581  -4.592  1.00  0.00     0.050 C 
BRANCH   9  11
HETATM   11  N2  UNL     1      36.704  12.683  -4.230  1.00  0.00    -0.067 N 
ATOM     12  H23 UNL     1      37.081  12.061  -3.516  1.00  0.00     0.275 HD
ATOM     13  H22 UNL     1      37.576  12.951  -4.686  1.00  0.00     0.275 HD
ATOM     14  H21 UNL     1      36.244  13.491  -3.811  1.00  0.00     0.275 HD
ENDBRANCH   9  11
ENDBRANCH   6   9
ENDBRANCH   4   5
BRANCH   4  15
HETATM   15  C8  UNL     1      32.218  13.662  -7.796  1.00  0.00     0.142 C 
BRANCH  15  16
HETATM   16  O2  UNL     1      32.841  14.818  -7.912  1.00  0.00    -0.348 OA
ATOM     17  H2  UNL     1      32.610  15.413  -7.208  1.00  0.00     0.219 HD
ENDBRANCH  15  16
BRANCH  15  18
HETATM   18  N3  UNL     1      31.592  13.202  -8.932  1.00  0.00    -0.305 N 
ATOM     19  H3  UNL     1      32.197  12.590  -9.480  1.00  0.00     0.171 HD
BRANCH  18  20
HETATM   20  C9  UNL     1      30.340  13.363  -9.522  1.00  0.00     0.218 C 
BRANCH  20  21
HETATM   21  O3  UNL     1      30.028  12.632 -10.561  1.00  0.00    -0.333 OA
ATOM     22  H3  UNL     1      30.374  11.750 -10.626  1.00  0.00     0.220 HD
ENDBRANCH  20  21
BRANCH  20  23
HETATM   23  N4  UNL     1      29.326  14.235  -9.143  1.00  0.00    -0.361 N 
HETATM   24  C10 UNL     1      29.476  15.697  -9.262  1.00  0.00     0.150 C 
ATOM     25  H4  UNL     1      28.456  13.854  -8.772  1.00  0.00     0.162 HD
ENDBRANCH  20  23
ENDBRANCH  18  20
ENDBRANCH  15  18
ENDBRANCH   4  15
ENDBRANCH   3   4
TORSDOF 10
ENDMDL
MODEL 3
REMARK VINA RESULT: -6.161520592      1.564      5.915
REMARK  10 active torsions:
REMARK  status: ('A' for Active; 'I' for Inactive)
REMARK    1  A    between atoms: C3_3  and  C4_4 
REMARK    2  A    between atoms: C4_4  and  N1_5 
REMARK    3  A    between atoms: C4_4  and  C8_15 
REMARK       I    between atoms: N1_5  and  C5_7 
REMARK    4  A    between atoms: C5_7  and  C6_9 
REMARK    5  A    between atoms: C6_9  and  N2_11 
REMARK    6  A    between atoms: C8_15  and  O2_16 
REMARK    7  A    between atoms: C8_15  and  N3_18 
REMARK    8  A    between atoms: N3_18  and  C9_20 
REMARK    9  A    between atoms: C9_20  and  O3_21 
REMARK   10  A    between atoms: C9_20  and  N4_23 
ROOT
HETATM    1  C1  UNL     1      32.321  10.903  -3.544  1.00  0.00     0.012 C 
HETATM    2  C2  UNL     1      32.256  10.826  -4.749  1.00  0.00    -0.115 C 
HETATM    3  C3  UNL     1      32.161  10.710  -6.188  1.00  0.00     0.126 C 
ENDROOT
BRANCH   3   4
HETATM    4  C4  UNL     1      32.819  11.886  -6.916  1.00  0.00     0.170 C 
BRANCH   4   5
HETATM    5  N1  UNL     1      31.733  12.901  -6.967  1.00  0.00    -0.346 N 
HETATM    6  C5  UNL     1      31.375  13.520  -8.176  1.00  0.00     0.248 C 
HETATM    7  O1  UNL     1      31.997  13.196  -9.218  1.00  0.00    -0.271 OA
ATOM      8  H1  UNL     1      31.239  13.152  -6.110  1.00  0.00     0.163 HD
BRANCH   6   9
HETATM    9  C6  UNL     1      30.309  14.531  -8.295  1.00  0.00     0.270 C 
HETATM   10  C7  UNL     1      29.138  13.909  -9.014  1.00  0.00     0.050 C 
BRANCH   9  11
HETATM   11  N2  UNL     1      30.738  15.688  -9.059  1.00  0.00    -0.067 N 
ATOM     12  H23 UNL     1      31.644  15.526  -9.498  1.00  0.00     0.275 HD
ATOM     13  H22 UNL     1      30.172  15.808  -9.898  1.00  0.00     0.275 HD
ATOM     14  H21 UNL     1      30.748  16.537  -8.494  1.00  0.00     0.275 HD
ENDBRANCH   9  11
ENDBRANCH   6   9
ENDBRANCH   4   5
BRANCH   4  15
HETATM   15  C8  UNL     1      33.888  12.449  -6.083  1.00  0.00     0.142 C 
BRANCH  15  16
HETATM   16  O2  UNL     1      33.510  13.568  -5.497  1.00  0.00    -0.348 OA
ATOM     17  H2  UNL     1      32.874  14.040  -6.022  1.00  0.00     0.219 HD
ENDBRANCH  15  16
BRANCH  15  18
HETATM   18  N3  UNL     1      35.172  12.036  -5.811  1.00  0.00    -0.305 N 
ATOM     19  H3  UNL     1      35.770  12.081  -6.637  1.00  0.00     0.171 HD
BRANCH  18  20
HETATM   20  C9  UNL     1      35.861  11.572  -4.692  1.00  0.00     0.218 C 
BRANCH  20  21
HETATM   21  O3  UNL     1      36.658  12.388  -4.052  1.00  0.00    -0.333 OA
ATOM     22  H3  UNL     1      36.856  13.235  -4.434  1.00  0.00     0.220 HD
ENDBRANCH  20  21
BRANCH  20  23
HETATM   23  N4  UNL     1      35.817  10.300  -4.133  1.00  0.00    -0.361 N 
HETATM   24  C10 UNL     1      35.302   9.140  -4.884  1.00  0.00     0.150 C 
ATOM     25  H4  UNL     1      36.150  10.166  -3.179  1.00  0.00     0.162 HD
ENDBRANCH  20  23
ENDBRANCH  18  20
ENDBRANCH  15  18
ENDBRANCH   4  15
ENDBRANCH   3   4
TORSDOF 10
ENDMDL
MODEL 4
REMARK VINA RESULT: -6.151064757      1.527      5.846
REMARK  10 active torsions:
REMARK  status: ('A' for Active; 'I' for Inactive)
REMARK    1  A    between atoms: C3_3  and  C4_4 
REMARK    2  A    between atoms: C4_4  and  N1_5 
REMARK    3  A    between atoms: C4_4  and  C8_15 
REMARK       I    between atoms: N1_5  and  C5_7 
REMARK    4  A    between atoms: C5_7  and  C6_9 
REMARK    5  A    between atoms: C6_9  and  N2_11 
REMARK    6  A    between atoms: C8_15  and  O2_16 
REMARK    7  A    between atoms: C8_15  and  N3_18 
REMARK    8  A    between atoms: N3_18  and  C9_20 
REMARK    9  A    between atoms: C9_20  and  O3_21 
REMARK   10  A    between atoms: C9_20  and  N4_23 
ROOT
HETATM    1  C1  UNL     1      31.675  10.166  -4.380  1.00  0.00     0.012 C 
HETATM    2  C2  UNL     1      31.448  11.162  -5.028  1.00  0.00    -0.115 C 
HETATM    3  C3  UNL     1      31.158  12.362  -5.782  1.00  0.00     0.126 C 
ENDROOT
BRANCH   3   4
HETATM    4  C4  UNL     1      32.028  12.492  -7.036  1.00  0.00     0.170 C 
BRANCH   4   5
HETATM    5  N1  UNL     1      31.495  13.717  -7.690  1.00  0.00    -0.346 N 
HETATM    6  C5  UNL     1      30.743  13.637  -8.873  1.00  0.00     0.248 C 
HETATM    7  O1  UNL     1      30.529  12.503  -9.369  1.00  0.00    -0.271 OA
ATOM      8  H1  UNL     1      31.679  14.629  -7.273  1.00  0.00     0.163 HD
BRANCH   6   9
HETATM    9  C6  UNL     1      30.185  14.811  -9.570  1.00  0.00     0.270 C 
HETATM   10  C7  UNL     1      30.691  16.058  -8.889  1.00  0.00     0.050 C 
BRANCH   9  11
HETATM   11  N2  UNL     1      28.735  14.834  -9.524  1.00  0.00    -0.067 N 
ATOM     12  H23 UNL     1      28.338  15.008 -10.447  1.00  0.00     0.275 HD
ATOM     13  H22 UNL     1      28.355  13.902  -9.359  1.00  0.00     0.275 HD
ATOM     14  H21 UNL     1      28.384  15.502  -8.839  1.00  0.00     0.275 HD
ENDBRANCH   9  11
ENDBRANCH   6   9
ENDBRANCH   4   5
BRANCH   4  15
HETATM   15  C8  UNL     1      33.413  12.784  -6.649  1.00  0.00     0.142 C 
BRANCH  15  16
HETATM   16  O2  UNL     1      34.221  12.769  -7.690  1.00  0.00    -0.348 OA
ATOM     17  H2  UNL     1      34.997  12.247  -7.523  1.00  0.00     0.219 HD
ENDBRANCH  15  16
BRANCH  15  18
HETATM   18  N3  UNL     1      34.003  13.060  -5.437  1.00  0.00    -0.305 N 
ATOM     19  H3  UNL     1      33.557  13.847  -4.965  1.00  0.00     0.171 HD
BRANCH  18  20
HETATM   20  C9  UNL     1      35.058  12.535  -4.693  1.00  0.00     0.218 C 
BRANCH  20  21
HETATM   21  O3  UNL     1      36.181  13.201  -4.624  1.00  0.00    -0.333 OA
ATOM     22  H3  UNL     1      36.670  13.199  -3.809  1.00  0.00     0.220 HD
ENDBRANCH  20  21
BRANCH  20  23
HETATM   23  N4  UNL     1      35.085  11.343  -3.978  1.00  0.00    -0.361 N 
HETATM   24  C10 UNL     1      35.055  10.033  -4.654  1.00  0.00     0.150 C 
ATOM     25  H4  UNL     1      35.125  11.376  -2.960  1.00  0.00     0.162 HD
ENDBRANCH  20  23
ENDBRANCH  18  20
ENDBRANCH  15  18
ENDBRANCH   4  15
ENDBRANCH   3   4
TORSDOF 10
ENDMDL
MODEL 5
REMARK VINA RESULT: -6.048552231      1.456      5.991
REMARK  10 active torsions:
REMARK  status: ('A' for Active; 'I' for Inactive)
REMARK    1  A    between atoms: C3_3  and  C4_4 
REMARK    2  A    between atoms: C4_4  and  N1_5 
REMARK    3  A    between atoms: C4_4  and  C8_15 
REMARK       I    between atoms: N1_5  and  C5_7 
REMARK    4  A    between atoms: C5_7  and  C6_9 
REMARK    5  A    between atoms: C6_9  and  N2_11 
REMARK    6  A    between atoms: C8_15  and  O2_16 
REMARK    7  A    between atoms: C8_15  and  N3_18 
REMARK    8  A    between atoms: N3_18  and  C9_20 
REMARK    9  A    between atoms: C9_20  and  O3_21 
REMARK   10  A    between atoms: C9_20  and  N4_23 
ROOT
HETATM    1  C1  UNL     1      32.194  10.141  -4.812  1.00  0.00     0.012 C 
HETATM    2  C2  UNL     1      31.663  11.104  -5.316  1.00  0.00    -0.115 C 
HETATM    3  C3  UNL     1      31.011  12.259  -5.894  1.00  0.00     0.126 C 
ENDROOT
BRANCH   3   4
HETATM    4  C4  UNL     1      31.617  12.661  -7.242  1.00  0.00     0.170 C 
BRANCH   4   5
HETATM    5  N1  UNL     1      30.713  13.746  -7.707  1.00  0.00    -0.346 N 
HETATM    6  C5  UNL     1      30.080  13.676  -8.959  1.00  0.00     0.248 C 
HETATM    7  O1  UNL     1      30.297  12.671  -9.681  1.00  0.00    -0.271 OA
ATOM      8  H1  UNL     1      30.549  14.555  -7.107  1.00  0.00     0.163 HD
BRANCH   6   9
HETATM    9  C6  UNL     1      29.173  14.716  -9.479  1.00  0.00     0.270 C 
HETATM   10  C7  UNL     1      28.826  14.379 -10.907  1.00  0.00     0.050 C 
BRANCH   9  11
HETATM   11  N2  UNL     1      29.787  16.031  -9.467  1.00  0.00    -0.067 N 
ATOM     12  H23 UNL     1      29.236  16.692  -8.920  1.00  0.00     0.275 HD
ATOM     13  H22 UNL     1      30.642  16.035  -8.910  1.00  0.00     0.275 HD
ATOM     14  H21 UNL     1      29.957  16.382 -10.408  1.00  0.00     0.275 HD
ENDBRANCH   9  11
ENDBRANCH   6   9
ENDBRANCH   4   5
BRANCH   4  15
HETATM   15  C8  UNL     1      32.936  13.267  -7.031  1.00  0.00     0.142 C 
BRANCH  15  16
HETATM   16  O2  UNL     1      32.986  14.498  -7.501  1.00  0.00    -0.348 OA
ATOM     17  H2  UNL     1      33.871  14.842  -7.488  1.00  0.00     0.219 HD
ENDBRANCH  15  16
BRANCH  15  18
HETATM   18  N3  UNL     1      34.095  12.800  -6.455  1.00  0.00    -0.305 N 
ATOM     19  H3  UNL     1      34.625  12.204  -7.091  1.00  0.00     0.171 HD
BRANCH  18  20
HETATM   20  C9  UNL     1      34.726  12.936  -5.220  1.00  0.00     0.218 C 
BRANCH  20  21
HETATM   21  O3  UNL     1      34.012  13.259  -4.173  1.00  0.00    -0.333 OA
ATOM     22  H3  UNL     1      34.304  13.972  -3.616  1.00  0.00     0.220 HD
ENDBRANCH  20  21
BRANCH  20  23
HETATM   23  N4  UNL     1      36.075  12.767  -4.930  1.00  0.00    -0.361 N 
HETATM   24  C10 UNL     1      36.581  11.543  -4.282  1.00  0.00     0.150 C 
ATOM     25  H4  UNL     1      36.731  13.509  -5.172  1.00  0.00     0.162 HD
ENDBRANCH  20  23
ENDBRANCH  18  20
ENDBRANCH  15  18
ENDBRANCH   4  15
ENDBRANCH   3   4
TORSDOF 10
ENDMDL
