MODEL 1
REMARK VINA RESULT: -6.005460723      0.000      0.000
REMARK  8 active torsions:
REMARK  status: ('A' for Active; 'I' for Inactive)
REMARK    1  A    between atoms: C2_2  and  S1_4 
REMARK    2  A    between atoms: S1_4  and  N1_7 
REMARK    3  A    between atoms: N1_7  and  N2_9 
REMARK    4  A    between atoms: N2_9  and  C4_11 
REMARK    5  A    between atoms: C4_11  and  N3_13 
REMARK    6  A    between atoms: N3_13  and  C5_15 
REMARK    7  A    between atoms: C5_15  and  C6_16 
REMARK    8  A    between atoms: C6_16  and  N4_17 
ROOT
HETATM    1  N2  UNL     1      33.482  13.411  -7.001  1.00  0.00    -0.267 N 
ATOM      2  H2  UNL     1      33.896  14.339  -6.918  1.00  0.00     0.190 HD
ENDROOT
BRANCH   1   3
HETATM    3  N1  UNL     1      34.259  12.280  -6.744  1.00  0.00    -0.225 N 
ATOM      4  H1  UNL     1      34.459  11.558  -7.435  1.00  0.00     0.200 HD
BRANCH   3   5
HETATM    5  S1  UNL     1      34.839  12.250  -5.128  1.00  0.00     0.247 S 
HETATM    6  O1  UNL     1      34.138  13.271  -4.284  1.00  0.00    -0.204 OA
HETATM    7  O2  UNL     1      36.302  12.594  -5.148  1.00  0.00    -0.204 OA
BRANCH   5   8
HETATM    8  C2  UNL     1      34.644  10.614  -4.480  1.00  0.00     0.122 C 
HETATM    9  C1  UNL     1      33.386  10.517  -3.665  1.00  0.00     0.027 C 
HETATM   10  C3  UNL     1      34.547   9.585  -5.593  1.00  0.00     0.027 C 
ENDBRANCH   5   8
ENDBRANCH   3   5
ENDBRANCH   1   3
BRANCH   1  11
HETATM   11  C4  UNL     1      32.137  13.280  -7.371  1.00  0.00     0.187 C 
HETATM   12  S2  UNL     1      31.141  12.398  -6.397  1.00  0.00    -0.040 SA
BRANCH  11  13
HETATM   13  N3  UNL     1      31.571  13.850  -8.532  1.00  0.00    -0.364 N 
ATOM     14  H3  UNL     1      31.461  13.235  -9.337  1.00  0.00     0.162 HD
BRANCH  13  15
HETATM   15  C5  UNL     1      31.137  15.206  -8.693  1.00  0.00     0.149 C 
BRANCH  15  16
HETATM   16  C6  UNL     1      29.749  15.363  -9.244  1.00  0.00     0.249 C 
BRANCH  16  17
HETATM   17  N4  UNL     1      28.896  14.232  -8.850  1.00  0.00    -0.078 N 
ATOM     18  H43 UNL     1      28.583  13.697  -9.660  1.00  0.00     0.274 HD
ATOM     19  H42 UNL     1      29.432  13.503  -8.380  1.00  0.00     0.274 HD
ATOM     20  H41 UNL     1      28.111  14.549  -8.282  1.00  0.00     0.274 HD
ENDBRANCH  16  17
ENDBRANCH  15  16
ENDBRANCH  13  15
ENDBRANCH  11  13
ENDBRANCH   1  11
TORSDOF 8
ENDMDL
MODEL 2
REMARK VINA RESULT: -5.806575442      0.801      1.164
REMARK  8 active torsions:
REMARK  status: ('A' for Active; 'I' for Inactive)
REMARK    1  A    between atoms: C2_2  and  S1_4 
REMARK    2  A    between atoms: S1_4  and  N1_7 
REMARK    3  A    between atoms: N1_7  and  N2_9 
REMARK    4  A    between atoms: N2_9  and  C4_11 
REMARK    5  A    between atoms: C4_11  and  N3_13 
REMARK    6  A    between atoms: N3_13  and  C5_15 
REMARK    7  A    between atoms: C5_15  and  C6_16 
REMARK    8  A    between atoms: C6_16  and  N4_17 
ROOT
HETATM    1  N2  UNL     1      33.608  13.209  -7.031  1.00  0.00    -0.267 N 
ATOM      2  H2  UNL     1      34.330  12.847  -7.654  1.00  0.00     0.190 HD
ENDROOT
BRANCH   1   3
HETATM    3  N1  UNL     1      33.894  13.409  -5.680  1.00  0.00    -0.225 N 
ATOM      4  H1  UNL     1      33.591  14.225  -5.149  1.00  0.00     0.200 HD
BRANCH   3   5
HETATM    5  S1  UNL     1      34.815  12.119  -5.019  1.00  0.00     0.247 S 
HETATM    6  O1  UNL     1      35.073  12.335  -3.559  1.00  0.00    -0.204 OA
HETATM    7  O2  UNL     1      36.142  12.082  -5.722  1.00  0.00    -0.204 OA
BRANCH   5   8
HETATM    8  C2  UNL     1      33.964  10.596  -5.319  1.00  0.00     0.122 C 
HETATM    9  C1  UNL     1      34.875   9.427  -5.073  1.00  0.00     0.027 C 
HETATM   10  C3  UNL     1      32.764  10.440  -4.401  1.00  0.00     0.027 C 
ENDBRANCH   5   8
ENDBRANCH   3   5
ENDBRANCH   1   3
BRANCH   1  11
HETATM   11  C4  UNL     1      32.335  13.502  -7.540  1.00  0.00     0.187 C 
HETATM   12  S2  UNL     1      31.035  12.726  -6.887  1.00  0.00    -0.040 SA
BRANCH  11  13
HETATM   13  N3  UNL     1      32.087  14.419  -8.584  1.00  0.00    -0.364 N 
ATOM     14  H3  UNL     1      32.725  14.392  -9.379  1.00  0.00     0.162 HD
BRANCH  13  15
HETATM   15  C5  UNL     1      31.030  15.385  -8.641  1.00  0.00     0.149 C 
BRANCH  15  16
HETATM   16  C6  UNL     1      29.967  15.099  -9.662  1.00  0.00     0.249 C 
BRANCH  16  17
HETATM   17  N4  UNL     1      28.753  14.571  -9.024  1.00  0.00    -0.078 N 
ATOM     18  H43 UNL     1      28.638  13.574  -9.203  1.00  0.00     0.274 HD
ATOM     19  H42 UNL     1      28.846  14.536  -8.009  1.00  0.00     0.274 HD
ATOM     20  H41 UNL     1      27.930  15.102  -9.309  1.00  0.00     0.274 HD
ENDBRANCH  16  17
ENDBRANCH  15  16
ENDBRANCH  13  15
ENDBRANCH  11  13
ENDBRANCH   1  11
TORSDOF 8
ENDMDL
MODEL 3
REMARK VINA RESULT: -5.722857207      1.818      2.004
REMARK  8 active torsions:
REMARK  status: ('A' for Active; 'I' for Inactive)
REMARK    1  A    between atoms: C2_2  and  S1_4 
REMARK    2  A    between atoms: S1_4  and  N1_7 
REMARK    3  A    between atoms: N1_7  and  N2_9 
REMARK    4  A    between atoms: N2_9  and  C4_11 
REMARK    5  A    between atoms: C4_11  and  N3_13 
REMARK    6  A    between atoms: N3_13  and  C5_15 
REMARK    7  A    between atoms: C5_15  and  C6_16 
REMARK    8  A    between atoms: C6_16  and  N4_17 
ROOT
HETATM    1  N2  UNL     1      32.946  13.803  -7.306  1.00  0.00    -0.267 N 
ATOM      2  H2  UNL     1      33.314  14.583  -6.760  1.00  0.00     0.190 HD
ENDROOT
BRANCH   1   3
HETATM    3  N1  UNL     1      33.511  12.535  -7.171  1.00  0.00    -0.225 N 
ATOM      4  H1  UNL     1      33.634  11.881  -7.943  1.00  0.00     0.200 HD
BRANCH   3   5
HETATM    5  S1  UNL     1      33.973  12.205  -5.550  1.00  0.00     0.247 S 
HETATM    6  O1  UNL     1      34.361  13.462  -4.834  1.00  0.00    -0.204 OA
HETATM    7  O2  UNL     1      35.173  11.301  -5.579  1.00  0.00    -0.204 OA
BRANCH   5   8
HETATM    8  C2  UNL     1      32.644  11.366  -4.735  1.00  0.00     0.122 C 
HETATM    9  C1  UNL     1      31.956  10.425  -5.682  1.00  0.00     0.027 C 
HETATM   10  C3  UNL     1      33.144  10.546  -3.559  1.00  0.00     0.027 C 
ENDBRANCH   5   8
ENDBRANCH   3   5
ENDBRANCH   1   3
BRANCH   1  11
HETATM   11  C4  UNL     1      31.877  14.016  -8.187  1.00  0.00     0.187 C 
HETATM   12  S2  UNL     1      31.529  15.564  -8.634  1.00  0.00    -0.040 SA
BRANCH  11  13
HETATM   13  N3  UNL     1      31.067  12.989  -8.719  1.00  0.00    -0.364 N 
ATOM     14  H3  UNL     1      31.040  12.112  -8.199  1.00  0.00     0.162 HD
BRANCH  13  15
HETATM   15  C5  UNL     1      30.280  13.053  -9.915  1.00  0.00     0.149 C 
BRANCH  15  16
HETATM   16  C6  UNL     1      28.802  13.192  -9.691  1.00  0.00     0.249 C 
BRANCH  16  17
HETATM   17  N4  UNL     1      28.292  14.427 -10.304  1.00  0.00    -0.078 N 
ATOM     18  H43 UNL     1      28.640  15.257  -9.824  1.00  0.00     0.274 HD
ATOM     19  H42 UNL     1      28.707  14.593 -11.220  1.00  0.00     0.274 HD
ATOM     20  H41 UNL     1      27.272  14.418 -10.349  1.00  0.00     0.274 HD
ENDBRANCH  16  17
ENDBRANCH  15  16
ENDBRANCH  13  15
ENDBRANCH  11  13
ENDBRANCH   1  11
TORSDOF 8
ENDMDL
MODEL 4
REMARK VINA RESULT: -5.670305800      2.614      5.948
REMARK  8 active torsions:
REMARK  status: ('A' for Active; 'I' for Inactive)
REMARK    1  A    between atoms: C2_2  and  S1_4 
REMARK    2  A    between atoms: S1_4  and  N1_7 
REMARK    3  A    between atoms: N1_7  and  N2_9 
REMARK    4  A    between atoms: N2_9  and  C4_11 
REMARK    5  A    between atoms: C4_11  and  N3_13 
REMARK    6  A    between atoms: N3_13  and  C5_15 
REMARK    7  A    between atoms: C5_15  and  C6_16 
REMARK    8  A    between atoms: C6_16  and  N4_17 
ROOT
HETATM    1  N2  UNL     1      33.682  13.101  -7.262  1.00  0.00    -0.267 N 
ATOM      2  H2  UNL     1      34.528  13.656  -7.397  1.00  0.00     0.190 HD
ENDROOT
BRANCH   1   3
HETATM    3  N1  UNL     1      32.772  12.959  -8.309  1.00  0.00    -0.225 N 
ATOM      4  H1  UNL     1      32.869  12.277  -9.060  1.00  0.00     0.200 HD
BRANCH   3   5
HETATM    5  S1  UNL     1      31.468  14.070  -8.184  1.00  0.00     0.247 S 
HETATM    6  O1  UNL     1      31.956  15.432  -7.794  1.00  0.00    -0.204 OA
HETATM    7  O2  UNL     1      30.541  13.585  -7.104  1.00  0.00    -0.204 OA
BRANCH   5   8
HETATM    8  C2  UNL     1      30.590  14.099  -9.721  1.00  0.00     0.122 C 
HETATM    9  C1  UNL     1      29.998  12.751 -10.015  1.00  0.00     0.027 C 
HETATM   10  C3  UNL     1      29.450  15.102  -9.690  1.00  0.00     0.027 C 
ENDBRANCH   5   8
ENDBRANCH   3   5
ENDBRANCH   1   3
BRANCH   1  11
HETATM   11  C4  UNL     1      33.445  12.486  -6.025  1.00  0.00     0.187 C 
HETATM   12  S2  UNL     1      34.208  13.089  -4.694  1.00  0.00    -0.040 SA
BRANCH  11  13
HETATM   13  N3  UNL     1      32.596  11.374  -5.838  1.00  0.00    -0.364 N 
ATOM     14  H3  UNL     1      31.610  11.508  -6.063  1.00  0.00     0.162 HD
BRANCH  13  15
HETATM   15  C5  UNL     1      32.978  10.076  -5.365  1.00  0.00     0.149 C 
BRANCH  15  16
HETATM   16  C6  UNL     1      34.400   9.691  -5.656  1.00  0.00     0.249 C 
BRANCH  16  17
HETATM   17  N4  UNL     1      35.157   9.499  -4.411  1.00  0.00    -0.078 N 
ATOM     18  H43 UNL     1      34.798  10.085  -3.658  1.00  0.00     0.274 HD
ATOM     19  H42 UNL     1      34.974   8.585  -3.996  1.00  0.00     0.274 HD
ATOM     20  H41 UNL     1      36.155   9.650  -4.563  1.00  0.00     0.274 HD
ENDBRANCH  16  17
ENDBRANCH  15  16
ENDBRANCH  13  15
ENDBRANCH  11  13
ENDBRANCH   1  11
TORSDOF 8
ENDMDL
MODEL 5
REMARK VINA RESULT: -5.660721003      2.492      5.380
REMARK  8 active torsions:
REMARK  status: ('A' for Active; 'I' for Inactive)
REMARK    1  A    between atoms: C2_2  and  S1_4 
REMARK    2  A    between atoms: S1_4  and  N1_7 
REMARK    3  A    between atoms: N1_7  and  N2_9 
REMARK    4  A    between atoms: N2_9  and  C4_11 
REMARK    5  A    between atoms: C4_11  and  N3_13 
REMARK    6  A    between atoms: N3_13  and  C5_15 
REMARK    7  A    between atoms: C5_15  and  C6_16 
REMARK    8  A    between atoms: C6_16  and  N4_17 
ROOT
HETATM    1  N2  UNL     1      33.640  13.371  -5.750  1.00  0.00    -0.267 N 
ATOM      2  H2  UNL     1      33.362  13.936  -4.947  1.00  0.00     0.190 HD
ENDROOT
BRANCH   1   3
HETATM    3  N1  UNL     1      33.202  13.721  -7.028  1.00  0.00    -0.225 N 
ATOM      4  H1  UNL     1      33.745  14.284  -7.682  1.00  0.00     0.200 HD
BRANCH   3   5
HETATM    5  S1  UNL     1      31.641  13.092  -7.369  1.00  0.00     0.247 S 
HETATM    6  O1  UNL     1      30.778  13.098  -6.144  1.00  0.00    -0.204 OA
HETATM    7  O2  UNL     1      31.797  11.666  -7.816  1.00  0.00    -0.204 OA
BRANCH   5   8
HETATM    8  C2  UNL     1      30.921  14.030  -8.686  1.00  0.00     0.122 C 
HETATM    9  C1  UNL     1      29.422  14.000  -8.596  1.00  0.00     0.027 C 
HETATM   10  C3  UNL     1      31.352  15.485  -8.631  1.00  0.00     0.027 C 
ENDBRANCH   5   8
ENDBRANCH   3   5
ENDBRANCH   1   3
BRANCH   1  11
HETATM   11  C4  UNL     1      34.460  12.250  -5.561  1.00  0.00     0.187 C 
HETATM   12  S2  UNL     1      35.846  12.435  -4.690  1.00  0.00    -0.040 SA
BRANCH  11  13
HETATM   13  N3  UNL     1      34.181  10.965  -6.074  1.00  0.00    -0.364 N 
ATOM     14  H3  UNL     1      34.521  10.764  -7.015  1.00  0.00     0.162 HD
BRANCH  13  15
HETATM   15  C5  UNL     1      33.470   9.914  -5.408  1.00  0.00     0.149 C 
BRANCH  15  16
HETATM   16  C6  UNL     1      32.525  10.373  -4.336  1.00  0.00     0.249 C 
BRANCH  16  17
HETATM   17  N4  UNL     1      31.160  10.516  -4.864  1.00  0.00    -0.078 N 
ATOM     18  H43 UNL     1      31.057  11.370  -5.412  1.00  0.00     0.274 HD
ATOM     19  H42 UNL     1      30.967   9.836  -5.599  1.00  0.00     0.274 HD
ATOM     20  H41 UNL     1      30.471  10.465  -4.113  1.00  0.00     0.274 HD
ENDBRANCH  16  17
ENDBRANCH  15  16
ENDBRANCH  13  15
ENDBRANCH  11  13
ENDBRANCH   1  11
TORSDOF 8
ENDMDL
