MODEL 1
REMARK VINA RESULT: -6.825584507      0.000      0.000
REMARK  7 active torsions:
REMARK  status: ('A' for Active; 'I' for Inactive)
REMARK    1  A    between atoms: N2_4  and  C3_6 
REMARK    2  A    between atoms: C3_6  and  C5_8 
REMARK    3  A    between atoms: C5_8  and  N3_10 
REMARK       I    between atoms: N3_10  and  C7_12 
REMARK    4  A    between atoms: C7_12  and  C8_14 
REMARK    5  A    between atoms: C8_14  and  N4_15 
REMARK    6  A    between atoms: C8_14  and  C9_19 
REMARK    7  A    between atoms: C9_19  and  C10_20 
ROOT
HETATM    1  N3  UNL     1      32.785  11.725  -6.567  1.00  0.00    -0.353 N 
ATOM      2  H3  UNL     1      33.520  11.849  -7.263  1.00  0.00     0.163 HD
HETATM    3  C7  UNL     1      31.690  12.631  -6.594  1.00  0.00     0.249 C 
HETATM    4  O1  UNL     1      30.764  12.523  -5.765  1.00  0.00    -0.271 OA
ENDROOT
BRANCH   1   5
HETATM    5  C5  UNL     1      32.928  10.652  -5.634  1.00  0.00     0.102 C 
HETATM    6  C6  UNL     1      33.856   9.565  -6.127  1.00  0.00     0.034 C 
BRANCH   5   7
HETATM    7  C3  UNL     1      33.314  11.181  -4.294  1.00  0.00     0.100 C 
HETATM    8  C4  UNL     1      32.602  10.387  -3.227  1.00  0.00     0.034 C 
BRANCH   7   9
HETATM    9  N2  UNL     1      34.740  11.208  -4.086  1.00  0.00    -0.376 N 
HETATM   10  C2  UNL     1      35.462  12.274  -4.161  1.00  0.00     0.085 C 
HETATM   11  C1  UNL     1      34.834  13.601  -4.479  1.00  0.00     0.085 C 
HETATM   12  N1  UNL     1      36.857  12.239  -3.948  1.00  0.00    -0.088 NA
ATOM     13  H2  UNL     1      35.208  10.329  -3.867  1.00  0.00     0.160 HD
ENDBRANCH   7   9
ENDBRANCH   5   7
ENDBRANCH   1   5
BRANCH   3  14
HETATM   14  C8  UNL     1      31.628  13.717  -7.602  1.00  0.00     0.283 C 
BRANCH  14  15
HETATM   15  N4  UNL     1      32.451  13.348  -8.736  1.00  0.00    -0.066 N 
ATOM     16  H43 UNL     1      33.367  12.998  -8.455  1.00  0.00     0.275 HD
ATOM     17  H42 UNL     1      32.116  12.507  -9.204  1.00  0.00     0.275 HD
ATOM     18  H41 UNL     1      32.516  14.146  -9.367  1.00  0.00     0.275 HD
ENDBRANCH  14  15
BRANCH  14  19
HETATM   19  C9  UNL     1      30.180  13.844  -8.092  1.00  0.00     0.142 C 
BRANCH  19  20
HETATM   20  C10 UNL     1      30.124  14.850  -9.196  1.00  0.00     0.233 C 
HETATM   21  N5  UNL     1      29.744  14.447 -10.483  1.00  0.00    -0.062 NA
HETATM   22  O2  UNL     1      30.409  16.060  -9.012  1.00  0.00    -0.277 OA
ENDBRANCH  19  20
ENDBRANCH  14  19
ENDBRANCH   3  14
TORSDOF 7
ENDMDL
MODEL 2
REMARK VINA RESULT: -6.533548364      2.459      7.342
REMARK  7 active torsions:
REMARK  status: ('A' for Active; 'I' for Inactive)
REMARK    1  A    between atoms: N2_4  and  C3_6 
REMARK    2  A    between atoms: C3_6  and  C5_8 
REMARK    3  A    between atoms: C5_8  and  N3_10 
REMARK       I    between atoms: N3_10  and  C7_12 
REMARK    4  A    between atoms: C7_12  and  C8_14 
REMARK    5  A    between atoms: C8_14  and  N4_15 
REMARK    6  A    between atoms: C8_14  and  C9_19 
REMARK    7  A    between atoms: C9_19  and  C10_20 
ROOT
HETATM    1  N3  UNL     1      30.905  13.471  -8.698  1.00  0.00    -0.353 N 
ATOM      2  H3  UNL     1      31.598  13.330  -9.433  1.00  0.00     0.163 HD
HETATM    3  C7  UNL     1      31.211  12.980  -7.399  1.00  0.00     0.249 C 
HETATM    4  O1  UNL     1      30.398  13.126  -6.464  1.00  0.00    -0.271 OA
ENDROOT
BRANCH   1   5
HETATM    5  C5  UNL     1      29.696  14.148  -9.046  1.00  0.00     0.102 C 
HETATM    6  C6  UNL     1      29.851  15.651  -9.072  1.00  0.00     0.034 C 
BRANCH   5   7
HETATM    7  C3  UNL     1      29.146  13.599 -10.319  1.00  0.00     0.100 C 
HETATM    8  C4  UNL     1      29.884  12.332 -10.670  1.00  0.00     0.034 C 
BRANCH   7   9
HETATM    9  N2  UNL     1      27.719  13.400 -10.279  1.00  0.00    -0.376 N 
HETATM   10  C2  UNL     1      26.925  13.648 -11.265  1.00  0.00     0.085 C 
HETATM   11  C1  UNL     1      27.464  14.177 -12.564  1.00  0.00     0.085 C 
HETATM   12  N1  UNL     1      25.534  13.434 -11.166  1.00  0.00    -0.088 NA
ATOM     13  H2  UNL     1      27.311  13.041  -9.416  1.00  0.00     0.160 HD
ENDBRANCH   7   9
ENDBRANCH   5   7
ENDBRANCH   1   5
BRANCH   3  14
HETATM   14  C8  UNL     1      32.495  12.288  -7.131  1.00  0.00     0.283 C 
BRANCH  14  15
HETATM   15  N4  UNL     1      33.582  13.125  -7.597  1.00  0.00    -0.066 N 
ATOM     16  H43 UNL     1      33.258  13.891  -8.189  1.00  0.00     0.275 HD
ATOM     17  H42 UNL     1      33.989  13.687  -6.850  1.00  0.00     0.275 HD
ATOM     18  H41 UNL     1      34.272  12.537  -8.063  1.00  0.00     0.275 HD
ENDBRANCH  14  15
BRANCH  14  19
HETATM   19  C9  UNL     1      32.648  12.116  -5.615  1.00  0.00     0.142 C 
BRANCH  19  20
HETATM   20  C10 UNL     1      34.061  12.412  -5.230  1.00  0.00     0.233 C 
HETATM   21  N5  UNL     1      35.048  11.432  -5.403  1.00  0.00    -0.062 NA
HETATM   22  O2  UNL     1      34.404  13.523  -4.750  1.00  0.00    -0.277 OA
ENDBRANCH  19  20
ENDBRANCH  14  19
ENDBRANCH   3  14
TORSDOF 7
ENDMDL
MODEL 3
REMARK VINA RESULT: -6.520588726      2.308      7.333
REMARK  7 active torsions:
REMARK  status: ('A' for Active; 'I' for Inactive)
REMARK    1  A    between atoms: N2_4  and  C3_6 
REMARK    2  A    between atoms: C3_6  and  C5_8 
REMARK    3  A    between atoms: C5_8  and  N3_10 
REMARK       I    between atoms: N3_10  and  C7_12 
REMARK    4  A    between atoms: C7_12  and  C8_14 
REMARK    5  A    between atoms: C8_14  and  N4_15 
REMARK    6  A    between atoms: C8_14  and  C9_19 
REMARK    7  A    between atoms: C9_19  and  C10_20 
ROOT
HETATM    1  N3  UNL     1      31.212  13.388  -8.453  1.00  0.00    -0.353 N 
ATOM      2  H3  UNL     1      31.938  13.209  -9.146  1.00  0.00     0.163 HD
HETATM    3  C7  UNL     1      31.379  12.819  -7.161  1.00  0.00     0.249 C 
HETATM    4  O1  UNL     1      30.520  13.007  -6.276  1.00  0.00    -0.271 OA
ENDROOT
BRANCH   1   5
HETATM    5  C5  UNL     1      30.099  14.192  -8.849  1.00  0.00     0.102 C 
HETATM    6  C6  UNL     1      30.440  15.662  -8.939  1.00  0.00     0.034 C 
BRANCH   5   7
HETATM    7  C3  UNL     1      29.497  13.658 -10.104  1.00  0.00     0.100 C 
HETATM    8  C4  UNL     1      30.172  12.357 -10.460  1.00  0.00     0.034 C 
BRANCH   7   9
HETATM    9  N2  UNL     1      28.064  13.521 -10.030  1.00  0.00    -0.376 N 
HETATM   10  C2  UNL     1      27.272  13.639 -11.041  1.00  0.00     0.085 C 
HETATM   11  C1  UNL     1      27.819  13.935 -12.408  1.00  0.00     0.085 C 
HETATM   12  N1  UNL     1      25.875  13.494 -10.906  1.00  0.00    -0.088 NA
ATOM     13  H2  UNL     1      27.650  13.319  -9.119  1.00  0.00     0.160 HD
ENDBRANCH   7   9
ENDBRANCH   5   7
ENDBRANCH   1   5
BRANCH   3  14
HETATM   14  C8  UNL     1      32.570  11.995  -6.841  1.00  0.00     0.283 C 
BRANCH  14  15
HETATM   15  N4  UNL     1      33.528  12.819  -6.131  1.00  0.00    -0.066 N 
ATOM     16  H43 UNL     1      33.541  13.781  -6.469  1.00  0.00     0.275 HD
ATOM     17  H42 UNL     1      33.243  13.009  -5.171  1.00  0.00     0.275 HD
ATOM     18  H41 UNL     1      34.445  12.374  -6.185  1.00  0.00     0.275 HD
ENDBRANCH  14  15
BRANCH  14  19
HETATM   19  C9  UNL     1      32.139  10.859  -5.905  1.00  0.00     0.142 C 
BRANCH  19  20
HETATM   20  C10 UNL     1      33.333  10.364  -5.156  1.00  0.00     0.233 C 
HETATM   21  N5  UNL     1      33.387  10.509  -3.763  1.00  0.00    -0.062 NA
HETATM   22  O2  UNL     1      34.305   9.816  -5.734  1.00  0.00    -0.277 OA
ENDBRANCH  19  20
ENDBRANCH  14  19
ENDBRANCH   3  14
TORSDOF 7
ENDMDL
MODEL 4
REMARK VINA RESULT: -6.446012695      2.026      6.719
REMARK  7 active torsions:
REMARK  status: ('A' for Active; 'I' for Inactive)
REMARK    1  A    between atoms: N2_4  and  C3_6 
REMARK    2  A    between atoms: C3_6  and  C5_8 
REMARK    3  A    between atoms: C5_8  and  N3_10 
REMARK       I    between atoms: N3_10  and  C7_12 
REMARK    4  A    between atoms: C7_12  and  C8_14 
REMARK    5  A    between atoms: C8_14  and  N4_15 
REMARK    6  A    between atoms: C8_14  and  C9_19 
REMARK    7  A    between atoms: C9_19  and  C10_20 
ROOT
HETATM    1  N3  UNL     1      31.691  12.878  -7.587  1.00  0.00    -0.353 N 
ATOM      2  H3  UNL     1      32.159  12.453  -8.388  1.00  0.00     0.163 HD
HETATM    3  C7  UNL     1      31.750  12.187  -6.347  1.00  0.00     0.249 C 
HETATM    4  O1  UNL     1      31.194  12.663  -5.336  1.00  0.00    -0.271 OA
ENDROOT
BRANCH   1   5
HETATM    5  C5  UNL     1      31.024  14.125  -7.793  1.00  0.00     0.102 C 
HETATM    6  C6  UNL     1      31.973  15.249  -8.140  1.00  0.00     0.034 C 
BRANCH   5   7
HETATM    7  C3  UNL     1      29.925  13.964  -8.788  1.00  0.00     0.100 C 
HETATM    8  C4  UNL     1      29.535  15.323  -9.314  1.00  0.00     0.034 C 
BRANCH   7   9
HETATM    9  N2  UNL     1      30.253  13.047  -9.850  1.00  0.00    -0.376 N 
HETATM   10  C2  UNL     1      29.379  12.438 -10.576  1.00  0.00     0.085 C 
HETATM   11  C1  UNL     1      27.910  12.659 -10.350  1.00  0.00     0.085 C 
HETATM   12  N1  UNL     1      29.761  11.548 -11.603  1.00  0.00    -0.088 NA
ATOM     13  H2  UNL     1      31.239  12.867 -10.038  1.00  0.00     0.160 HD
ENDBRANCH   7   9
ENDBRANCH   5   7
ENDBRANCH   1   5
BRANCH   3  14
HETATM   14  C8  UNL     1      32.468  10.894  -6.229  1.00  0.00     0.283 C 
BRANCH  14  15
HETATM   15  N4  UNL     1      33.828  11.073  -6.694  1.00  0.00    -0.066 N 
ATOM     16  H43 UNL     1      34.444  11.434  -5.966  1.00  0.00     0.275 HD
ATOM     17  H42 UNL     1      34.305  10.186  -6.857  1.00  0.00     0.275 HD
ATOM     18  H41 UNL     1      33.815  11.666  -7.524  1.00  0.00     0.275 HD
ENDBRANCH  14  15
BRANCH  14  19
HETATM   19  C9  UNL     1      32.522  10.501  -4.748  1.00  0.00     0.142 C 
BRANCH  19  20
HETATM   20  C10 UNL     1      33.945  10.514  -4.291  1.00  0.00     0.233 C 
HETATM   21  N5  UNL     1      34.523  11.713  -3.855  1.00  0.00    -0.062 NA
HETATM   22  O2  UNL     1      34.654   9.475  -4.284  1.00  0.00    -0.277 OA
ENDBRANCH  19  20
ENDBRANCH  14  19
ENDBRANCH   3  14
TORSDOF 7
ENDMDL
MODEL 5
REMARK VINA RESULT: -6.381490790      2.525      6.994
REMARK  7 active torsions:
REMARK  status: ('A' for Active; 'I' for Inactive)
REMARK    1  A    between atoms: N2_4  and  C3_6 
REMARK    2  A    between atoms: C3_6  and  C5_8 
REMARK    3  A    between atoms: C5_8  and  N3_10 
REMARK       I    between atoms: N3_10  and  C7_12 
REMARK    4  A    between atoms: C7_12  and  C8_14 
REMARK    5  A    between atoms: C8_14  and  N4_15 
REMARK    6  A    between atoms: C8_14  and  C9_19 
REMARK    7  A    between atoms: C9_19  and  C10_20 
ROOT
HETATM    1  N3  UNL     1      30.912  13.114  -8.746  1.00  0.00    -0.353 N 
ATOM      2  H3  UNL     1      31.601  12.909  -9.470  1.00  0.00     0.163 HD
HETATM    3  C7  UNL     1      31.269  12.835  -7.399  1.00  0.00     0.249 C 
HETATM    4  O1  UNL     1      30.463  13.067  -6.475  1.00  0.00    -0.271 OA
ENDROOT
BRANCH   1   5
HETATM    5  C5  UNL     1      29.658  13.661  -9.159  1.00  0.00     0.102 C 
HETATM    6  C6  UNL     1      29.730  15.143  -9.447  1.00  0.00     0.034 C 
BRANCH   5   7
HETATM    7  C3  UNL     1      29.101  12.875 -10.297  1.00  0.00     0.100 C 
HETATM    8  C4  UNL     1      27.595  12.897 -10.221  1.00  0.00     0.034 C 
BRANCH   7   9
HETATM    9  N2  UNL     1      29.584  13.319 -11.580  1.00  0.00    -0.376 N 
HETATM   10  C2  UNL     1      29.882  12.528 -12.555  1.00  0.00     0.085 C 
HETATM   11  C1  UNL     1      29.733  11.041 -12.403  1.00  0.00     0.085 C 
HETATM   12  N1  UNL     1      30.352  13.022 -13.790  1.00  0.00    -0.088 NA
ATOM     13  H2  UNL     1      29.699  14.322 -11.727  1.00  0.00     0.160 HD
ENDBRANCH   7   9
ENDBRANCH   5   7
ENDBRANCH   1   5
BRANCH   3  14
HETATM   14  C8  UNL     1      32.597  12.266  -7.066  1.00  0.00     0.283 C 
BRANCH  14  15
HETATM   15  N4  UNL     1      33.624  13.144  -7.589  1.00  0.00    -0.066 N 
ATOM     16  H43 UNL     1      33.289  13.718  -8.362  1.00  0.00     0.275 HD
ATOM     17  H42 UNL     1      33.858  13.898  -6.943  1.00  0.00     0.275 HD
ATOM     18  H41 UNL     1      34.437  12.582  -7.843  1.00  0.00     0.275 HD
ENDBRANCH  14  15
BRANCH  14  19
HETATM   19  C9  UNL     1      32.741  12.226  -5.539  1.00  0.00     0.142 C 
BRANCH  19  20
HETATM   20  C10 UNL     1      34.180  12.404  -5.180  1.00  0.00     0.233 C 
HETATM   21  N5  UNL     1      35.091  11.368  -5.426  1.00  0.00    -0.062 NA
HETATM   22  O2  UNL     1      34.612  13.464  -4.659  1.00  0.00    -0.277 OA
ENDBRANCH  19  20
ENDBRANCH  14  19
ENDBRANCH   3  14
TORSDOF 7
ENDMDL
