MODEL 1
REMARK VINA RESULT: -7.265607960      0.000      0.000
REMARK  5 active torsions:
REMARK  status: ('A' for Active; 'I' for Inactive)
REMARK    1  A    between atoms: C1_2  and  C2_4 
REMARK    2  A    between atoms: C2_4  and  N2_5 
REMARK       I    between atoms: N2_5  and  C3_7 
REMARK       I    between atoms: C3_7  and  N3_9 
REMARK    3  A    between atoms: N3_9  and  C4_11 
REMARK    4  A    between atoms: C4_11  and  C5_12 
REMARK    5  A    between atoms: C4_11  and  C6_15 
ROOT
HETATM    1  N2  UNL     1      28.024  13.218  -9.809  1.00  0.00    -0.335 N 
ATOM      2  H2  UNL     1      27.457  13.151  -8.964  1.00  0.00     0.164 HD
HETATM    3  C3  UNL     1      29.412  13.385  -9.731  1.00  0.00     0.317 C 
HETATM    4  O2  UNL     1      30.092  13.464 -10.768  1.00  0.00    -0.247 OA
HETATM    5  N3  UNL     1      30.036  13.464  -8.475  1.00  0.00    -0.326 N 
ATOM      6  H3  UNL     1      29.493  13.402  -7.613  1.00  0.00     0.165 HD
ENDROOT
BRANCH   5   7
HETATM    7  C4  UNL     1      31.503  13.640  -8.442  1.00  0.00     0.209 C 
BRANCH   7   8
HETATM    8  C5  UNL     1      31.756  15.063  -8.263  1.00  0.00     0.258 C 
HETATM    9  N4  UNL     1      30.950  16.125  -8.778  1.00  0.00    -0.060 NA
HETATM   10  O3  UNL     1      32.771  15.475  -7.595  1.00  0.00    -0.274 OA
ENDBRANCH   7   8
BRANCH   7  11
HETATM   11  C6  UNL     1      31.982  12.749  -7.371  1.00  0.00    -0.027 A 
HETATM   12  C7  UNL     1      33.268  12.253  -7.435  1.00  0.00     0.010 A 
HETATM   13  C8  UNL     1      33.794  11.411  -6.484  1.00  0.00     0.001 A 
HETATM   14  C9  UNL     1      33.009  11.040  -5.417  1.00  0.00     0.000 A 
HETATM   15  C10 UNL     1      31.715  11.519  -5.323  1.00  0.00     0.001 A 
HETATM   16  C11 UNL     1      31.213  12.377  -6.312  1.00  0.00     0.010 A 
ENDBRANCH   7  11
ENDBRANCH   5   7
BRANCH   1  17
HETATM   17  C2  UNL     1      27.417  13.143 -11.117  1.00  0.00     0.223 C 
BRANCH  17  18
HETATM   18  C1  UNL     1      26.723  11.869 -11.322  1.00  0.00     0.248 C 
HETATM   19  N1  UNL     1      25.916  11.601 -12.458  1.00  0.00    -0.061 NA
HETATM   20  O1  UNL     1      26.851  10.974 -10.448  1.00  0.00    -0.275 OA
ENDBRANCH  17  18
ENDBRANCH   1  17
TORSDOF 5
ENDMDL
MODEL 2
REMARK VINA RESULT: -7.227360237      0.057      1.115
REMARK  5 active torsions:
REMARK  status: ('A' for Active; 'I' for Inactive)
REMARK    1  A    between atoms: C1_2  and  C2_4 
REMARK    2  A    between atoms: C2_4  and  N2_5 
REMARK       I    between atoms: N2_5  and  C3_7 
REMARK       I    between atoms: C3_7  and  N3_9 
REMARK    3  A    between atoms: N3_9  and  C4_11 
REMARK    4  A    between atoms: C4_11  and  C5_12 
REMARK    5  A    between atoms: C4_11  and  C6_15 
ROOT
HETATM    1  N2  UNL     1      28.046  13.172  -9.807  1.00  0.00    -0.335 N 
ATOM      2  H2  UNL     1      27.497  13.066  -8.955  1.00  0.00     0.164 HD
HETATM    3  C3  UNL     1      29.431  13.373  -9.748  1.00  0.00     0.317 C 
HETATM    4  O2  UNL     1      30.090  13.500 -10.794  1.00  0.00    -0.247 OA
HETATM    5  N3  UNL     1      30.075  13.432  -8.501  1.00  0.00    -0.326 N 
ATOM      6  H3  UNL     1      29.550  13.331  -7.632  1.00  0.00     0.165 HD
ENDROOT
BRANCH   5   7
HETATM    7  C4  UNL     1      31.537  13.645  -8.488  1.00  0.00     0.209 C 
BRANCH   7   8
HETATM    8  C5  UNL     1      31.757  15.071  -8.282  1.00  0.00     0.258 C 
HETATM    9  N4  UNL     1      30.934  16.123  -8.789  1.00  0.00    -0.060 NA
HETATM   10  O3  UNL     1      32.755  15.493  -7.595  1.00  0.00    -0.274 OA
ENDBRANCH   7   8
BRANCH   7  11
HETATM   11  C6  UNL     1      32.057  12.744  -7.445  1.00  0.00    -0.027 A 
HETATM   12  C7  UNL     1      31.242  12.402  -6.385  1.00  0.00     0.010 A 
HETATM   13  C8  UNL     1      31.648  11.573  -5.365  1.00  0.00     0.001 A 
HETATM   14  C9  UNL     1      32.922  11.058  -5.395  1.00  0.00     0.000 A 
HETATM   15  C10 UNL     1      33.765  11.381  -6.443  1.00  0.00     0.001 A 
HETATM   16  C11 UNL     1      33.316  12.229  -7.465  1.00  0.00     0.010 A 
ENDBRANCH   7  11
ENDBRANCH   5   7
BRANCH   1  17
HETATM   17  C2  UNL     1      27.417  13.119 -11.106  1.00  0.00     0.223 C 
BRANCH  17  18
HETATM   18  C1  UNL     1      26.714  11.852 -11.318  1.00  0.00     0.248 C 
HETATM   19  N1  UNL     1      25.913  11.593 -12.460  1.00  0.00    -0.061 NA
HETATM   20  O1  UNL     1      26.829  10.954 -10.445  1.00  0.00    -0.275 OA
ENDBRANCH  17  18
ENDBRANCH   1  17
TORSDOF 5
ENDMDL
MODEL 3
REMARK VINA RESULT: -7.157389574      2.863      6.243
REMARK  5 active torsions:
REMARK  status: ('A' for Active; 'I' for Inactive)
REMARK    1  A    between atoms: C1_2  and  C2_4 
REMARK    2  A    between atoms: C2_4  and  N2_5 
REMARK       I    between atoms: N2_5  and  C3_7 
REMARK       I    between atoms: C3_7  and  N3_9 
REMARK    3  A    between atoms: N3_9  and  C4_11 
REMARK    4  A    between atoms: C4_11  and  C5_12 
REMARK    5  A    between atoms: C4_11  and  C6_15 
ROOT
HETATM    1  N2  UNL     1      32.499  11.236  -6.379  1.00  0.00    -0.335 N 
ATOM      2  H2  UNL     1      33.146  10.916  -7.099  1.00  0.00     0.164 HD
HETATM    3  C3  UNL     1      31.540  12.217  -6.661  1.00  0.00     0.317 C 
HETATM    4  O2  UNL     1      30.755  12.596  -5.775  1.00  0.00    -0.247 OA
HETATM    5  N3  UNL     1      31.466  12.772  -7.949  1.00  0.00    -0.326 N 
ATOM      6  H3  UNL     1      32.103  12.473  -8.688  1.00  0.00     0.165 HD
ENDROOT
BRANCH   5   7
HETATM    7  C4  UNL     1      30.438  13.803  -8.199  1.00  0.00     0.209 C 
BRANCH   7   8
HETATM    8  C5  UNL     1      31.135  15.076  -8.324  1.00  0.00     0.258 C 
HETATM    9  N4  UNL     1      32.437  15.368  -7.815  1.00  0.00    -0.060 NA
HETATM   10  O3  UNL     1      30.595  16.068  -8.934  1.00  0.00    -0.274 OA
ENDBRANCH   7   8
BRANCH   7  11
HETATM   11  C6  UNL     1      29.698  13.341  -9.386  1.00  0.00    -0.027 A 
HETATM   12  C7  UNL     1      30.398  12.799 -10.445  1.00  0.00     0.010 A 
HETATM   13  C8  UNL     1      29.789  12.349 -11.593  1.00  0.00     0.001 A 
HETATM   14  C9  UNL     1      28.420  12.440 -11.699  1.00  0.00     0.000 A 
HETATM   15  C10 UNL     1      27.689  12.979 -10.656  1.00  0.00     0.001 A 
HETATM   16  C11 UNL     1      28.345  13.427  -9.501  1.00  0.00     0.010 A 
ENDBRANCH   7  11
ENDBRANCH   5   7
BRANCH   1  17
HETATM   17  C2  UNL     1      32.546  10.689  -5.043  1.00  0.00     0.223 C 
BRANCH  17  18
HETATM   18  C1  UNL     1      33.896  10.753  -4.478  1.00  0.00     0.248 C 
HETATM   19  N1  UNL     1      34.575  11.975  -4.233  1.00  0.00    -0.061 NA
HETATM   20  O1  UNL     1      34.476   9.673  -4.197  1.00  0.00    -0.275 OA
ENDBRANCH  17  18
ENDBRANCH   1  17
TORSDOF 5
ENDMDL
MODEL 4
REMARK VINA RESULT: -7.157165910      2.867      6.354
REMARK  5 active torsions:
REMARK  status: ('A' for Active; 'I' for Inactive)
REMARK    1  A    between atoms: C1_2  and  C2_4 
REMARK    2  A    between atoms: C2_4  and  N2_5 
REMARK       I    between atoms: N2_5  and  C3_7 
REMARK       I    between atoms: C3_7  and  N3_9 
REMARK    3  A    between atoms: N3_9  and  C4_11 
REMARK    4  A    between atoms: C4_11  and  C5_12 
REMARK    5  A    between atoms: C4_11  and  C6_15 
ROOT
HETATM    1  N2  UNL     1      32.526  11.264  -6.362  1.00  0.00    -0.335 N 
ATOM      2  H2  UNL     1      33.190  10.948  -7.068  1.00  0.00     0.164 HD
HETATM    3  C3  UNL     1      31.561  12.232  -6.666  1.00  0.00     0.317 C 
HETATM    4  O2  UNL     1      30.757  12.608  -5.796  1.00  0.00    -0.247 OA
HETATM    5  N3  UNL     1      31.503  12.778  -7.959  1.00  0.00    -0.326 N 
ATOM      6  H3  UNL     1      32.156  12.482  -8.685  1.00  0.00     0.165 HD
ENDROOT
BRANCH   5   7
HETATM    7  C4  UNL     1      30.468  13.796  -8.233  1.00  0.00     0.209 C 
BRANCH   7   8
HETATM    8  C5  UNL     1      31.150  15.079  -8.337  1.00  0.00     0.258 C 
HETATM    9  N4  UNL     1      32.450  15.377  -7.825  1.00  0.00    -0.060 NA
HETATM   10  O3  UNL     1      30.598  16.075  -8.928  1.00  0.00    -0.274 OA
ENDBRANCH   7   8
BRANCH   7  11
HETATM   11  C6  UNL     1      29.765  13.327  -9.440  1.00  0.00    -0.027 A 
HETATM   12  C7  UNL     1      28.388  13.403  -9.488  1.00  0.00     0.010 A 
HETATM   13  C8  UNL     1      27.652  12.982 -10.571  1.00  0.00     0.001 A 
HETATM   14  C9  UNL     1      28.311  12.459 -11.659  1.00  0.00     0.000 A 
HETATM   15  C10 UNL     1      29.691  12.369 -11.643  1.00  0.00     0.001 A 
HETATM   16  C11 UNL     1      30.407  12.809 -10.521  1.00  0.00     0.010 A 
ENDBRANCH   7  11
ENDBRANCH   5   7
BRANCH   1  17
HETATM   17  C2  UNL     1      32.557  10.726  -5.022  1.00  0.00     0.223 C 
BRANCH  17  18
HETATM   18  C1  UNL     1      33.905  10.770  -4.450  1.00  0.00     0.248 C 
HETATM   19  N1  UNL     1      34.580  11.982  -4.153  1.00  0.00    -0.061 NA
HETATM   20  O1  UNL     1      34.487   9.681  -4.212  1.00  0.00    -0.275 OA
ENDBRANCH  17  18
ENDBRANCH   1  17
TORSDOF 5
ENDMDL
MODEL 5
REMARK VINA RESULT: -6.849377556      2.706      6.085
REMARK  5 active torsions:
REMARK  status: ('A' for Active; 'I' for Inactive)
REMARK    1  A    between atoms: C1_2  and  C2_4 
REMARK    2  A    between atoms: C2_4  and  N2_5 
REMARK       I    between atoms: N2_5  and  C3_7 
REMARK       I    between atoms: C3_7  and  N3_9 
REMARK    3  A    between atoms: N3_9  and  C4_11 
REMARK    4  A    between atoms: C4_11  and  C5_12 
REMARK    5  A    between atoms: C4_11  and  C6_15 
ROOT
HETATM    1  N2  UNL     1      32.769  12.266  -7.096  1.00  0.00    -0.335 N 
ATOM      2  H2  UNL     1      33.429  12.071  -7.848  1.00  0.00     0.164 HD
HETATM    3  C3  UNL     1      31.505  12.803  -7.372  1.00  0.00     0.317 C 
HETATM    4  O2  UNL     1      30.709  13.035  -6.447  1.00  0.00    -0.247 OA
HETATM    5  N3  UNL     1      31.139  13.080  -8.700  1.00  0.00    -0.326 N 
ATOM      6  H3  UNL     1      31.781  12.896  -9.472  1.00  0.00     0.165 HD
ENDROOT
BRANCH   5   7
HETATM    7  C4  UNL     1      29.796  13.645  -8.942  1.00  0.00     0.209 C 
BRANCH   7   8
HETATM    8  C5  UNL     1      29.963  15.083  -9.107  1.00  0.00     0.258 C 
HETATM    9  N4  UNL     1      31.210  15.780  -9.138  1.00  0.00    -0.060 NA
HETATM   10  O3  UNL     1      28.948  15.855  -9.245  1.00  0.00    -0.274 OA
ENDBRANCH   7   8
BRANCH   7  11
HETATM   11  C6  UNL     1      29.263  12.910 -10.102  1.00  0.00    -0.027 A 
HETATM   12  C7  UNL     1      27.918  12.601 -10.142  1.00  0.00     0.010 A 
HETATM   13  C8  UNL     1      27.338  11.912 -11.181  1.00  0.00     0.001 A 
HETATM   14  C9  UNL     1      28.127  11.507 -12.233  1.00  0.00     0.000 A 
HETATM   15  C10 UNL     1      29.479  11.800 -12.223  1.00  0.00     0.001 A 
HETATM   16  C11 UNL     1      30.035  12.505 -11.146  1.00  0.00     0.010 A 
ENDBRANCH   7  11
ENDBRANCH   5   7
BRANCH   1  17
HETATM   17  C2  UNL     1      33.112  11.996  -5.720  1.00  0.00     0.223 C 
BRANCH  17  18
HETATM   18  C1  UNL     1      33.079  10.563  -5.423  1.00  0.00     0.248 C 
HETATM   19  N1  UNL     1      34.235   9.739  -5.457  1.00  0.00    -0.061 NA
HETATM   20  O1  UNL     1      31.975  10.041  -5.124  1.00  0.00    -0.275 OA
ENDBRANCH  17  18
ENDBRANCH   1  17
TORSDOF 5
ENDMDL
