MODEL 1
REMARK VINA RESULT: -5.062728726      0.000      0.000
REMARK  5 active torsions:
REMARK  status: ('A' for Active; 'I' for Inactive)
REMARK    1  A    between atoms: N1_1  and  C1_4 
REMARK    2  A    between atoms: C2_7  and  C3_8 
REMARK    3  A    between atoms: N3_9  and  N4_11 
REMARK    4  A    between atoms: N4_11  and  C4_13 
REMARK    5  A    between atoms: C4_13  and  N5_14 
ROOT
HETATM    1  C1  UNL     1      11.557   6.060   3.190  1.00  0.00     0.698 A 
HETATM    2  N2  UNL     1      12.025   5.984   4.458  1.00  0.00    -0.166 N 
ATOM      3  H2  UNL     1      11.807   5.238   5.118  1.00  0.00     0.186 HD
HETATM    4  C2  UNL     1      12.814   7.032   4.716  1.00  0.00     0.202 A 
HETATM    5  O1  UNL     1      12.833   7.742   3.627  1.00  0.00    -0.203 OA
HETATM    6  N6  UNL     1      12.094   7.190   2.697  1.00  0.00    -0.089 N 
ATOM      7  H6  UNL     1      11.951   7.557   1.756  1.00  0.00     0.213 HD
ENDROOT
BRANCH   4   8
HETATM    8  C3  UNL     1      13.533   7.368   5.940  1.00  0.00     0.165 C 
HETATM    9  N3  UNL     1      14.366   8.337   5.984  1.00  0.00    -0.310 N 
ATOM     10  H3  UNL     1      14.539   8.895   5.147  1.00  0.00     0.185 HD
BRANCH   9  11
HETATM   11  N4  UNL     1      15.038   8.637   7.161  1.00  0.00    -0.311 N 
ATOM     12  H4  UNL     1      14.723   9.412   7.746  1.00  0.00     0.182 HD
BRANCH  11  13
HETATM   13  C4  UNL     1      16.167   7.863   7.552  1.00  0.00     0.368 C 
BRANCH  13  14
HETATM   14  N5  UNL     1      17.093   7.593   6.499  1.00  0.00    -0.062 N 
ATOM     15  H53 UNL     1      16.655   7.017   5.780  1.00  0.00     0.276 HD
ATOM     16  H52 UNL     1      17.275   8.439   5.960  1.00  0.00     0.276 HD
ATOM     17  H51 UNL     1      17.971   7.171   6.804  1.00  0.00     0.276 HD
ENDBRANCH  13  14
ENDBRANCH  11  13
ENDBRANCH   9  11
ENDBRANCH   4   8
BRANCH   1  18
HETATM   18  N1  UNL     1      10.774   5.266   2.544  1.00  0.00    -0.233 N 
ATOM     19  H12 UNL     1      10.717   4.256   2.680  1.00  0.00     0.174 HD
ATOM     20  H11 UNL     1      10.092   5.465   1.811  1.00  0.00     0.174 HD
ENDBRANCH   1  18
TORSDOF 5
ENDMDL
MODEL 2
REMARK VINA RESULT: -5.040488850      1.413      5.398
REMARK  5 active torsions:
REMARK  status: ('A' for Active; 'I' for Inactive)
REMARK    1  A    between atoms: N1_1  and  C1_4 
REMARK    2  A    between atoms: C2_7  and  C3_8 
REMARK    3  A    between atoms: N3_9  and  N4_11 
REMARK    4  A    between atoms: N4_11  and  C4_13 
REMARK    5  A    between atoms: C4_13  and  N5_14 
ROOT
HETATM    1  C1  UNL     1      15.028   7.966   7.505  1.00  0.00     0.698 A 
HETATM    2  N2  UNL     1      14.343   6.807   7.372  1.00  0.00    -0.166 N 
ATOM      3  H2  UNL     1      14.392   6.021   8.019  1.00  0.00     0.186 HD
HETATM    4  C2  UNL     1      13.592   6.845   6.266  1.00  0.00     0.202 A 
HETATM    5  O1  UNL     1      13.811   8.008   5.726  1.00  0.00    -0.203 OA
HETATM    6  N6  UNL     1      14.662   8.702   6.440  1.00  0.00    -0.089 N 
ATOM      7  H6  UNL     1      14.991   9.643   6.224  1.00  0.00     0.213 HD
ENDROOT
BRANCH   4   8
HETATM    8  C3  UNL     1      12.696   5.831   5.722  1.00  0.00     0.165 C 
HETATM    9  N3  UNL     1      12.082   6.005   4.614  1.00  0.00    -0.310 N 
ATOM     10  H3  UNL     1      12.215   6.870   4.090  1.00  0.00     0.185 HD
BRANCH   9  11
HETATM   11  N4  UNL     1      11.233   5.024   4.117  1.00  0.00    -0.311 N 
ATOM     12  H4  UNL     1      11.090   4.159   4.639  1.00  0.00     0.182 HD
BRANCH  11  13
HETATM   13  C4  UNL     1      10.563   5.227   2.877  1.00  0.00     0.368 C 
BRANCH  13  14
HETATM   14  N5  UNL     1      10.925   6.429   2.197  1.00  0.00    -0.062 N 
ATOM     15  H53 UNL     1      11.682   6.902   2.690  1.00  0.00     0.276 HD
ATOM     16  H52 UNL     1      11.396   6.212   1.318  1.00  0.00     0.276 HD
ATOM     17  H51 UNL     1      10.151   7.074   2.034  1.00  0.00     0.276 HD
ENDBRANCH  13  14
ENDBRANCH  11  13
ENDBRANCH   9  11
ENDBRANCH   4   8
BRANCH   1  18
HETATM   18  N1  UNL     1      15.857   8.342   8.418  1.00  0.00    -0.233 N 
ATOM     19  H12 UNL     1      16.866   8.435   8.297  1.00  0.00     0.174 HD
ATOM     20  H11 UNL     1      15.690   8.609   9.389  1.00  0.00     0.174 HD
ENDBRANCH   1  18
TORSDOF 5
ENDMDL
MODEL 3
REMARK VINA RESULT: -5.003448414      2.008      5.544
REMARK  5 active torsions:
REMARK  status: ('A' for Active; 'I' for Inactive)
REMARK    1  A    between atoms: N1_1  and  C1_4 
REMARK    2  A    between atoms: C2_7  and  C3_8 
REMARK    3  A    between atoms: N3_9  and  N4_11 
REMARK    4  A    between atoms: N4_11  and  C4_13 
REMARK    5  A    between atoms: C4_13  and  N5_14 
ROOT
HETATM    1  C1  UNL     1      14.762   7.863   7.403  1.00  0.00     0.698 A 
HETATM    2  N2  UNL     1      13.944   6.795   7.252  1.00  0.00    -0.166 N 
ATOM      3  H2  UNL     1      13.784   6.076   7.958  1.00  0.00     0.186 HD
HETATM    4  C2  UNL     1      13.375   6.823   6.042  1.00  0.00     0.202 A 
HETATM    5  O1  UNL     1      13.835   7.889   5.457  1.00  0.00    -0.203 OA
HETATM    6  N6  UNL     1      14.663   8.532   6.241  1.00  0.00    -0.089 N 
ATOM      7  H6  UNL     1      15.153   9.397   6.008  1.00  0.00     0.213 HD
ENDROOT
BRANCH   4   8
HETATM    8  C3  UNL     1      12.431   5.887   5.443  1.00  0.00     0.165 C 
HETATM    9  N3  UNL     1      11.380   5.505   6.065  1.00  0.00    -0.310 N 
ATOM     10  H3  UNL     1      11.190   5.858   7.003  1.00  0.00     0.185 HD
BRANCH   9  11
HETATM   11  N4  UNL     1      10.496   4.612   5.473  1.00  0.00    -0.311 N 
ATOM     12  H4  UNL     1      10.043   3.892   6.036  1.00  0.00     0.182 HD
BRANCH  11  13
HETATM   13  C4  UNL     1      10.222   4.703   4.079  1.00  0.00     0.368 C 
BRANCH  13  14
HETATM   14  N5  UNL     1       8.834   4.685   3.745  1.00  0.00    -0.062 N 
ATOM     15  H53 UNL     1       8.325   5.370   4.303  1.00  0.00     0.276 HD
ATOM     16  H52 UNL     1       8.688   5.074   2.813  1.00  0.00     0.276 HD
ATOM     17  H51 UNL     1       8.392   3.768   3.819  1.00  0.00     0.276 HD
ENDBRANCH  13  14
ENDBRANCH  11  13
ENDBRANCH   9  11
ENDBRANCH   4   8
BRANCH   1  18
HETATM   18  N1  UNL     1      15.494   8.214   8.404  1.00  0.00    -0.233 N 
ATOM     19  H12 UNL     1      15.219   8.876   9.130  1.00  0.00     0.174 HD
ATOM     20  H11 UNL     1      16.436   7.924   8.665  1.00  0.00     0.174 HD
ENDBRANCH   1  18
TORSDOF 5
ENDMDL
MODEL 4
REMARK VINA RESULT: -4.991059408      1.662      5.489
REMARK  5 active torsions:
REMARK  status: ('A' for Active; 'I' for Inactive)
REMARK    1  A    between atoms: N1_1  and  C1_4 
REMARK    2  A    between atoms: C2_7  and  C3_8 
REMARK    3  A    between atoms: N3_9  and  N4_11 
REMARK    4  A    between atoms: N4_11  and  C4_13 
REMARK    5  A    between atoms: C4_13  and  N5_14 
ROOT
HETATM    1  C1  UNL     1      14.947   8.169   7.559  1.00  0.00     0.698 A 
HETATM    2  N2  UNL     1      14.199   8.340   6.444  1.00  0.00    -0.166 N 
ATOM      3  H2  UNL     1      14.018   9.236   5.993  1.00  0.00     0.186 HD
HETATM    4  C2  UNL     1      13.731   7.160   6.024  1.00  0.00     0.202 A 
HETATM    5  O1  UNL     1      14.182   6.277   6.864  1.00  0.00    -0.203 OA
HETATM    6  N6  UNL     1      14.911   6.845   7.792  1.00  0.00    -0.089 N 
ATOM      7  H6  UNL     1      15.375   6.363   8.562  1.00  0.00     0.213 HD
ENDROOT
BRANCH   4   8
HETATM    8  C3  UNL     1      12.887   6.858   4.873  1.00  0.00     0.165 C 
HETATM    9  N3  UNL     1      12.866   7.613   3.840  1.00  0.00    -0.310 N 
ATOM     10  H3  UNL     1      13.451   8.449   3.812  1.00  0.00     0.185 HD
BRANCH   9  11
HETATM   11  N4  UNL     1      12.054   7.304   2.757  1.00  0.00    -0.311 N 
ATOM     12  H4  UNL     1      12.041   7.913   1.939  1.00  0.00     0.182 HD
BRANCH  11  13
HETATM   13  C4  UNL     1      11.240   6.137   2.790  1.00  0.00     0.368 C 
BRANCH  13  14
HETATM   14  N5  UNL     1      10.123   6.167   1.901  1.00  0.00    -0.062 N 
ATOM     15  H53 UNL     1       9.642   5.268   1.904  1.00  0.00     0.276 HD
ATOM     16  H52 UNL     1       9.385   6.762   2.278  1.00  0.00     0.276 HD
ATOM     17  H51 UNL     1      10.349   6.445   0.946  1.00  0.00     0.276 HD
ENDBRANCH  13  14
ENDBRANCH  11  13
ENDBRANCH   9  11
ENDBRANCH   4   8
BRANCH   1  18
HETATM   18  N1  UNL     1      15.575   9.035   8.279  1.00  0.00    -0.233 N 
ATOM     19  H12 UNL     1      16.571   9.245   8.211  1.00  0.00     0.174 HD
ATOM     20  H11 UNL     1      15.232   9.650   9.017  1.00  0.00     0.174 HD
ENDBRANCH   1  18
TORSDOF 5
ENDMDL
MODEL 5
REMARK VINA RESULT: -4.982657579      1.325      1.399
REMARK  5 active torsions:
REMARK  status: ('A' for Active; 'I' for Inactive)
REMARK    1  A    between atoms: N1_1  and  C1_4 
REMARK    2  A    between atoms: C2_7  and  C3_8 
REMARK    3  A    between atoms: N3_9  and  N4_11 
REMARK    4  A    between atoms: N4_11  and  C4_13 
REMARK    5  A    between atoms: C4_13  and  N5_14 
ROOT
HETATM    1  C1  UNL     1      11.013   5.927   2.731  1.00  0.00     0.698 A 
HETATM    2  N2  UNL     1      11.331   5.488   3.971  1.00  0.00    -0.166 N 
ATOM      3  H2  UNL     1      10.859   4.729   4.461  1.00  0.00     0.186 HD
HETATM    4  C2  UNL     1      12.355   6.198   4.457  1.00  0.00     0.202 A 
HETATM    5  O1  UNL     1      12.663   7.059   3.533  1.00  0.00    -0.203 OA
HETATM    6  N6  UNL     1      11.883   6.924   2.490  1.00  0.00    -0.089 N 
ATOM      7  H6  UNL     1      11.928   7.483   1.637  1.00  0.00     0.213 HD
ENDROOT
BRANCH   4   8
HETATM    8  C3  UNL     1      13.030   6.082   5.745  1.00  0.00     0.165 C 
HETATM    9  N3  UNL     1      13.770   7.021   6.201  1.00  0.00    -0.310 N 
ATOM     10  H3  UNL     1      13.896   7.875   5.657  1.00  0.00     0.185 HD
BRANCH   9  11
HETATM   11  N4  UNL     1      14.402   6.887   7.429  1.00  0.00    -0.311 N 
ATOM     12  H4  UNL     1      14.065   6.202   8.106  1.00  0.00     0.182 HD
BRANCH  11  13
HETATM   13  C4  UNL     1      15.522   7.707   7.745  1.00  0.00     0.368 C 
BRANCH  13  14
HETATM   14  N5  UNL     1      15.225   8.816   8.595  1.00  0.00    -0.062 N 
ATOM     15  H53 UNL     1      15.791   8.775   9.442  1.00  0.00     0.276 HD
ATOM     16  H52 UNL     1      15.580   9.681   8.188  1.00  0.00     0.276 HD
ATOM     17  H51 UNL     1      14.238   8.914   8.833  1.00  0.00     0.276 HD
ENDBRANCH  13  14
ENDBRANCH  11  13
ENDBRANCH   9  11
ENDBRANCH   4   8
BRANCH   1  18
HETATM   18  N1  UNL     1      10.100   5.524   1.915  1.00  0.00    -0.233 N 
ATOM     19  H12 UNL     1      10.252   4.900   1.122  1.00  0.00     0.174 HD
ATOM     20  H11 UNL     1       9.100   5.729   1.893  1.00  0.00     0.174 HD
ENDBRANCH   1  18
TORSDOF 5
ENDMDL
