MODEL 1
REMARK VINA RESULT: -5.783688874      0.000      0.000
REMARK  5 active torsions:
REMARK  status: ('A' for Active; 'I' for Inactive)
REMARK    1  A    between atoms: O1_1  and  C1_3 
REMARK    2  A    between atoms: C1_3  and  N1_4 
REMARK    3  A    between atoms: C1_3  and  C4_11 
REMARK    4  A    between atoms: N1_4  and  N2_5 
REMARK    5  A    between atoms: N2_5  and  C2_7 
ROOT
HETATM    1  C1  UNL     1      13.226   7.718   5.055  1.00  0.00     0.283 C 
ENDROOT
BRANCH   1   2
HETATM    2  O1  UNL     1      12.979   9.080   4.894  1.00  0.00    -0.372 OA
ATOM      3  H1  UNL     1      12.558   9.221   4.054  1.00  0.00     0.212 HD
ENDBRANCH   1   2
BRANCH   1   4
HETATM    4  N1  UNL     1      12.935   7.348   6.412  1.00  0.00    -0.101 NA
BRANCH   4   5
HETATM    5  N2  UNL     1      14.053   6.693   6.922  1.00  0.00    -0.285 N 
ATOM      6  H2  UNL     1      14.014   5.684   7.061  1.00  0.00     0.184 HD
BRANCH   5   7
HETATM    7  C2  UNL     1      15.239   7.384   7.254  1.00  0.00     0.132 A 
HETATM    8  N3  UNL     1      15.978   8.150   7.999  1.00  0.00    -0.347 N 
HETATM    9  C3  UNL     1      16.653   7.715   6.856  1.00  0.00     0.139 A 
ATOM     10  H3  UNL     1      16.030   8.704   8.854  1.00  0.00     0.167 HD
ENDBRANCH   5   7
ENDBRANCH   4   5
ENDBRANCH   1   4
BRANCH   1  11
HETATM   11  C4  UNL     1      12.372   6.947   4.082  1.00  0.00     0.073 A 
HETATM   12  C5  UNL     1      11.723   5.751   4.313  1.00  0.00     0.049 A 
HETATM   13  C6  UNL     1      11.039   5.374   3.152  1.00  0.00     0.109 A 
HETATM   14  N4  UNL     1      11.298   6.351   2.269  1.00  0.00    -0.312 N 
HETATM   15  N5  UNL     1      12.082   7.279   2.812  1.00  0.00    -0.301 N 
ATOM     16  H4  UNL     1      10.944   6.378   1.313  1.00  0.00     0.186 HD
ATOM     17  H5  UNL     1      12.413   8.118   2.335  1.00  0.00     0.186 HD
ENDBRANCH   1  11
TORSDOF 5
ENDMDL
MODEL 2
REMARK VINA RESULT: -5.646259409      1.609      5.324
REMARK  5 active torsions:
REMARK  status: ('A' for Active; 'I' for Inactive)
REMARK    1  A    between atoms: O1_1  and  C1_3 
REMARK    2  A    between atoms: C1_3  and  N1_4 
REMARK    3  A    between atoms: C1_3  and  C4_11 
REMARK    4  A    between atoms: N1_4  and  N2_5 
REMARK    5  A    between atoms: N2_5  and  C2_7 
ROOT
HETATM    1  C1  UNL     1      13.004   6.815   5.269  1.00  0.00     0.283 C 
ENDROOT
BRANCH   1   2
HETATM    2  O1  UNL     1      11.937   6.284   5.992  1.00  0.00    -0.372 OA
ATOM      3  H1  UNL     1      12.038   5.341   6.045  1.00  0.00     0.212 HD
ENDBRANCH   1   2
BRANCH   1   4
HETATM    4  N1  UNL     1      12.508   7.827   4.380  1.00  0.00    -0.101 NA
BRANCH   4   5
HETATM    5  N2  UNL     1      12.482   7.289   3.096  1.00  0.00    -0.285 N 
ATOM      6  H2  UNL     1      13.251   7.494   2.459  1.00  0.00     0.184 HD
BRANCH   5   7
HETATM    7  C2  UNL     1      11.424   6.468   2.649  1.00  0.00     0.132 A 
HETATM    8  N3  UNL     1      10.400   6.180   1.902  1.00  0.00    -0.347 N 
HETATM    9  C3  UNL     1      10.697   5.159   2.807  1.00  0.00     0.139 A 
ATOM     10  H3  UNL     1       9.786   6.494   1.151  1.00  0.00     0.167 HD
ENDBRANCH   5   7
ENDBRANCH   4   5
ENDBRANCH   1   4
BRANCH   1  11
HETATM   11  C4  UNL     1      14.015   7.381   6.233  1.00  0.00     0.073 A 
HETATM   12  C5  UNL     1      14.540   6.759   7.346  1.00  0.00     0.049 A 
HETATM   13  C6  UNL     1      15.445   7.627   7.968  1.00  0.00     0.109 A 
HETATM   14  N4  UNL     1      15.431   8.735   7.210  1.00  0.00    -0.312 N 
HETATM   15  N5  UNL     1      14.592   8.594   6.188  1.00  0.00    -0.301 N 
ATOM     16  H4  UNL     1      15.989   9.569   7.393  1.00  0.00     0.186 HD
ATOM     17  H5  UNL     1      14.413   9.303   5.475  1.00  0.00     0.186 HD
ENDBRANCH   1  11
TORSDOF 5
ENDMDL
MODEL 3
REMARK VINA RESULT: -5.599129065      1.370      5.331
REMARK  5 active torsions:
REMARK  status: ('A' for Active; 'I' for Inactive)
REMARK    1  A    between atoms: O1_1  and  C1_3 
REMARK    2  A    between atoms: C1_3  and  N1_4 
REMARK    3  A    between atoms: C1_3  and  C4_11 
REMARK    4  A    between atoms: N1_4  and  N2_5 
REMARK    5  A    between atoms: N2_5  and  C2_7 
ROOT
HETATM    1  C1  UNL     1      12.889   7.872   5.234  1.00  0.00     0.283 C 
ENDROOT
BRANCH   1   2
HETATM    2  O1  UNL     1      12.879   9.116   4.605  1.00  0.00    -0.372 OA
ATOM      3  H1  UNL     1      13.618   9.167   4.010  1.00  0.00     0.212 HD
ENDBRANCH   1   2
BRANCH   1   4
HETATM    4  N1  UNL     1      13.030   6.847   4.238  1.00  0.00    -0.101 NA
BRANCH   4   5
HETATM    5  N2  UNL     1      12.286   7.230   3.125  1.00  0.00    -0.285 N 
ATOM      6  H2  UNL     1      12.470   8.136   2.696  1.00  0.00     0.184 HD
BRANCH   5   7
HETATM    7  C2  UNL     1      11.284   6.402   2.573  1.00  0.00     0.132 A 
HETATM    8  N3  UNL     1      10.308   6.129   1.761  1.00  0.00    -0.347 N 
HETATM    9  C3  UNL     1      10.607   5.058   2.607  1.00  0.00     0.139 A 
ATOM     10  H3  UNL     1       9.716   6.471   1.004  1.00  0.00     0.167 HD
ENDBRANCH   5   7
ENDBRANCH   4   5
ENDBRANCH   1   4
BRANCH   1  11
HETATM   11  C4  UNL     1      14.024   7.832   6.224  1.00  0.00     0.073 A 
HETATM   12  C5  UNL     1      14.279   6.849   7.157  1.00  0.00     0.049 A 
HETATM   13  C6  UNL     1      15.427   7.193   7.879  1.00  0.00     0.109 A 
HETATM   14  N4  UNL     1      15.820   8.366   7.357  1.00  0.00    -0.312 N 
HETATM   15  N5  UNL     1      14.998   8.746   6.383  1.00  0.00    -0.301 N 
ATOM     16  H4  UNL     1      16.637   8.893   7.666  1.00  0.00     0.186 HD
ATOM     17  H5  UNL     1      15.093   9.603   5.838  1.00  0.00     0.186 HD
ENDBRANCH   1  11
TORSDOF 5
ENDMDL
MODEL 4
REMARK VINA RESULT: -5.417405580      1.738      1.830
REMARK  5 active torsions:
REMARK  status: ('A' for Active; 'I' for Inactive)
REMARK    1  A    between atoms: O1_1  and  C1_3 
REMARK    2  A    between atoms: C1_3  and  N1_4 
REMARK    3  A    between atoms: C1_3  and  C4_11 
REMARK    4  A    between atoms: N1_4  and  N2_5 
REMARK    5  A    between atoms: N2_5  and  C2_7 
ROOT
HETATM    1  C1  UNL     1      12.434   5.390   5.778  1.00  0.00     0.283 C 
ENDROOT
BRANCH   1   2
HETATM    2  O1  UNL     1      13.632   4.693   5.634  1.00  0.00    -0.372 OA
ATOM      3  H1  UNL     1      14.246   4.994   6.294  1.00  0.00     0.212 HD
ENDBRANCH   1   2
BRANCH   1   4
HETATM    4  N1  UNL     1      12.669   6.565   6.569  1.00  0.00    -0.101 NA
BRANCH   4   5
HETATM    5  N2  UNL     1      14.004   6.549   6.967  1.00  0.00    -0.285 N 
ATOM      6  H2  UNL     1      14.479   5.653   7.066  1.00  0.00     0.184 HD
BRANCH   5   7
HETATM    7  C2  UNL     1      14.719   7.736   7.237  1.00  0.00     0.132 A 
HETATM    8  N3  UNL     1      15.431   8.774   6.912  1.00  0.00    -0.347 N 
HETATM    9  C3  UNL     1      15.181   8.713   8.286  1.00  0.00     0.139 A 
ATOM     10  H3  UNL     1      15.877   9.291   6.155  1.00  0.00     0.167 HD
ENDBRANCH   5   7
ENDBRANCH   4   5
ENDBRANCH   1   4
BRANCH   1  11
HETATM   11  C4  UNL     1      11.908   5.747   4.412  1.00  0.00     0.073 A 
HETATM   12  C5  UNL     1      10.974   5.051   3.673  1.00  0.00     0.049 A 
HETATM   13  C6  UNL     1      10.764   5.718   2.461  1.00  0.00     0.109 A 
HETATM   14  N4  UNL     1      11.574   6.787   2.514  1.00  0.00    -0.312 N 
HETATM   15  N5  UNL     1      12.249   6.809   3.660  1.00  0.00    -0.301 N 
ATOM     16  H4  UNL     1      11.661   7.487   1.776  1.00  0.00     0.186 HD
ATOM     17  H5  UNL     1      12.925   7.524   3.928  1.00  0.00     0.186 HD
ENDBRANCH   1  11
TORSDOF 5
ENDMDL
MODEL 5
REMARK VINA RESULT: -5.389687082      1.950      5.638
REMARK  5 active torsions:
REMARK  status: ('A' for Active; 'I' for Inactive)
REMARK    1  A    between atoms: O1_1  and  C1_3 
REMARK    2  A    between atoms: C1_3  and  N1_4 
REMARK    3  A    between atoms: C1_3  and  C4_11 
REMARK    4  A    between atoms: N1_4  and  N2_5 
REMARK    5  A    between atoms: N2_5  and  C2_7 
ROOT
HETATM    1  C1  UNL     1      12.038   6.919   3.444  1.00  0.00     0.283 C 
ENDROOT
BRANCH   1   2
HETATM    2  O1  UNL     1      12.830   7.059   2.306  1.00  0.00    -0.372 OA
ATOM      3  H1  UNL     1      12.971   7.983   2.139  1.00  0.00     0.212 HD
ENDBRANCH   1   2
BRANCH   1   4
HETATM    4  N1  UNL     1      11.551   5.570   3.511  1.00  0.00    -0.101 NA
BRANCH   4   5
HETATM    5  N2  UNL     1      10.883   5.299   2.319  1.00  0.00    -0.285 N 
ATOM      6  H2  UNL     1      11.340   4.717   1.618  1.00  0.00     0.184 HD
BRANCH   5   7
HETATM    7  C2  UNL     1       9.593   5.807   2.051  1.00  0.00     0.132 A 
HETATM    8  N3  UNL     1       8.750   6.641   1.521  1.00  0.00    -0.347 N 
HETATM    9  C3  UNL     1       8.111   5.649   2.270  1.00  0.00     0.139 A 
ATOM     10  H3  UNL     1       8.632   7.472   0.941  1.00  0.00     0.167 HD
ENDBRANCH   5   7
ENDBRANCH   4   5
ENDBRANCH   1   4
BRANCH   1  11
HETATM   11  C4  UNL     1      12.860   7.264   4.659  1.00  0.00     0.073 A 
HETATM   12  C5  UNL     1      13.172   6.432   5.714  1.00  0.00     0.049 A 
HETATM   13  C6  UNL     1      13.954   7.139   6.634  1.00  0.00     0.109 A 
HETATM   14  N4  UNL     1      14.084   8.365   6.102  1.00  0.00    -0.312 N 
HETATM   15  N5  UNL     1      13.442   8.443   4.940  1.00  0.00    -0.301 N 
ATOM     16  H4  UNL     1      14.603   9.132   6.531  1.00  0.00     0.186 HD
ATOM     17  H5  UNL     1      13.398   9.274   4.349  1.00  0.00     0.186 HD
ENDBRANCH   1  11
TORSDOF 5
ENDMDL
