MODEL 1
REMARK VINA RESULT: -5.416175805      0.000      0.000
REMARK  4 active torsions:
REMARK  status: ('A' for Active; 'I' for Inactive)
REMARK    1  A    between atoms: O1_1  and  C1_3 
REMARK    2  A    between atoms: C1_3  and  N1_4 
REMARK    3  A    between atoms: N1_4  and  N2_5 
REMARK    4  A    between atoms: N2_5  and  C2_7 
ROOT
HETATM    1  C2  UNL     1      11.039   6.293   2.539  1.00  0.00     0.176 A 
HETATM    2  N3  UNL     1       9.975   6.292   1.764  1.00  0.00    -0.280 N 
ATOM      3  H3  UNL     1       9.794   6.924   0.984  1.00  0.00     0.188 HD
HETATM    4  N4  UNL     1       9.171   5.301   2.194  1.00  0.00    -0.282 N 
ATOM      5  H4  UNL     1       8.268   5.063   1.784  1.00  0.00     0.188 HD
HETATM    6  C3  UNL     1       9.730   4.673   3.240  1.00  0.00     0.152 A 
HETATM    7  N5  UNL     1       9.599   3.672   4.159  1.00  0.00    -0.336 N 
ATOM      8  H5  UNL     1       8.806   3.033   4.221  1.00  0.00     0.168 HD
HETATM    9  C4  UNL     1      10.689   3.654   4.985  1.00  0.00     0.182 A 
HETATM   10  N6  UNL     1      11.479   4.652   4.547  1.00  0.00    -0.346 N 
ATOM     11  H6  UNL     1      12.377   4.897   4.964  1.00  0.00     0.167 HD
HETATM   12  C5  UNL     1      10.929   5.298   3.477  1.00  0.00     0.127 A 
ENDROOT
BRANCH   1  13
HETATM   13  N2  UNL     1      12.215   7.194   2.472  1.00  0.00    -0.214 N 
ATOM     14  H2  UNL     1      12.686   7.381   1.587  1.00  0.00     0.203 HD
BRANCH  13  15
HETATM   15  N1  UNL     1      12.632   7.748   3.599  1.00  0.00    -0.313 NA
BRANCH  15  16
HETATM   16  C1  UNL     1      13.060   8.316   4.746  1.00  0.00     0.343 C 
BRANCH  16  17
HETATM   17  O1  UNL     1      12.917   9.636   4.890  1.00  0.00    -0.344 OA
ATOM     18  H1  UNL     1      12.787  10.162   4.109  1.00  0.00     0.219 HD
ENDBRANCH  16  17
ENDBRANCH  15  16
ENDBRANCH  13  15
ENDBRANCH   1  13
TORSDOF 4
ENDMDL
MODEL 2
REMARK VINA RESULT: -5.352588991      1.130      2.369
REMARK  4 active torsions:
REMARK  status: ('A' for Active; 'I' for Inactive)
REMARK    1  A    between atoms: O1_1  and  C1_3 
REMARK    2  A    between atoms: C1_3  and  N1_4 
REMARK    3  A    between atoms: N1_4  and  N2_5 
REMARK    4  A    between atoms: N2_5  and  C2_7 
ROOT
HETATM    1  C2  UNL     1      11.079   5.983   2.929  1.00  0.00     0.176 A 
HETATM    2  N3  UNL     1      11.231   4.944   3.724  1.00  0.00    -0.280 N 
ATOM      3  H3  UNL     1      12.059   4.720   4.275  1.00  0.00     0.188 HD
HETATM    4  N4  UNL     1      10.089   4.233   3.673  1.00  0.00    -0.282 N 
ATOM      5  H4  UNL     1       9.915   3.369   4.186  1.00  0.00     0.188 HD
HETATM    6  C3  UNL     1       9.212   4.826   2.847  1.00  0.00     0.152 A 
HETATM    7  N5  UNL     1       7.963   4.773   2.297  1.00  0.00    -0.336 N 
ATOM      8  H5  UNL     1       7.271   4.048   2.483  1.00  0.00     0.168 HD
HETATM    9  C4  UNL     1       7.779   5.839   1.459  1.00  0.00     0.182 A 
HETATM   10  N6  UNL     1       8.930   6.534   1.516  1.00  0.00    -0.346 N 
ATOM     11  H6  UNL     1       9.107   7.393   0.995  1.00  0.00     0.167 HD
HETATM   12  C5  UNL     1       9.832   5.949   2.359  1.00  0.00     0.127 A 
ENDROOT
BRANCH   1  13
HETATM   13  N2  UNL     1      12.054   7.063   2.645  1.00  0.00    -0.214 N 
ATOM     14  H2  UNL     1      12.306   7.307   1.687  1.00  0.00     0.203 HD
BRANCH  13  15
HETATM   15  N1  UNL     1      12.585   7.700   3.675  1.00  0.00    -0.313 NA
BRANCH  15  16
HETATM   16  C1  UNL     1      13.127   8.346   4.730  1.00  0.00     0.343 C 
BRANCH  16  17
HETATM   17  O1  UNL     1      12.899   9.656   4.853  1.00  0.00    -0.344 OA
ATOM     18  H1  UNL     1      12.000   9.951   4.934  1.00  0.00     0.219 HD
ENDBRANCH  16  17
ENDBRANCH  15  16
ENDBRANCH  13  15
ENDBRANCH   1  13
TORSDOF 4
ENDMDL
MODEL 3
REMARK VINA RESULT: -5.338162287      1.072      2.438
REMARK  4 active torsions:
REMARK  status: ('A' for Active; 'I' for Inactive)
REMARK    1  A    between atoms: O1_1  and  C1_3 
REMARK    2  A    between atoms: C1_3  and  N1_4 
REMARK    3  A    between atoms: N1_4  and  N2_5 
REMARK    4  A    between atoms: N2_5  and  C2_7 
ROOT
HETATM    1  C2  UNL     1      11.075   5.373   4.406  1.00  0.00     0.176 A 
HETATM    2  N3  UNL     1      10.275   4.623   5.135  1.00  0.00    -0.280 N 
ATOM      3  H3  UNL     1      10.431   4.333   6.100  1.00  0.00     0.188 HD
HETATM    4  N4  UNL     1       9.213   4.313   4.369  1.00  0.00    -0.282 N 
ATOM      5  H4  UNL     1       8.426   3.738   4.667  1.00  0.00     0.188 HD
HETATM    6  C3  UNL     1       9.341   4.871   3.154  1.00  0.00     0.152 A 
HETATM    7  N5  UNL     1       8.776   5.039   1.922  1.00  0.00    -0.336 N 
ATOM      8  H5  UNL     1       7.880   4.649   1.630  1.00  0.00     0.168 HD
HETATM    9  C4  UNL     1       9.591   5.809   1.138  1.00  0.00     0.182 A 
HETATM   10  N6  UNL     1      10.649   6.104   1.916  1.00  0.00    -0.346 N 
ATOM     11  H6  UNL     1      11.441   6.672   1.614  1.00  0.00     0.167 HD
HETATM   12  C5  UNL     1      10.532   5.552   3.159  1.00  0.00     0.127 A 
ENDROOT
BRANCH   1  13
HETATM   13  N2  UNL     1      12.376   5.968   4.799  1.00  0.00    -0.214 N 
ATOM     14  H2  UNL     1      13.034   5.456   5.387  1.00  0.00     0.203 HD
BRANCH  13  15
HETATM   15  N1  UNL     1      12.653   7.185   4.362  1.00  0.00    -0.313 NA
BRANCH  15  16
HETATM   16  C1  UNL     1      12.931   8.428   3.912  1.00  0.00     0.343 C 
BRANCH  16  17
HETATM   17  O1  UNL     1      12.868   9.442   4.779  1.00  0.00    -0.344 OA
ATOM     18  H1  UNL     1      13.422  10.198   4.628  1.00  0.00     0.219 HD
ENDBRANCH  16  17
ENDBRANCH  15  16
ENDBRANCH  13  15
ENDBRANCH   1  13
TORSDOF 4
ENDMDL
MODEL 4
REMARK VINA RESULT: -5.309402739      2.660      3.861
REMARK  4 active torsions:
REMARK  status: ('A' for Active; 'I' for Inactive)
REMARK    1  A    between atoms: O1_1  and  C1_3 
REMARK    2  A    between atoms: C1_3  and  N1_4 
REMARK    3  A    between atoms: N1_4  and  N2_5 
REMARK    4  A    between atoms: N2_5  and  C2_7 
ROOT
HETATM    1  C2  UNL     1      13.127   7.012   5.612  1.00  0.00     0.176 A 
HETATM    2  N3  UNL     1      12.905   6.074   6.508  1.00  0.00    -0.280 N 
ATOM      3  H3  UNL     1      13.286   6.039   7.454  1.00  0.00     0.188 HD
HETATM    4  N4  UNL     1      12.081   5.171   5.945  1.00  0.00    -0.282 N 
ATOM      5  H4  UNL     1      11.736   4.329   6.403  1.00  0.00     0.188 HD
HETATM    6  C3  UNL     1      11.779   5.542   4.690  1.00  0.00     0.152 A 
HETATM    7  N5  UNL     1      11.084   5.232   3.556  1.00  0.00    -0.336 N 
ATOM      8  H5  UNL     1      10.492   4.410   3.438  1.00  0.00     0.168 HD
HETATM    9  C4  UNL     1      11.303   6.187   2.601  1.00  0.00     0.182 A 
HETATM   10  N6  UNL     1      12.133   7.077   3.178  1.00  0.00    -0.346 N 
ATOM     11  H6  UNL     1      12.485   7.915   2.715  1.00  0.00     0.167 HD
HETATM   12  C5  UNL     1      12.444   6.720   4.459  1.00  0.00     0.127 A 
ENDROOT
BRANCH   1  13
HETATM   13  N2  UNL     1      13.969   8.225   5.751  1.00  0.00    -0.214 N 
ATOM     14  H2  UNL     1      14.067   8.890   4.983  1.00  0.00     0.203 HD
BRANCH  13  15
HETATM   15  N1  UNL     1      14.588   8.416   6.904  1.00  0.00    -0.313 NA
BRANCH  15  16
HETATM   16  C1  UNL     1      15.225   8.612   8.078  1.00  0.00     0.343 C 
BRANCH  16  17
HETATM   17  O1  UNL     1      15.996   7.629   8.552  1.00  0.00    -0.344 OA
ATOM     18  H1  UNL     1      16.678   7.852   9.173  1.00  0.00     0.219 HD
ENDBRANCH  16  17
ENDBRANCH  15  16
ENDBRANCH  13  15
ENDBRANCH   1  13
TORSDOF 4
ENDMDL
MODEL 5
REMARK VINA RESULT: -5.295374747      2.192      2.922
REMARK  4 active torsions:
REMARK  status: ('A' for Active; 'I' for Inactive)
REMARK    1  A    between atoms: O1_1  and  C1_3 
REMARK    2  A    between atoms: C1_3  and  N1_4 
REMARK    3  A    between atoms: N1_4  and  N2_5 
REMARK    4  A    between atoms: N2_5  and  C2_7 
ROOT
HETATM    1  C2  UNL     1      12.846   7.707   4.363  1.00  0.00     0.176 A 
HETATM    2  N3  UNL     1      12.489   7.821   3.101  1.00  0.00    -0.280 N 
ATOM      3  H3  UNL     1      12.680   8.613   2.487  1.00  0.00     0.188 HD
HETATM    4  N4  UNL     1      11.826   6.697   2.772  1.00  0.00    -0.282 N 
ATOM      5  H4  UNL     1      11.427   6.501   1.854  1.00  0.00     0.188 HD
HETATM    6  C3  UNL     1      11.767   5.869   3.828  1.00  0.00     0.152 A 
HETATM    7  N5  UNL     1      11.332   4.662   4.295  1.00  0.00    -0.336 N 
ATOM      8  H5  UNL     1      10.822   3.971   3.747  1.00  0.00     0.168 HD
HETATM    9  C4  UNL     1      11.683   4.520   5.610  1.00  0.00     0.182 A 
HETATM   10  N6  UNL     1      12.338   5.653   5.924  1.00  0.00    -0.346 N 
ATOM     11  H6  UNL     1      12.729   5.852   6.845  1.00  0.00     0.167 HD
HETATM   12  C5  UNL     1      12.414   6.504   4.859  1.00  0.00     0.127 A 
ENDROOT
BRANCH   1  13
HETATM   13  N2  UNL     1      13.599   8.683   5.189  1.00  0.00    -0.214 N 
ATOM     14  H2  UNL     1      13.706   9.653   4.892  1.00  0.00     0.203 HD
BRANCH  13  15
HETATM   15  N1  UNL     1      14.126   8.252   6.322  1.00  0.00    -0.313 NA
BRANCH  15  16
HETATM   16  C1  UNL     1      14.669   7.815   7.479  1.00  0.00     0.343 C 
BRANCH  16  17
HETATM   17  O1  UNL     1      14.817   6.499   7.650  1.00  0.00    -0.344 OA
ATOM     18  H1  UNL     1      14.538   6.118   8.475  1.00  0.00     0.219 HD
ENDBRANCH  16  17
ENDBRANCH  15  16
ENDBRANCH  13  15
ENDBRANCH   1  13
TORSDOF 4
ENDMDL
