MODEL 1
REMARK VINA RESULT: -4.921350511      0.000      0.000
REMARK  3 active torsions:
REMARK  status: ('A' for Active; 'I' for Inactive)
REMARK    1  A    between atoms: N1_2  and  N2_4 
REMARK    2  A    between atoms: C2_6  and  C3_7 
REMARK    3  A    between atoms: C4_10  and  N4_11 
ROOT
HETATM    1  C3  UNL     1      13.489   7.197   5.638  1.00  0.00     0.152 A 
HETATM    2  N3  UNL     1      14.067   6.609   6.714  1.00  0.00    -0.173 N 
ATOM      3  H3  UNL     1      13.924   5.643   7.007  1.00  0.00     0.186 HD
HETATM    4  C4  UNL     1      14.851   7.489   7.326  1.00  0.00     0.692 A 
HETATM    5  N5  UNL     1      14.754   8.624   6.622  1.00  0.00    -0.131 N 
ATOM      6  H5  UNL     1      15.245   9.489   6.846  1.00  0.00     0.205 HD
HETATM    7  N6  UNL     1      13.935   8.468   5.598  1.00  0.00    -0.270 N 
ATOM      8  H6  UNL     1      13.687   9.177   4.907  1.00  0.00     0.189 HD
ENDROOT
BRANCH   1   9
HETATM    9  C2  UNL     1      12.564   6.537   4.726  1.00  0.00     0.157 C 
HETATM   10  N2  UNL     1      12.321   7.044   3.595  1.00  0.00    -0.313 N 
ATOM     11  H2  UNL     1      12.810   7.917   3.394  1.00  0.00     0.185 HD
BRANCH  10  12
HETATM   12  N1  UNL     1      11.501   6.595   2.606  1.00  0.00    -0.341 N 
HETATM   13  C1  UNL     1      10.732   5.385   2.747  1.00  0.00     0.167 C 
ATOM     14  H1  UNL     1      11.430   7.130   1.741  1.00  0.00     0.179 HD
ENDBRANCH  10  12
ENDBRANCH   1   9
BRANCH   4  15
HETATM   15  N4  UNL     1      15.572   7.293   8.395  1.00  0.00    -0.233 N 
ATOM     16  H42 UNL     1      16.250   6.546   8.545  1.00  0.00     0.174 HD
ATOM     17  H41 UNL     1      15.573   7.851   9.249  1.00  0.00     0.174 HD
ENDBRANCH   4  15
TORSDOF 3
ENDMDL
MODEL 2
REMARK VINA RESULT: -4.842273531      0.818      1.339
REMARK  3 active torsions:
REMARK  status: ('A' for Active; 'I' for Inactive)
REMARK    1  A    between atoms: N1_2  and  N2_4 
REMARK    2  A    between atoms: C2_6  and  C3_7 
REMARK    3  A    between atoms: C4_10  and  N4_11 
ROOT
HETATM    1  C3  UNL     1      13.598   7.701   5.680  1.00  0.00     0.152 A 
HETATM    2  N3  UNL     1      14.427   8.607   6.255  1.00  0.00    -0.173 N 
ATOM      3  H3  UNL     1      14.663   9.520   5.867  1.00  0.00     0.186 HD
HETATM    4  C4  UNL     1      14.881   8.120   7.403  1.00  0.00     0.692 A 
HETATM    5  N5  UNL     1      14.329   6.908   7.535  1.00  0.00    -0.131 N 
ATOM      6  H5  UNL     1      14.488   6.281   8.324  1.00  0.00     0.205 HD
HETATM    7  N6  UNL     1      13.550   6.635   6.505  1.00  0.00    -0.270 N 
ATOM      8  H6  UNL     1      13.014   5.780   6.360  1.00  0.00     0.189 HD
ENDROOT
BRANCH   1   9
HETATM    9  C2  UNL     1      12.911   7.889   4.409  1.00  0.00     0.157 C 
HETATM   10  N2  UNL     1      12.405   6.899   3.811  1.00  0.00    -0.313 N 
ATOM     11  H2  UNL     1      12.520   6.000   4.280  1.00  0.00     0.185 HD
BRANCH  10  12
HETATM   12  N1  UNL     1      11.730   6.857   2.630  1.00  0.00    -0.341 N 
HETATM   13  C1  UNL     1      10.727   5.859   2.362  1.00  0.00     0.167 C 
ATOM     14  H1  UNL     1      11.941   7.553   1.915  1.00  0.00     0.179 HD
ENDBRANCH  10  12
ENDBRANCH   1   9
BRANCH   4  15
HETATM   15  N4  UNL     1      15.700   8.701   8.237  1.00  0.00    -0.233 N 
ATOM     16  H42 UNL     1      15.494   8.985   9.195  1.00  0.00     0.174 HD
ATOM     17  H41 UNL     1      16.670   8.963   8.067  1.00  0.00     0.174 HD
ENDBRANCH   4  15
TORSDOF 3
ENDMDL
MODEL 3
REMARK VINA RESULT: -4.640600674      1.330      4.997
REMARK  3 active torsions:
REMARK  status: ('A' for Active; 'I' for Inactive)
REMARK    1  A    between atoms: N1_2  and  N2_4 
REMARK    2  A    between atoms: C2_6  and  C3_7 
REMARK    3  A    between atoms: C4_10  and  N4_11 
ROOT
HETATM    1  C3  UNL     1      12.796   6.429   5.308  1.00  0.00     0.152 A 
HETATM    2  N3  UNL     1      12.515   6.980   4.102  1.00  0.00    -0.173 N 
ATOM      3  H3  UNL     1      12.916   7.846   3.741  1.00  0.00     0.186 HD
HETATM    4  C4  UNL     1      11.637   6.217   3.464  1.00  0.00     0.692 A 
HETATM    5  N5  UNL     1      11.377   5.189   4.281  1.00  0.00    -0.131 N 
ATOM      6  H5  UNL     1      10.734   4.427   4.068  1.00  0.00     0.205 HD
HETATM    7  N6  UNL     1      12.067   5.298   5.401  1.00  0.00    -0.270 N 
ATOM      8  H6  UNL     1      12.051   4.650   6.188  1.00  0.00     0.189 HD
ENDROOT
BRANCH   1   9
HETATM    9  C2  UNL     1      13.720   6.989   6.285  1.00  0.00     0.157 C 
HETATM   10  N2  UNL     1      14.285   8.096   6.059  1.00  0.00    -0.313 N 
ATOM     11  H2  UNL     1      14.044   8.536   5.171  1.00  0.00     0.185 HD
BRANCH  10  12
HETATM   12  N1  UNL     1      15.169   8.786   6.829  1.00  0.00    -0.341 N 
HETATM   13  C1  UNL     1      15.222   8.622   8.259  1.00  0.00     0.167 C 
ATOM     14  H1  UNL     1      15.813   9.437   6.381  1.00  0.00     0.179 HD
ENDBRANCH  10  12
ENDBRANCH   1   9
BRANCH   4  15
HETATM   15  N4  UNL     1      11.128   6.420   2.279  1.00  0.00    -0.233 N 
ATOM     16  H42 UNL     1      10.216   6.110   1.945  1.00  0.00     0.174 HD
ATOM     17  H41 UNL     1      11.559   6.919   1.501  1.00  0.00     0.174 HD
ENDBRANCH   4  15
TORSDOF 3
ENDMDL
MODEL 4
REMARK VINA RESULT: -4.556614640      1.065      5.001
REMARK  3 active torsions:
REMARK  status: ('A' for Active; 'I' for Inactive)
REMARK    1  A    between atoms: N1_2  and  N2_4 
REMARK    2  A    between atoms: C2_6  and  C3_7 
REMARK    3  A    between atoms: C4_10  and  N4_11 
ROOT
HETATM    1  C3  UNL     1      12.517   6.775   4.464  1.00  0.00     0.152 A 
HETATM    2  N3  UNL     1      11.744   5.675   4.288  1.00  0.00    -0.173 N 
ATOM      3  H3  UNL     1      11.604   4.936   4.977  1.00  0.00     0.186 HD
HETATM    4  C4  UNL     1      11.198   5.711   3.079  1.00  0.00     0.692 A 
HETATM    5  N5  UNL     1      11.636   6.839   2.508  1.00  0.00    -0.131 N 
ATOM      6  H5  UNL     1      11.387   7.149   1.569  1.00  0.00     0.205 HD
HETATM    7  N6  UNL     1      12.435   7.497   3.328  1.00  0.00    -0.270 N 
ATOM      8  H6  UNL     1      12.902   8.383   3.138  1.00  0.00     0.189 HD
ENDROOT
BRANCH   1   9
HETATM    9  C2  UNL     1      13.275   7.076   5.671  1.00  0.00     0.157 C 
HETATM   10  N2  UNL     1      14.041   8.080   5.703  1.00  0.00    -0.313 N 
ATOM     11  H2  UNL     1      14.075   8.630   4.845  1.00  0.00     0.185 HD
BRANCH  10  12
HETATM   12  N1  UNL     1      14.826   8.533   6.717  1.00  0.00    -0.341 N 
HETATM   13  C1  UNL     1      16.139   7.994   6.962  1.00  0.00     0.167 C 
ATOM     14  H1  UNL     1      14.475   9.276   7.321  1.00  0.00     0.179 HD
ENDBRANCH  10  12
ENDBRANCH   1   9
BRANCH   4  15
HETATM   15  N4  UNL     1      10.395   4.829   2.550  1.00  0.00    -0.233 N 
ATOM     16  H42 UNL     1       9.567   4.419   2.984  1.00  0.00     0.174 HD
ATOM     17  H41 UNL     1      10.465   4.409   1.624  1.00  0.00     0.174 HD
ENDBRANCH   4  15
TORSDOF 3
ENDMDL
MODEL 5
REMARK VINA RESULT: -4.508280757      1.893      2.027
REMARK  3 active torsions:
REMARK  status: ('A' for Active; 'I' for Inactive)
REMARK    1  A    between atoms: N1_2  and  N2_4 
REMARK    2  A    between atoms: C2_6  and  C3_7 
REMARK    3  A    between atoms: C4_10  and  N4_11 
ROOT
HETATM    1  C3  UNL     1      13.603   6.851   6.258  1.00  0.00     0.152 A 
HETATM    2  N3  UNL     1      14.354   6.788   7.384  1.00  0.00    -0.173 N 
ATOM      3  H3  UNL     1      14.394   5.995   8.024  1.00  0.00     0.186 HD
HETATM    4  C4  UNL     1      15.029   7.922   7.525  1.00  0.00     0.692 A 
HETATM    5  N5  UNL     1      14.693   8.686   6.478  1.00  0.00    -0.131 N 
ATOM      6  H5  UNL     1      15.053   9.624   6.306  1.00  0.00     0.205 HD
HETATM    7  N6  UNL     1      13.831   8.057   5.701  1.00  0.00    -0.270 N 
ATOM      8  H6  UNL     1      13.417   8.417   4.841  1.00  0.00     0.189 HD
ENDROOT
BRANCH   1   9
HETATM    9  C2  UNL     1      12.728   5.788   5.780  1.00  0.00     0.157 C 
HETATM   10  N2  UNL     1      13.141   4.594   5.751  1.00  0.00    -0.313 N 
ATOM     11  H2  UNL     1      14.097   4.455   6.078  1.00  0.00     0.185 HD
BRANCH  10  12
HETATM   12  N1  UNL     1      12.494   3.468   5.347  1.00  0.00    -0.341 N 
HETATM   13  C1  UNL     1      11.246   3.523   4.630  1.00  0.00     0.167 C 
ATOM     14  H1  UNL     1      12.905   2.559   5.558  1.00  0.00     0.179 HD
ENDBRANCH  10  12
ENDBRANCH   1   9
BRANCH   4  15
HETATM   15  N4  UNL     1      15.857   8.233   8.485  1.00  0.00    -0.233 N 
ATOM     16  H42 UNL     1      15.730   8.057   9.481  1.00  0.00     0.174 HD
ATOM     17  H41 UNL     1      16.758   8.702   8.394  1.00  0.00     0.174 HD
ENDBRANCH   4  15
TORSDOF 3
ENDMDL
