MODEL 1
REMARK VINA RESULT: -9.170545558      0.000      0.000
REMARK  7 active torsions:
REMARK  status: ('A' for Active; 'I' for Inactive)
REMARK    1  A    between atoms: C2_2  and  N1_3 
REMARK    2  A    between atoms: N1_3  and  N2_4 
REMARK    3  A    between atoms: N1_3  and  S1_26 
REMARK    4  A    between atoms: N4_17  and  C11_18 
REMARK    5  A    between atoms: C11_18  and  C12_19 
REMARK    6  A    between atoms: S1_26  and  C18_29 
REMARK    7  A    between atoms: N5_33  and  O4_34 
ROOT
HETATM    1  N2  UNL     1       7.072   6.265  20.856  1.00  0.00    -0.120 N 
ATOM      2  H2  UNL     1       7.954   6.102  20.372  1.00  0.00     0.206 HD
HETATM    3  C3  UNL     1       6.643   5.150  21.169  1.00  0.00     0.703 A 
HETATM    4  N3  UNL     1       5.451   5.102  21.842  1.00  0.00    -0.189 N 
ATOM      5  H3  UNL     1       5.014   5.982  22.113  1.00  0.00     0.184 HD
HETATM    6  C4  UNL     1       4.831   3.966  22.161  1.00  0.00     0.065 A 
HETATM    7  C5  UNL     1       3.619   3.982  22.846  1.00  0.00     0.031 A 
HETATM    8  C6  UNL     1       3.007   2.809  23.158  1.00  0.00     0.002 A 
HETATM    9  C7  UNL     1       3.610   1.616  22.783  1.00  0.00     0.001 A 
HETATM   10  C8  UNL     1       4.810   1.597  22.105  1.00  0.00     0.019 A 
HETATM   11  C9  UNL     1       5.428   2.793  21.791  1.00  0.00     0.060 A 
HETATM   12  C10 UNL     1       6.616   2.845  21.122  1.00  0.00     0.274 A 
HETATM   13  O1  UNL     1       7.163   1.765  20.782  1.00  0.00    -0.266 OA
HETATM   14  N4  UNL     1       7.261   3.987  20.791  1.00  0.00    -0.141 N 
ENDROOT
BRANCH   1  15
HETATM   15  N1  UNL     1       6.897   7.578  20.869  1.00  0.00    -0.200 N 
BRANCH  15  16
HETATM   16  C2  UNL     1       6.983   8.546  19.780  1.00  0.00     0.158 C 
HETATM   17  C1  UNL     1       8.413   8.759  19.372  1.00  0.00     0.029 C 
ENDBRANCH  15  16
BRANCH  15  18
HETATM   18  S1  UNL     1       6.510   8.343  22.416  1.00  0.00     0.280 S 
HETATM   19  O2  UNL     1       6.138   9.798  22.145  1.00  0.00    -0.199 OA
HETATM   20  O3  UNL     1       5.319   7.702  22.977  1.00  0.00    -0.199 OA
BRANCH  18  21
HETATM   21  C18 UNL     1       7.884   8.284  23.491  1.00  0.00     0.099 A 
HETATM   22  C19 UNL     1       7.744   7.765  24.757  1.00  0.00     0.028 A 
HETATM   23  C20 UNL     1       8.817   7.703  25.651  1.00  0.00     0.021 A 
HETATM   24  C21 UNL     1      10.047   8.186  25.228  1.00  0.00     0.122 A 
HETATM   25  N5  UNL     1      10.181   8.694  23.992  1.00  0.00    -0.246 N 
HETATM   26  C22 UNL     1       9.130   8.747  23.130  1.00  0.00     0.147 A 
BRANCH  25  27
HETATM   27  O4  UNL     1      11.407   9.159  23.611  1.00  0.00    -0.284 OA
ATOM     28  H4  UNL     1      11.519   9.457  22.716  1.00  0.00     0.245 HD
ENDBRANCH  25  27
ENDBRANCH  18  21
ENDBRANCH  15  18
ENDBRANCH   1  15
BRANCH  14  29
HETATM   29  C11 UNL     1       8.534   3.999  20.173  1.00  0.00     0.193 C 
BRANCH  29  30
HETATM   30  C12 UNL     1       8.644   3.598  18.766  1.00  0.00    -0.001 A 
HETATM   31  C13 UNL     1       9.609   2.610  18.461  1.00  0.00     0.012 A 
HETATM   32  C14 UNL     1       9.816   2.123  17.196  1.00  0.00     0.001 A 
HETATM   33  C15 UNL     1       9.083   2.574  16.127  1.00  0.00     0.003 A 
HETATM   34  C16 UNL     1       8.140   3.531  16.388  1.00  0.00     0.043 A 
HETATM   35  C17 UNL     1       7.933   4.028  17.690  1.00  0.00     0.124 A 
HETATM   36  F1  UNL     1       6.980   4.967  17.827  1.00  0.00    -0.205 F 
ENDBRANCH  29  30
ENDBRANCH  14  29
TORSDOF 7
ENDMDL
MODEL 2
REMARK VINA RESULT: -9.050443230      0.913      1.141
REMARK  7 active torsions:
REMARK  status: ('A' for Active; 'I' for Inactive)
REMARK    1  A    between atoms: C2_2  and  N1_3 
REMARK    2  A    between atoms: N1_3  and  N2_4 
REMARK    3  A    between atoms: N1_3  and  S1_26 
REMARK    4  A    between atoms: N4_17  and  C11_18 
REMARK    5  A    between atoms: C11_18  and  C12_19 
REMARK    6  A    between atoms: S1_26  and  C18_29 
REMARK    7  A    between atoms: N5_33  and  O4_34 
ROOT
HETATM    1  N2  UNL     1       7.111   6.247  20.957  1.00  0.00    -0.120 N 
ATOM      2  H2  UNL     1       7.986   6.085  20.460  1.00  0.00     0.206 HD
HETATM    3  C3  UNL     1       6.667   5.130  21.240  1.00  0.00     0.703 A 
HETATM    4  N3  UNL     1       5.480   5.080  21.921  1.00  0.00    -0.189 N 
ATOM      5  H3  UNL     1       5.059   5.958  22.222  1.00  0.00     0.184 HD
HETATM    6  C4  UNL     1       4.844   3.945  22.210  1.00  0.00     0.065 A 
HETATM    7  C5  UNL     1       3.638   3.959  22.906  1.00  0.00     0.031 A 
HETATM    8  C6  UNL     1       3.010   2.787  23.188  1.00  0.00     0.002 A 
HETATM    9  C7  UNL     1       3.591   1.597  22.772  1.00  0.00     0.001 A 
HETATM   10  C8  UNL     1       4.785   1.579  22.084  1.00  0.00     0.019 A 
HETATM   11  C9  UNL     1       5.419   2.774  21.800  1.00  0.00     0.060 A 
HETATM   12  C10 UNL     1       6.602   2.828  21.124  1.00  0.00     0.274 A 
HETATM   13  O1  UNL     1       7.130   1.751  20.746  1.00  0.00    -0.266 OA
HETATM   14  N4  UNL     1       7.263   3.970  20.822  1.00  0.00    -0.141 N 
ENDROOT
BRANCH   1  15
HETATM   15  N1  UNL     1       6.957   7.561  21.010  1.00  0.00    -0.200 N 
BRANCH  15  16
HETATM   16  C2  UNL     1       7.034   8.560  19.947  1.00  0.00     0.158 C 
HETATM   17  C1  UNL     1       8.446   8.695  19.450  1.00  0.00     0.029 C 
ENDBRANCH  15  16
BRANCH  15  18
HETATM   18  S1  UNL     1       6.614   8.288  22.586  1.00  0.00     0.280 S 
HETATM   19  O2  UNL     1       6.193   9.736  22.359  1.00  0.00    -0.199 OA
HETATM   20  O3  UNL     1       5.465   7.604  23.183  1.00  0.00    -0.199 OA
BRANCH  18  21
HETATM   21  C18 UNL     1       8.033   8.247  23.602  1.00  0.00     0.099 A 
HETATM   22  C19 UNL     1       9.225   8.752  23.138  1.00  0.00     0.028 A 
HETATM   23  C20 UNL     1      10.386   8.734  23.917  1.00  0.00     0.021 A 
HETATM   24  C21 UNL     1      10.310   8.187  25.190  1.00  0.00     0.122 A 
HETATM   25  N5  UNL     1       9.145   7.695  25.640  1.00  0.00    -0.246 N 
HETATM   26  C22 UNL     1       8.021   7.718  24.874  1.00  0.00     0.147 A 
BRANCH  25  27
HETATM   27  O4  UNL     1       9.109   7.164  26.899  1.00  0.00    -0.284 OA
ATOM     28  H4  UNL     1       8.652   6.340  27.028  1.00  0.00     0.245 HD
ENDBRANCH  25  27
ENDBRANCH  18  21
ENDBRANCH  15  18
ENDBRANCH   1  15
BRANCH  14  29
HETATM   29  C11 UNL     1       8.530   3.980  20.193  1.00  0.00     0.193 C 
BRANCH  29  30
HETATM   30  C12 UNL     1       8.624   3.616  18.775  1.00  0.00    -0.001 A 
HETATM   31  C13 UNL     1       9.592   2.643  18.431  1.00  0.00     0.012 A 
HETATM   32  C14 UNL     1       9.784   2.190  17.152  1.00  0.00     0.001 A 
HETATM   33  C15 UNL     1       9.033   2.662  16.105  1.00  0.00     0.003 A 
HETATM   34  C16 UNL     1       8.086   3.604  16.404  1.00  0.00     0.043 A 
HETATM   35  C17 UNL     1       7.894   4.067  17.721  1.00  0.00     0.124 A 
HETATM   36  F1  UNL     1       6.935   4.995  17.895  1.00  0.00    -0.205 F 
ENDBRANCH  29  30
ENDBRANCH  14  29
TORSDOF 7
ENDMDL
MODEL 3
REMARK VINA RESULT: -8.826109224      3.011      5.596
REMARK  7 active torsions:
REMARK  status: ('A' for Active; 'I' for Inactive)
REMARK    1  A    between atoms: C2_2  and  N1_3 
REMARK    2  A    between atoms: N1_3  and  N2_4 
REMARK    3  A    between atoms: N1_3  and  S1_26 
REMARK    4  A    between atoms: N4_17  and  C11_18 
REMARK    5  A    between atoms: C11_18  and  C12_19 
REMARK    6  A    between atoms: S1_26  and  C18_29 
REMARK    7  A    between atoms: N5_33  and  O4_34 
ROOT
HETATM    1  N2  UNL     1       7.102   7.804  22.052  1.00  0.00    -0.120 N 
ATOM      2  H2  UNL     1       6.359   8.482  22.220  1.00  0.00     0.206 HD
HETATM    3  C3  UNL     1       6.539   6.751  21.738  1.00  0.00     0.703 A 
HETATM    4  N3  UNL     1       7.335   5.672  21.459  1.00  0.00    -0.189 N 
ATOM      5  H3  UNL     1       8.345   5.807  21.453  1.00  0.00     0.184 HD
HETATM    6  C4  UNL     1       6.860   4.455  21.195  1.00  0.00     0.065 A 
HETATM    7  C5  UNL     1       7.722   3.397  20.919  1.00  0.00     0.031 A 
HETATM    8  C6  UNL     1       7.211   2.166  20.653  1.00  0.00     0.002 A 
HETATM    9  C7  UNL     1       5.833   1.993  20.665  1.00  0.00     0.001 A 
HETATM   10  C8  UNL     1       4.978   3.038  20.938  1.00  0.00     0.019 A 
HETATM   11  C9  UNL     1       5.503   4.288  21.206  1.00  0.00     0.060 A 
HETATM   12  C10 UNL     1       4.713   5.365  21.484  1.00  0.00     0.274 A 
HETATM   13  O1  UNL     1       3.465   5.211  21.495  1.00  0.00    -0.266 OA
HETATM   14  N4  UNL     1       5.176   6.608  21.753  1.00  0.00    -0.141 N 
ENDROOT
BRANCH   1  15
HETATM   15  N1  UNL     1       8.240   8.446  22.268  1.00  0.00    -0.200 N 
BRANCH  15  16
HETATM   16  C2  UNL     1       9.481   8.441  21.498  1.00  0.00     0.158 C 
HETATM   17  C1  UNL     1       9.191   8.547  20.027  1.00  0.00     0.029 C 
ENDBRANCH  15  16
BRANCH  15  18
HETATM   18  S1  UNL     1       8.347   9.476  23.702  1.00  0.00     0.280 S 
HETATM   19  O2  UNL     1       8.906  10.829  23.274  1.00  0.00    -0.199 OA
HETATM   20  O3  UNL     1       6.996   9.721  24.211  1.00  0.00    -0.199 OA
BRANCH  18  21
HETATM   21  C18 UNL     1       9.403   8.761  24.894  1.00  0.00     0.099 A 
HETATM   22  C19 UNL     1      10.760   8.720  24.674  1.00  0.00     0.028 A 
HETATM   23  C20 UNL     1      11.640   8.152  25.599  1.00  0.00     0.021 A 
HETATM   24  C21 UNL     1      11.107   7.621  26.766  1.00  0.00     0.122 A 
HETATM   25  N5  UNL     1       9.782   7.662  26.978  1.00  0.00    -0.246 N 
HETATM   26  C22 UNL     1       8.935   8.219  26.071  1.00  0.00     0.147 A 
BRANCH  25  27
HETATM   27  O4  UNL     1       9.295   7.130  28.139  1.00  0.00    -0.284 OA
ATOM     28  H4  UNL     1       8.480   7.475  28.485  1.00  0.00     0.245 HD
ENDBRANCH  25  27
ENDBRANCH  18  21
ENDBRANCH  15  18
ENDBRANCH   1  15
BRANCH  14  29
HETATM   29  C11 UNL     1       4.323   7.719  21.951  1.00  0.00     0.193 C 
BRANCH  29  30
HETATM   30  C12 UNL     1       3.667   7.888  23.253  1.00  0.00    -0.001 A 
HETATM   31  C13 UNL     1       2.368   8.447  23.241  1.00  0.00     0.012 A 
HETATM   32  C14 UNL     1       1.624   8.649  24.375  1.00  0.00     0.001 A 
HETATM   33  C15 UNL     1       2.105   8.314  25.616  1.00  0.00     0.003 A 
HETATM   34  C16 UNL     1       3.360   7.771  25.662  1.00  0.00     0.043 A 
HETATM   35  C17 UNL     1       4.120   7.566  24.493  1.00  0.00     0.124 A 
HETATM   36  F1  UNL     1       5.341   7.025  24.661  1.00  0.00    -0.205 F 
ENDBRANCH  29  30
ENDBRANCH  14  29
TORSDOF 7
ENDMDL
MODEL 4
REMARK VINA RESULT: -8.804091698      3.167      6.882
REMARK  7 active torsions:
REMARK  status: ('A' for Active; 'I' for Inactive)
REMARK    1  A    between atoms: C2_2  and  N1_3 
REMARK    2  A    between atoms: N1_3  and  N2_4 
REMARK    3  A    between atoms: N1_3  and  S1_26 
REMARK    4  A    between atoms: N4_17  and  C11_18 
REMARK    5  A    between atoms: C11_18  and  C12_19 
REMARK    6  A    between atoms: S1_26  and  C18_29 
REMARK    7  A    between atoms: N5_33  and  O4_34 
ROOT
HETATM    1  N2  UNL     1       6.538   8.971  24.116  1.00  0.00    -0.120 N 
ATOM      2  H2  UNL     1       6.559   9.663  23.367  1.00  0.00     0.206 HD
HETATM    3  C3  UNL     1       7.688   8.919  24.565  1.00  0.00     0.703 A 
HETATM    4  N3  UNL     1       7.921   8.049  25.596  1.00  0.00    -0.189 N 
ATOM      5  H3  UNL     1       7.128   7.542  25.989  1.00  0.00     0.184 HD
HETATM    6  C4  UNL     1       9.129   7.828  26.114  1.00  0.00     0.065 A 
HETATM    7  C5  UNL     1       9.302   6.928  27.163  1.00  0.00     0.031 A 
HETATM    8  C6  UNL     1      10.545   6.721  27.672  1.00  0.00     0.002 A 
HETATM    9  C7  UNL     1      11.618   7.415  27.130  1.00  0.00     0.001 A 
HETATM   10  C8  UNL     1      11.450   8.306  26.092  1.00  0.00     0.019 A 
HETATM   11  C9  UNL     1      10.183   8.513  25.578  1.00  0.00     0.060 A 
HETATM   12  C10 UNL     1       9.947   9.380  24.552  1.00  0.00     0.274 A 
HETATM   13  O1  UNL     1      10.918  10.010  24.059  1.00  0.00    -0.266 OA
HETATM   14  N4  UNL     1       8.729   9.619  24.014  1.00  0.00    -0.141 N 
ENDROOT
BRANCH   1  15
HETATM   15  N1  UNL     1       5.292   8.528  24.173  1.00  0.00    -0.200 N 
BRANCH  15  16
HETATM   16  C2  UNL     1       4.490   8.129  25.327  1.00  0.00     0.158 C 
HETATM   17  C1  UNL     1       3.676   9.287  25.832  1.00  0.00     0.029 C 
ENDBRANCH  15  16
BRANCH  15  18
HETATM   18  S1  UNL     1       4.406   8.358  22.652  1.00  0.00     0.280 S 
HETATM   19  O2  UNL     1       3.039   7.757  22.963  1.00  0.00    -0.199 OA
HETATM   20  O3  UNL     1       4.162   9.690  22.095  1.00  0.00    -0.199 OA
BRANCH  18  21
HETATM   21  C18 UNL     1       5.266   7.308  21.554  1.00  0.00     0.099 A 
HETATM   22  C19 UNL     1       4.929   7.283  20.221  1.00  0.00     0.028 A 
HETATM   23  C20 UNL     1       5.589   6.454  19.310  1.00  0.00     0.021 A 
HETATM   24  C21 UNL     1       6.609   5.643  19.786  1.00  0.00     0.122 A 
HETATM   25  N5  UNL     1       6.936   5.669  21.087  1.00  0.00    -0.246 N 
HETATM   26  C22 UNL     1       6.288   6.481  21.966  1.00  0.00     0.147 A 
BRANCH  25  27
HETATM   27  O4  UNL     1       7.946   4.856  21.519  1.00  0.00    -0.284 OA
ATOM     28  H4  UNL     1       8.092   4.777  22.455  1.00  0.00     0.245 HD
ENDBRANCH  25  27
ENDBRANCH  18  21
ENDBRANCH  15  18
ENDBRANCH   1  15
BRANCH  14  29
HETATM   29  C11 UNL     1       8.511  10.590  23.008  1.00  0.00     0.193 C 
BRANCH  29  30
HETATM   30  C12 UNL     1       8.254  10.144  21.634  1.00  0.00    -0.001 A 
HETATM   31  C13 UNL     1       7.322  10.899  20.885  1.00  0.00     0.012 A 
HETATM   32  C14 UNL     1       6.992  10.615  19.584  1.00  0.00     0.001 A 
HETATM   33  C15 UNL     1       7.560   9.559  18.916  1.00  0.00     0.003 A 
HETATM   34  C16 UNL     1       8.467   8.808  19.614  1.00  0.00     0.043 A 
HETATM   35  C17 UNL     1       8.800   9.104  20.950  1.00  0.00     0.124 A 
HETATM   36  F1  UNL     1       9.703   8.296  21.534  1.00  0.00    -0.205 F 
ENDBRANCH  29  30
ENDBRANCH  14  29
TORSDOF 7
ENDMDL
MODEL 5
REMARK VINA RESULT: -8.783378963      1.114      1.397
REMARK  7 active torsions:
REMARK  status: ('A' for Active; 'I' for Inactive)
REMARK    1  A    between atoms: C2_2  and  N1_3 
REMARK    2  A    between atoms: N1_3  and  N2_4 
REMARK    3  A    between atoms: N1_3  and  S1_26 
REMARK    4  A    between atoms: N4_17  and  C11_18 
REMARK    5  A    between atoms: C11_18  and  C12_19 
REMARK    6  A    between atoms: S1_26  and  C18_29 
REMARK    7  A    between atoms: N5_33  and  O4_34 
ROOT
HETATM    1  N2  UNL     1       7.004   6.252  20.766  1.00  0.00    -0.120 N 
ATOM      2  H2  UNL     1       7.884   6.101  20.274  1.00  0.00     0.206 HD
HETATM    3  C3  UNL     1       6.603   5.133  21.100  1.00  0.00     0.703 A 
HETATM    4  N3  UNL     1       5.420   5.068  21.787  1.00  0.00    -0.189 N 
ATOM      5  H3  UNL     1       4.967   5.942  22.051  1.00  0.00     0.184 HD
HETATM    6  C4  UNL     1       4.829   3.923  22.129  1.00  0.00     0.065 A 
HETATM    7  C5  UNL     1       3.624   3.923  22.828  1.00  0.00     0.031 A 
HETATM    8  C6  UNL     1       3.042   2.741  23.164  1.00  0.00     0.002 A 
HETATM    9  C7  UNL     1       3.668   1.557  22.800  1.00  0.00     0.001 A 
HETATM   10  C8  UNL     1       4.860   1.554  22.108  1.00  0.00     0.019 A 
HETATM   11  C9  UNL     1       5.448   2.759  21.770  1.00  0.00     0.060 A 
HETATM   12  C10 UNL     1       6.626   2.827  21.087  1.00  0.00     0.274 A 
HETATM   13  O1  UNL     1       7.194   1.755  20.756  1.00  0.00    -0.266 OA
HETATM   14  N4  UNL     1       7.242   3.978  20.732  1.00  0.00    -0.141 N 
ENDROOT
BRANCH   1  15
HETATM   15  N1  UNL     1       6.800   7.560  20.762  1.00  0.00    -0.200 N 
BRANCH  15  16
HETATM   16  C2  UNL     1       5.600   8.322  20.427  1.00  0.00     0.158 C 
HETATM   17  C1  UNL     1       4.741   8.521  21.644  1.00  0.00     0.029 C 
ENDBRANCH  15  16
BRANCH  15  18
HETATM   18  S1  UNL     1       8.153   8.608  21.210  1.00  0.00     0.280 S 
HETATM   19  O2  UNL     1       9.337   8.263  20.313  1.00  0.00    -0.199 OA
HETATM   20  O3  UNL     1       7.793   9.997  20.917  1.00  0.00    -0.199 OA
BRANCH  18  21
HETATM   21  C18 UNL     1       8.596   8.358  22.880  1.00  0.00     0.099 A 
HETATM   22  C19 UNL     1       7.650   7.938  23.786  1.00  0.00     0.028 A 
HETATM   23  C20 UNL     1       7.961   7.731  25.133  1.00  0.00     0.021 A 
HETATM   24  C21 UNL     1       9.265   7.962  25.545  1.00  0.00     0.122 A 
HETATM   25  N5  UNL     1      10.186   8.373  24.659  1.00  0.00    -0.246 N 
HETATM   26  C22 UNL     1       9.873   8.570  23.350  1.00  0.00     0.147 A 
BRANCH  25  27
HETATM   27  O4  UNL     1      11.461   8.591  25.101  1.00  0.00    -0.284 OA
ATOM     28  H4  UNL     1      12.177   8.178  24.632  1.00  0.00     0.245 HD
ENDBRANCH  25  27
ENDBRANCH  18  21
ENDBRANCH  15  18
ENDBRANCH   1  15
BRANCH  14  29
HETATM   29  C11 UNL     1       8.508   4.009  20.100  1.00  0.00     0.193 C 
BRANCH  29  30
HETATM   30  C12 UNL     1       8.610   3.597  18.695  1.00  0.00    -0.001 A 
HETATM   31  C13 UNL     1       9.594   2.628  18.388  1.00  0.00     0.012 A 
HETATM   32  C14 UNL     1       9.797   2.133  17.125  1.00  0.00     0.001 A 
HETATM   33  C15 UNL     1       9.041   2.556  16.060  1.00  0.00     0.003 A 
HETATM   34  C16 UNL     1       8.079   3.494  16.324  1.00  0.00     0.043 A 
HETATM   35  C17 UNL     1       7.877   3.999  17.624  1.00  0.00     0.124 A 
HETATM   36  F1  UNL     1       6.903   4.918  17.764  1.00  0.00    -0.205 F 
ENDBRANCH  29  30
ENDBRANCH  14  29
TORSDOF 7
ENDMDL
