MODEL 1
REMARK VINA RESULT: -7.792178450      0.000      0.000
REMARK  8 active torsions:
REMARK  status: ('A' for Active; 'I' for Inactive)
REMARK    1  A    between atoms: O1_2  and  C2_3 
REMARK    2  A    between atoms: C2_3  and  C3_5 
REMARK    3  A    between atoms: C5_7  and  C6_8 
REMARK    4  A    between atoms: C6_8  and  N2_15 
REMARK    5  A    between atoms: N1_9  and  S1_11 
REMARK    6  A    between atoms: N3_18  and  C10_19 
REMARK    7  A    between atoms: C21_30  and  C22_31 
REMARK    8  A    between atoms: C22_31  and  N4_32 
ROOT
HETATM    1  N2  UNL     1       6.287   7.251  20.616  1.00  0.00    -0.360 N 
HETATM    2  C8  UNL     1       5.719   6.006  21.059  1.00  0.00     0.144 C 
HETATM    3  C9  UNL     1       6.501   4.807  20.487  1.00  0.00     0.137 C 
HETATM    4  N3  UNL     1       6.845   4.954  19.127  1.00  0.00    -0.400 N 
HETATM    5  C20 UNL     1       7.136   6.258  18.666  1.00  0.00     0.144 C 
HETATM    6  C21 UNL     1       7.498   7.077  19.922  1.00  0.00     0.128 C 
ENDROOT
BRANCH   1   7
HETATM    7  C6  UNL     1       5.618   8.487  20.875  1.00  0.00     0.094 C 
HETATM    8  N1  UNL     1       4.762   8.912  19.994  1.00  0.00    -0.274 N 
ATOM      9  H1  UNL     1       4.659   8.302  19.184  1.00  0.00     0.179 HD
BRANCH   7  10
HETATM   10  C5  UNL     1       5.780   9.347  22.045  1.00  0.00     0.068 A 
HETATM   11  C3  UNL     1       6.637   8.872  23.144  1.00  0.00     0.097 A 
HETATM   12  C4  UNL     1       6.887  10.208  22.398  1.00  0.00     0.028 A 
BRANCH  11  13
HETATM   13  C2  UNL     1       6.401   9.097  24.569  1.00  0.00     0.263 C 
HETATM   14  O2  UNL     1       5.243   9.290  24.996  1.00  0.00    -0.265 OA
BRANCH  13  15
HETATM   15  O1  UNL     1       7.444   9.103  25.478  1.00  0.00    -0.326 OA
HETATM   16  C1  UNL     1       8.562   8.238  25.426  1.00  0.00     0.213 C 
ENDBRANCH  13  15
ENDBRANCH  11  13
ENDBRANCH   7  10
BRANCH   8  17
HETATM   17  S1  UNL     1       3.794  10.282  19.948  1.00  0.00     0.228 S 
HETATM   18  C7  UNL     1       2.343  10.241  20.949  1.00  0.00     0.186 C 
HETATM   19  O3  UNL     1       3.256  10.379  18.503  1.00  0.00    -0.206 OA
HETATM   20  O4  UNL     1       4.554  11.596  20.095  1.00  0.00    -0.206 OA
ENDBRANCH   8  17
ENDBRANCH   1   7
BRANCH   6  21
HETATM   21  C22 UNL     1       8.404   8.178  19.614  1.00  0.00     0.256 C 
BRANCH  21  22
HETATM   22  N4  UNL     1       9.531   8.254  20.518  1.00  0.00    -0.077 N 
ATOM     23  H43 UNL     1      10.001   7.352  20.590  1.00  0.00     0.274 HD
ATOM     24  H42 UNL     1      10.286   8.805  20.113  1.00  0.00     0.274 HD
ATOM     25  H41 UNL     1       9.278   8.607  21.442  1.00  0.00     0.274 HD
ENDBRANCH  21  22
ENDBRANCH   6  21
BRANCH   4  26
HETATM   26  C10 UNL     1       7.497   3.863  18.516  1.00  0.00     0.029 C 
HETATM   27  C11 UNL     1       6.841   2.572  18.947  1.00  0.00     0.035 C 
HETATM   28  C12 UNL     1       7.531   1.348  18.372  1.00  0.00    -0.012 C 
HETATM   29  C13 UNL     1       8.951   1.309  18.861  1.00  0.00     0.009 C 
HETATM   30  C17 UNL     1       7.519   1.409  16.875  1.00  0.00     0.009 C 
HETATM   31  C14 UNL     1       9.653   2.564  18.399  1.00  0.00    -0.012 C 
HETATM   32  C15 UNL     1       9.657   2.664  16.909  1.00  0.00     0.009 C 
HETATM   33  C19 UNL     1       8.949   3.746  19.016  1.00  0.00     0.035 C 
HETATM   34  C16 UNL     1       8.209   2.674  16.467  1.00  0.00    -0.012 C 
HETATM   35  C18 UNL     1       7.509   3.911  17.012  1.00  0.00     0.035 C 
ENDBRANCH   4  26
TORSDOF 8
ENDMDL
MODEL 2
REMARK VINA RESULT: -7.706749012      0.177      1.305
REMARK  8 active torsions:
REMARK  status: ('A' for Active; 'I' for Inactive)
REMARK    1  A    between atoms: O1_2  and  C2_3 
REMARK    2  A    between atoms: C2_3  and  C3_5 
REMARK    3  A    between atoms: C5_7  and  C6_8 
REMARK    4  A    between atoms: C6_8  and  N2_15 
REMARK    5  A    between atoms: N1_9  and  S1_11 
REMARK    6  A    between atoms: N3_18  and  C10_19 
REMARK    7  A    between atoms: C21_30  and  C22_31 
REMARK    8  A    between atoms: C22_31  and  N4_32 
ROOT
HETATM    1  N2  UNL     1       6.433   7.232  20.713  1.00  0.00    -0.360 N 
HETATM    2  C8  UNL     1       5.903   5.987  21.203  1.00  0.00     0.144 C 
HETATM    3  C9  UNL     1       6.687   4.789  20.632  1.00  0.00     0.137 C 
HETATM    4  N3  UNL     1       6.983   4.912  19.258  1.00  0.00    -0.400 N 
HETATM    5  C20 UNL     1       7.236   6.210  18.759  1.00  0.00     0.144 C 
HETATM    6  C21 UNL     1       7.624   7.063  19.983  1.00  0.00     0.128 C 
ENDROOT
BRANCH   1   7
HETATM    7  C6  UNL     1       5.752   8.462  20.967  1.00  0.00     0.094 C 
HETATM    8  N1  UNL     1       4.865   8.857  20.102  1.00  0.00    -0.274 N 
ATOM      9  H1  UNL     1       4.751   8.230  19.306  1.00  0.00     0.179 HD
BRANCH   7  10
HETATM   10  C5  UNL     1       5.930   9.346  22.116  1.00  0.00     0.068 A 
HETATM   11  C3  UNL     1       6.820   8.904  23.203  1.00  0.00     0.097 A 
HETATM   12  C4  UNL     1       7.034  10.228  22.425  1.00  0.00     0.028 A 
BRANCH  11  13
HETATM   13  C2  UNL     1       6.615   9.153  24.628  1.00  0.00     0.263 C 
HETATM   14  O2  UNL     1       5.480   9.438  25.065  1.00  0.00    -0.265 OA
BRANCH  13  15
HETATM   15  O1  UNL     1       7.664   9.081  25.528  1.00  0.00    -0.326 OA
HETATM   16  C1  UNL     1       8.713   8.133  25.468  1.00  0.00     0.213 C 
ENDBRANCH  13  15
ENDBRANCH  11  13
ENDBRANCH   7  10
BRANCH   8  17
HETATM   17  S1  UNL     1       3.875  10.209  20.056  1.00  0.00     0.228 S 
HETATM   18  C7  UNL     1       2.451  10.165  21.096  1.00  0.00     0.186 C 
HETATM   19  O3  UNL     1       3.296  10.270  18.624  1.00  0.00    -0.206 OA
HETATM   20  O4  UNL     1       4.617  11.538  20.158  1.00  0.00    -0.206 OA
ENDBRANCH   8  17
ENDBRANCH   1   7
BRANCH   6  21
HETATM   21  C22 UNL     1       8.500   8.172  19.621  1.00  0.00     0.256 C 
BRANCH  21  22
HETATM   22  N4  UNL     1       9.552   8.401  20.587  1.00  0.00    -0.077 N 
ATOM     23  H43 UNL     1       9.218   8.233  21.535  1.00  0.00     0.274 HD
ATOM     24  H42 UNL     1      10.264   7.674  20.528  1.00  0.00     0.274 HD
ATOM     25  H41 UNL     1       9.971   9.328  20.508  1.00  0.00     0.274 HD
ENDBRANCH  21  22
ENDBRANCH   6  21
BRANCH   4  26
HETATM   26  C10 UNL     1       7.634   3.819  18.650  1.00  0.00     0.029 C 
HETATM   27  C11 UNL     1       7.471   3.899  17.150  1.00  0.00     0.035 C 
HETATM   28  C12 UNL     1       8.098   2.719  16.431  1.00  0.00    -0.012 C 
HETATM   29  C13 UNL     1       7.426   1.454  16.883  1.00  0.00     0.009 C 
HETATM   30  C17 UNL     1       9.562   2.646  16.745  1.00  0.00     0.009 C 
HETATM   31  C14 UNL     1       7.618   1.314  18.374  1.00  0.00    -0.012 C 
HETATM   32  C15 UNL     1       9.067   1.244  18.729  1.00  0.00     0.009 C 
HETATM   33  C19 UNL     1       6.956   2.493  19.042  1.00  0.00     0.035 C 
HETATM   34  C16 UNL     1       9.701   2.526  18.231  1.00  0.00    -0.012 C 
HETATM   35  C18 UNL     1       9.103   3.718  18.962  1.00  0.00     0.035 C 
ENDBRANCH   4  26
TORSDOF 8
ENDMDL
MODEL 3
REMARK VINA RESULT: -7.699302242      2.064      3.471
REMARK  8 active torsions:
REMARK  status: ('A' for Active; 'I' for Inactive)
REMARK    1  A    between atoms: O1_2  and  C2_3 
REMARK    2  A    between atoms: C2_3  and  C3_5 
REMARK    3  A    between atoms: C5_7  and  C6_8 
REMARK    4  A    between atoms: C6_8  and  N2_15 
REMARK    5  A    between atoms: N1_9  and  S1_11 
REMARK    6  A    between atoms: N3_18  and  C10_19 
REMARK    7  A    between atoms: C21_30  and  C22_31 
REMARK    8  A    between atoms: C22_31  and  N4_32 
ROOT
HETATM    1  N2  UNL     1       6.357   7.788  19.934  1.00  0.00    -0.360 N 
HETATM    2  C8  UNL     1       6.011   7.510  18.565  1.00  0.00     0.144 C 
HETATM    3  C9  UNL     1       6.231   6.021  18.231  1.00  0.00     0.137 C 
HETATM    4  N3  UNL     1       7.434   5.498  18.751  1.00  0.00    -0.400 N 
HETATM    5  C20 UNL     1       7.883   6.006  19.991  1.00  0.00     0.144 C 
HETATM    6  C21 UNL     1       6.642   6.623  20.667  1.00  0.00     0.128 C 
ENDROOT
BRANCH   1   7
HETATM    7  C6  UNL     1       6.403   9.134  20.412  1.00  0.00     0.094 C 
HETATM    8  N1  UNL     1       7.474   9.830  20.169  1.00  0.00    -0.274 N 
ATOM      9  H1  UNL     1       8.192   9.324  19.651  1.00  0.00     0.179 HD
BRANCH   7  10
HETATM   10  C5  UNL     1       5.361   9.841  21.152  1.00  0.00     0.068 A 
HETATM   11  C3  UNL     1       4.058   9.178  21.326  1.00  0.00     0.097 A 
HETATM   12  C4  UNL     1       4.926   9.653  22.519  1.00  0.00     0.028 A 
BRANCH  11  13
HETATM   13  C2  UNL     1       2.756   9.840  21.320  1.00  0.00     0.263 C 
HETATM   14  O2  UNL     1       2.556  10.841  20.600  1.00  0.00    -0.265 OA
BRANCH  13  15
HETATM   15  O1  UNL     1       1.712   9.381  22.106  1.00  0.00    -0.326 OA
HETATM   16  C1  UNL     1       1.539   8.036  22.509  1.00  0.00     0.213 C 
ENDBRANCH  13  15
ENDBRANCH  11  13
ENDBRANCH   7  10
BRANCH   8  17
HETATM   17  S1  UNL     1       7.889  11.410  20.551  1.00  0.00     0.228 S 
HETATM   18  C7  UNL     1       6.755  12.657  20.033  1.00  0.00     0.186 C 
HETATM   19  O3  UNL     1       9.180  11.718  19.759  1.00  0.00    -0.206 OA
HETATM   20  O4  UNL     1       8.343  11.611  21.993  1.00  0.00    -0.206 OA
ENDBRANCH   8  17
ENDBRANCH   1   7
BRANCH   6  21
HETATM   21  C22 UNL     1       6.747   6.603  22.123  1.00  0.00     0.256 C 
BRANCH  21  22
HETATM   22  N4  UNL     1       8.055   6.993  22.601  1.00  0.00    -0.077 N 
ATOM     23  H43 UNL     1       8.271   6.535  23.486  1.00  0.00     0.274 HD
ATOM     24  H42 UNL     1       8.790   6.589  22.021  1.00  0.00     0.274 HD
ATOM     25  H41 UNL     1       8.167   8.004  22.678  1.00  0.00     0.274 HD
ENDBRANCH  21  22
ENDBRANCH   6  21
BRANCH   4  26
HETATM   26  C10 UNL     1       7.738   4.161  18.422  1.00  0.00     0.029 C 
HETATM   27  C11 UNL     1       9.104   3.803  18.960  1.00  0.00     0.035 C 
HETATM   28  C12 UNL     1       9.523   2.392  18.590  1.00  0.00    -0.012 C 
HETATM   29  C13 UNL     1       9.591   2.274  17.094  1.00  0.00     0.009 C 
HETATM   30  C17 UNL     1       8.530   1.404  19.125  1.00  0.00     0.009 C 
HETATM   31  C14 UNL     1       8.225   2.573  16.526  1.00  0.00    -0.012 C 
HETATM   32  C15 UNL     1       7.203   1.613  17.040  1.00  0.00     0.009 C 
HETATM   33  C19 UNL     1       7.866   3.991  16.896  1.00  0.00     0.035 C 
HETATM   34  C16 UNL     1       7.192   1.751  18.548  1.00  0.00    -0.012 C 
HETATM   35  C18 UNL     1       6.746   3.153  18.937  1.00  0.00     0.035 C 
ENDBRANCH   4  26
TORSDOF 8
ENDMDL
MODEL 4
REMARK VINA RESULT: -7.688785253      2.240      4.388
REMARK  8 active torsions:
REMARK  status: ('A' for Active; 'I' for Inactive)
REMARK    1  A    between atoms: O1_2  and  C2_3 
REMARK    2  A    between atoms: C2_3  and  C3_5 
REMARK    3  A    between atoms: C5_7  and  C6_8 
REMARK    4  A    between atoms: C6_8  and  N2_15 
REMARK    5  A    between atoms: N1_9  and  S1_11 
REMARK    6  A    between atoms: N3_18  and  C10_19 
REMARK    7  A    between atoms: C21_30  and  C22_31 
REMARK    8  A    between atoms: C22_31  and  N4_32 
ROOT
HETATM    1  N2  UNL     1       7.450   7.311  21.068  1.00  0.00    -0.360 N 
HETATM    2  C8  UNL     1       8.151   7.527  19.830  1.00  0.00     0.144 C 
HETATM    3  C9  UNL     1       7.957   6.336  18.870  1.00  0.00     0.137 C 
HETATM    4  N3  UNL     1       8.060   5.079  19.503  1.00  0.00    -0.400 N 
HETATM    5  C20 UNL     1       7.598   4.981  20.835  1.00  0.00     0.144 C 
HETATM    6  C21 UNL     1       6.633   6.167  21.034  1.00  0.00     0.128 C 
ENDROOT
BRANCH   1   7
HETATM    7  C6  UNL     1       7.634   8.200  22.171  1.00  0.00     0.094 C 
HETATM    8  N1  UNL     1       8.219   7.736  23.236  1.00  0.00    -0.274 N 
ATOM      9  H1  UNL     1       8.487   6.754  23.170  1.00  0.00     0.179 HD
BRANCH   7  10
HETATM   10  C5  UNL     1       7.243   9.606  22.245  1.00  0.00     0.068 A 
HETATM   11  C3  UNL     1       7.530  10.469  21.088  1.00  0.00     0.097 A 
HETATM   12  C4  UNL     1       6.101  10.266  21.653  1.00  0.00     0.028 A 
BRANCH  11  13
HETATM   13  C2  UNL     1       7.930  11.874  21.149  1.00  0.00     0.263 C 
HETATM   14  O2  UNL     1       8.659  12.285  22.076  1.00  0.00    -0.265 OA
BRANCH  13  15
HETATM   15  O1  UNL     1       7.517  12.781  20.189  1.00  0.00    -0.326 OA
HETATM   16  C1  UNL     1       7.202  14.136  20.446  1.00  0.00     0.213 C 
ENDBRANCH  13  15
ENDBRANCH  11  13
ENDBRANCH   7  10
BRANCH   8  17
HETATM   17  S1  UNL     1       8.613   8.457  24.698  1.00  0.00     0.228 S 
HETATM   18  C7  UNL     1      10.051   9.478  24.698  1.00  0.00     0.186 C 
HETATM   19  O3  UNL     1       8.967   7.304  25.665  1.00  0.00    -0.206 OA
HETATM   20  O4  UNL     1       7.439   9.122  25.410  1.00  0.00    -0.206 OA
ENDBRANCH   8  17
ENDBRANCH   1   7
BRANCH   6  21
HETATM   21  C22 UNL     1       5.619   5.882  22.045  1.00  0.00     0.256 C 
BRANCH  21  22
HETATM   22  N4  UNL     1       5.235   4.488  22.085  1.00  0.00    -0.077 N 
ATOM     23  H43 UNL     1       5.219   4.088  21.147  1.00  0.00     0.274 HD
ATOM     24  H42 UNL     1       5.975   3.920  22.496  1.00  0.00     0.274 HD
ATOM     25  H41 UNL     1       4.348   4.332  22.563  1.00  0.00     0.274 HD
ENDBRANCH  21  22
ENDBRANCH   6  21
BRANCH   4  26
HETATM   26  C10 UNL     1       7.968   3.943  18.673  1.00  0.00     0.029 C 
HETATM   27  C11 UNL     1       9.341   3.345  18.476  1.00  0.00     0.035 C 
HETATM   28  C12 UNL     1       9.326   2.148  17.542  1.00  0.00    -0.012 C 
HETATM   29  C13 UNL     1       8.834   2.585  16.191  1.00  0.00     0.009 C 
HETATM   30  C17 UNL     1       8.420   1.085  18.085  1.00  0.00     0.009 C 
HETATM   31  C14 UNL     1       7.438   3.139  16.345  1.00  0.00    -0.012 C 
HETATM   32  C15 UNL     1       6.504   2.109  16.890  1.00  0.00     0.009 C 
HETATM   33  C19 UNL     1       7.510   4.338  17.257  1.00  0.00     0.035 C 
HETATM   34  C16 UNL     1       7.056   1.685  18.234  1.00  0.00    -0.012 C 
HETATM   35  C18 UNL     1       7.051   2.868  19.192  1.00  0.00     0.035 C 
ENDBRANCH   4  26
TORSDOF 8
ENDMDL
MODEL 5
REMARK VINA RESULT: -7.673465294      0.100      1.315
REMARK  8 active torsions:
REMARK  status: ('A' for Active; 'I' for Inactive)
REMARK    1  A    between atoms: O1_2  and  C2_3 
REMARK    2  A    between atoms: C2_3  and  C3_5 
REMARK    3  A    between atoms: C5_7  and  C6_8 
REMARK    4  A    between atoms: C6_8  and  N2_15 
REMARK    5  A    between atoms: N1_9  and  S1_11 
REMARK    6  A    between atoms: N3_18  and  C10_19 
REMARK    7  A    between atoms: C21_30  and  C22_31 
REMARK    8  A    between atoms: C22_31  and  N4_32 
ROOT
HETATM    1  N2  UNL     1       6.297   7.251  20.642  1.00  0.00    -0.360 N 
HETATM    2  C8  UNL     1       5.698   6.028  21.105  1.00  0.00     0.144 C 
HETATM    3  C9  UNL     1       6.454   4.801  20.558  1.00  0.00     0.137 C 
HETATM    4  N3  UNL     1       6.805   4.916  19.196  1.00  0.00    -0.400 N 
HETATM    5  C20 UNL     1       7.129   6.205  18.714  1.00  0.00     0.144 C 
HETATM    6  C21 UNL     1       7.505   7.037  19.956  1.00  0.00     0.128 C 
ENDROOT
BRANCH   1   7
HETATM    7  C6  UNL     1       5.657   8.507  20.877  1.00  0.00     0.094 C 
HETATM    8  N1  UNL     1       4.838   8.952  19.971  1.00  0.00    -0.274 N 
ATOM      9  H1  UNL     1       4.741   8.342  19.160  1.00  0.00     0.179 HD
BRANCH   7  10
HETATM   10  C5  UNL     1       5.809   9.368  22.048  1.00  0.00     0.068 A 
HETATM   11  C3  UNL     1       6.642   8.886  23.162  1.00  0.00     0.097 A 
HETATM   12  C4  UNL     1       6.921  10.216  22.417  1.00  0.00     0.028 A 
BRANCH  11  13
HETATM   13  C2  UNL     1       6.386   9.117  24.582  1.00  0.00     0.263 C 
HETATM   14  O2  UNL     1       5.225   9.330  24.990  1.00  0.00    -0.265 OA
BRANCH  13  15
HETATM   15  O1  UNL     1       7.413   9.105  25.510  1.00  0.00    -0.326 OA
HETATM   16  C1  UNL     1       8.540   8.252  25.452  1.00  0.00     0.213 C 
ENDBRANCH  13  15
ENDBRANCH  11  13
ENDBRANCH   7  10
BRANCH   8  17
HETATM   17  S1  UNL     1       3.912  10.349  19.892  1.00  0.00     0.228 S 
HETATM   18  C7  UNL     1       2.400  10.330  20.801  1.00  0.00     0.186 C 
HETATM   19  O3  UNL     1       3.466  10.486  18.418  1.00  0.00    -0.206 OA
HETATM   20  O4  UNL     1       4.695  11.639  20.111  1.00  0.00    -0.206 OA
ENDBRANCH   8  17
ENDBRANCH   1   7
BRANCH   6  21
HETATM   21  C22 UNL     1       8.439   8.111  19.632  1.00  0.00     0.256 C 
BRANCH  21  22
HETATM   22  N4  UNL     1       9.554   8.188  20.551  1.00  0.00    -0.077 N 
ATOM     23  H43 UNL     1      10.175   7.388  20.437  1.00  0.00     0.274 HD
ATOM     24  H42 UNL     1      10.193   8.936  20.283  1.00  0.00     0.274 HD
ATOM     25  H41 UNL     1       9.263   8.288  21.523  1.00  0.00     0.274 HD
ENDBRANCH  21  22
ENDBRANCH   6  21
BRANCH   4  26
HETATM   26  C10 UNL     1       7.433   3.800  18.607  1.00  0.00     0.029 C 
HETATM   27  C11 UNL     1       8.881   3.746  19.035  1.00  0.00     0.035 C 
HETATM   28  C12 UNL     1       9.637   2.599  18.389  1.00  0.00    -0.012 C 
HETATM   29  C13 UNL     1       9.622   2.777  16.898  1.00  0.00     0.009 C 
HETATM   30  C17 UNL     1       8.990   1.294  18.744  1.00  0.00     0.009 C 
HETATM   31  C14 UNL     1       8.187   2.781  16.429  1.00  0.00    -0.012 C 
HETATM   32  C15 UNL     1       7.504   1.497  16.769  1.00  0.00     0.009 C 
HETATM   33  C19 UNL     1       7.488   3.950  17.075  1.00  0.00     0.035 C 
HETATM   34  C16 UNL     1       7.569   1.352  18.275  1.00  0.00    -0.012 C 
HETATM   35  C18 UNL     1       6.791   2.479  18.938  1.00  0.00     0.035 C 
ENDBRANCH   4  26
TORSDOF 8
ENDMDL
