MODEL 1
REMARK VINA RESULT: -8.900509819      0.000      0.000
REMARK  8 active torsions:
REMARK  status: ('A' for Active; 'I' for Inactive)
REMARK       I    between atoms: C2_4  and  N2_5 
REMARK       I    between atoms: C2_4  and  N3_16 
REMARK       I    between atoms: N2_5  and  C3_7 
REMARK    1  A    between atoms: C3_7  and  C4_9 
REMARK    2  A    between atoms: N3_16  and  C10_17 
REMARK    3  A    between atoms: N3_16  and  C13_21 
REMARK    4  A    between atoms: C10_17  and  C11_18 
REMARK    5  A    between atoms: C11_18  and  O2_19 
REMARK    6  A    between atoms: C13_21  and  O3_22 
REMARK    7  A    between atoms: C13_21  and  C14_24 
REMARK    8  A    between atoms: N5_31  and  O5_32 
ROOT
HETATM    1  C1  UNL     1       4.260   8.070  21.867  1.00  0.00     0.165 C 
HETATM    2  N1  UNL     1       5.444   8.824  22.030  1.00  0.00    -0.230 N 
ATOM      3  H1  UNL     1       5.358   9.759  22.429  1.00  0.00     0.177 HD
HETATM    4  C2  UNL     1       6.677   8.398  21.696  1.00  0.00     0.684 C 
HETATM    5  N2  UNL     1       6.711   7.128  21.166  1.00  0.00    -0.155 N 
ATOM      6  H2  UNL     1       5.807   6.662  21.248  1.00  0.00     0.187 HD
HETATM    7  C3  UNL     1       7.664   6.307  20.543  1.00  0.00     0.271 C 
HETATM    8  O1  UNL     1       8.837   6.675  20.265  1.00  0.00    -0.267 OA
HETATM    9  N3  UNL     1       7.637   9.408  21.915  1.00  0.00    -0.159 N 
ENDROOT
BRANCH   9  10
HETATM   10  C10 UNL     1       7.279  10.750  21.523  1.00  0.00     0.176 C 
BRANCH  10  11
HETATM   11  C11 UNL     1       7.704  11.168  20.161  1.00  0.00     0.188 C 
BRANCH  11  12
HETATM   12  O2  UNL     1       8.877  11.845  19.993  1.00  0.00    -0.394 OA
HETATM   13  C12 UNL     1       8.912  13.156  20.365  1.00  0.00     0.201 C 
ENDBRANCH  11  12
ENDBRANCH  10  11
ENDBRANCH   9  10
BRANCH   9  14
HETATM   14  C13 UNL     1       8.881   9.098  22.460  1.00  0.00     0.168 C 
BRANCH  14  15
HETATM   15  O3  UNL     1       9.844   9.168  21.540  1.00  0.00    -0.345 OA
ATOM     16  H3  UNL     1      10.629   8.719  21.828  1.00  0.00     0.219 HD
ENDBRANCH  14  15
BRANCH  14  17
HETATM   17  C14 UNL     1       9.386   8.728  23.736  1.00  0.00     0.018 A 
HETATM   18  C15 UNL     1       8.483   8.734  24.826  1.00  0.00     0.018 A 
HETATM   19  C16 UNL     1       8.859   8.421  26.112  1.00  0.00     0.035 A 
HETATM   20  C17 UNL     1      10.162   8.083  26.390  1.00  0.00     0.088 A 
HETATM   21  N4  UNL     1      10.862   7.731  27.499  1.00  0.00    -0.237 N 
HETATM   22  C18 UNL     1      11.085   8.059  25.373  1.00  0.00     0.119 A 
HETATM   23  O4  UNL     1      12.105   7.515  27.166  1.00  0.00    -0.128 OA
ATOM     24  H4  UNL     1      10.478   7.649  28.440  1.00  0.00     0.197 HD
HETATM   25  N5  UNL     1      12.276   7.702  25.898  1.00  0.00    -0.100 N 
HETATM   26  C19 UNL     1      10.660   8.383  24.082  1.00  0.00     0.052 A 
BRANCH  25  27
HETATM   27  O5  UNL     1      13.466   7.556  25.241  1.00  0.00    -0.261 OA
ATOM     28  H5  UNL     1      14.115   8.241  25.134  1.00  0.00     0.247 HD
ENDBRANCH  25  27
ENDBRANCH  14  17
ENDBRANCH   9  14
BRANCH   7  29
HETATM   29  C4  UNL     1       7.377   4.912  20.145  1.00  0.00     0.050 A 
HETATM   30  C5  UNL     1       7.730   3.924  21.066  1.00  0.00     0.018 A 
HETATM   31  C6  UNL     1       7.568   2.599  20.757  1.00  0.00     0.001 A 
HETATM   32  C7  UNL     1       7.061   2.192  19.547  1.00  0.00     0.001 A 
HETATM   33  C8  UNL     1       6.716   3.162  18.648  1.00  0.00     0.020 A 
HETATM   34  C9  UNL     1       6.881   4.518  18.968  1.00  0.00     0.026 A 
HETATM   35 BR1  UNL     1       6.273   5.811  17.676  1.00  0.00    -0.050 Br
ENDBRANCH   7  29
TORSDOF 8
ENDMDL
MODEL 2
REMARK VINA RESULT: -8.708494038      2.207      3.277
REMARK  8 active torsions:
REMARK  status: ('A' for Active; 'I' for Inactive)
REMARK       I    between atoms: C2_4  and  N2_5 
REMARK       I    between atoms: C2_4  and  N3_16 
REMARK       I    between atoms: N2_5  and  C3_7 
REMARK    1  A    between atoms: C3_7  and  C4_9 
REMARK    2  A    between atoms: N3_16  and  C10_17 
REMARK    3  A    between atoms: N3_16  and  C13_21 
REMARK    4  A    between atoms: C10_17  and  C11_18 
REMARK    5  A    between atoms: C11_18  and  O2_19 
REMARK    6  A    between atoms: C13_21  and  O3_22 
REMARK    7  A    between atoms: C13_21  and  C14_24 
REMARK    8  A    between atoms: N5_31  and  O5_32 
ROOT
HETATM    1  C1  UNL     1       4.450   5.154  22.981  1.00  0.00     0.165 C 
HETATM    2  N1  UNL     1       5.021   6.407  23.300  1.00  0.00    -0.230 N 
ATOM      3  H1  UNL     1       4.681   6.883  24.136  1.00  0.00     0.177 HD
HETATM    4  C2  UNL     1       5.980   7.018  22.579  1.00  0.00     0.684 C 
HETATM    5  N2  UNL     1       6.387   6.314  21.469  1.00  0.00    -0.155 N 
ATOM      6  H2  UNL     1       5.993   5.374  21.455  1.00  0.00     0.187 HD
HETATM    7  C3  UNL     1       7.202   6.552  20.351  1.00  0.00     0.271 C 
HETATM    8  O1  UNL     1       7.750   7.660  20.102  1.00  0.00    -0.267 OA
HETATM    9  N3  UNL     1       6.287   8.286  23.118  1.00  0.00    -0.159 N 
ENDROOT
BRANCH   9  10
HETATM   10  C10 UNL     1       5.178   9.099  23.554  1.00  0.00     0.176 C 
BRANCH  10  11
HETATM   11  C11 UNL     1       4.967   9.185  25.023  1.00  0.00     0.188 C 
BRANCH  11  12
HETATM   12  O2  UNL     1       4.381   8.148  25.688  1.00  0.00    -0.394 OA
HETATM   13  C12 UNL     1       3.019   8.097  25.708  1.00  0.00     0.201 C 
ENDBRANCH  11  12
ENDBRANCH  10  11
ENDBRANCH   9  10
BRANCH   9  14
HETATM   14  C13 UNL     1       7.606   8.726  23.189  1.00  0.00     0.168 C 
BRANCH  14  15
HETATM   15  O3  UNL     1       7.908   9.521  22.162  1.00  0.00    -0.345 OA
ATOM     16  H3  UNL     1       7.129   9.776  21.683  1.00  0.00     0.219 HD
ENDBRANCH  14  15
BRANCH  14  17
HETATM   17  C14 UNL     1       8.709   8.547  24.069  1.00  0.00     0.018 A 
HETATM   18  C15 UNL     1       9.998   8.867  23.579  1.00  0.00     0.018 A 
HETATM   19  C16 UNL     1      11.143   8.711  24.326  1.00  0.00     0.035 A 
HETATM   20  C17 UNL     1      11.072   8.223  25.609  1.00  0.00     0.088 A 
HETATM   21  N4  UNL     1      11.962   7.948  26.597  1.00  0.00    -0.237 N 
HETATM   22  C18 UNL     1       9.849   7.894  26.140  1.00  0.00     0.119 A 
HETATM   23  O4  UNL     1      11.317   7.490  27.634  1.00  0.00    -0.128 OA
ATOM     24  H4  UNL     1      12.971   8.077  26.537  1.00  0.00     0.197 HD
HETATM   25  N5  UNL     1      10.047   7.444  27.397  1.00  0.00    -0.100 N 
HETATM   26  C19 UNL     1       8.711   8.069  25.347  1.00  0.00     0.052 A 
BRANCH  25  27
HETATM   27  O5  UNL     1       9.101   7.010  28.284  1.00  0.00    -0.261 OA
ATOM     28  H5  UNL     1       8.739   7.532  28.990  1.00  0.00     0.247 HD
ENDBRANCH  25  27
ENDBRANCH  14  17
ENDBRANCH   9  14
BRANCH   7  29
HETATM   29  C4  UNL     1       7.496   5.512  19.342  1.00  0.00     0.050 A 
HETATM   30  C5  UNL     1       8.460   4.566  19.696  1.00  0.00     0.018 A 
HETATM   31  C6  UNL     1       8.851   3.606  18.800  1.00  0.00     0.001 A 
HETATM   32  C7  UNL     1       8.321   3.535  17.535  1.00  0.00     0.001 A 
HETATM   33  C8  UNL     1       7.377   4.462  17.192  1.00  0.00     0.020 A 
HETATM   34  C9  UNL     1       6.978   5.443  18.112  1.00  0.00     0.026 A 
HETATM   35 BR1  UNL     1       5.571   6.642  17.570  1.00  0.00    -0.050 Br
ENDBRANCH   7  29
TORSDOF 8
ENDMDL
MODEL 3
REMARK VINA RESULT: -8.664219104      2.605      3.714
REMARK  8 active torsions:
REMARK  status: ('A' for Active; 'I' for Inactive)
REMARK       I    between atoms: C2_4  and  N2_5 
REMARK       I    between atoms: C2_4  and  N3_16 
REMARK       I    between atoms: N2_5  and  C3_7 
REMARK    1  A    between atoms: C3_7  and  C4_9 
REMARK    2  A    between atoms: N3_16  and  C10_17 
REMARK    3  A    between atoms: N3_16  and  C13_21 
REMARK    4  A    between atoms: C10_17  and  C11_18 
REMARK    5  A    between atoms: C11_18  and  O2_19 
REMARK    6  A    between atoms: C13_21  and  O3_22 
REMARK    7  A    between atoms: C13_21  and  C14_24 
REMARK    8  A    between atoms: N5_31  and  O5_32 
ROOT
HETATM    1  C1  UNL     1       3.353   5.417  19.879  1.00  0.00     0.165 C 
HETATM    2  N1  UNL     1       3.839   6.338  20.833  1.00  0.00    -0.230 N 
ATOM      3  H1  UNL     1       3.192   7.046  21.181  1.00  0.00     0.177 HD
HETATM    4  C2  UNL     1       5.096   6.349  21.316  1.00  0.00     0.684 C 
HETATM    5  N2  UNL     1       5.908   5.365  20.801  1.00  0.00    -0.155 N 
ATOM      6  H2  UNL     1       5.379   4.696  20.242  1.00  0.00     0.187 HD
HETATM    7  C3  UNL     1       7.273   5.040  20.845  1.00  0.00     0.271 C 
HETATM    8  O1  UNL     1       8.147   5.747  21.414  1.00  0.00    -0.267 OA
HETATM    9  N3  UNL     1       5.289   7.434  22.198  1.00  0.00    -0.159 N 
ENDROOT
BRANCH   9  10
HETATM   10  C10 UNL     1       4.726   8.704  21.810  1.00  0.00     0.176 C 
BRANCH  10  11
HETATM   11  C11 UNL     1       3.596   9.200  22.639  1.00  0.00     0.188 C 
BRANCH  11  12
HETATM   12  O2  UNL     1       2.627   8.334  23.055  1.00  0.00    -0.394 OA
HETATM   13  C12 UNL     1       2.409   8.225  24.397  1.00  0.00     0.201 C 
ENDBRANCH  11  12
ENDBRANCH  10  11
ENDBRANCH   9  10
BRANCH   9  14
HETATM   14  C13 UNL     1       6.019   7.271  23.373  1.00  0.00     0.168 C 
BRANCH  14  15
HETATM   15  O3  UNL     1       5.469   6.349  24.163  1.00  0.00    -0.345 OA
ATOM     16  H3  UNL     1       5.318   6.688  25.037  1.00  0.00     0.219 HD
ENDBRANCH  14  15
BRANCH  14  17
HETATM   17  C14 UNL     1       7.193   7.833  23.945  1.00  0.00     0.018 A 
HETATM   18  C15 UNL     1       7.953   8.721  23.146  1.00  0.00     0.018 A 
HETATM   19  C16 UNL     1       9.121   9.306  23.578  1.00  0.00     0.035 A 
HETATM   20  C17 UNL     1       9.604   9.040  24.837  1.00  0.00     0.088 A 
HETATM   21  N4  UNL     1      10.682   9.423  25.568  1.00  0.00    -0.237 N 
HETATM   22  C18 UNL     1       8.911   8.186  25.660  1.00  0.00     0.119 A 
HETATM   23  O4  UNL     1      10.635   8.840  26.734  1.00  0.00    -0.128 OA
ATOM     24  H4  UNL     1      11.413  10.062  25.255  1.00  0.00     0.197 HD
HETATM   25  N5  UNL     1       9.585   8.091  26.825  1.00  0.00    -0.100 N 
HETATM   26  C19 UNL     1       7.729   7.614  25.181  1.00  0.00     0.052 A 
BRANCH  25  27
HETATM   27  O5  UNL     1       9.250   7.347  27.923  1.00  0.00    -0.261 OA
ATOM     28  H5  UNL     1       9.788   6.660  28.297  1.00  0.00     0.247 HD
ENDBRANCH  25  27
ENDBRANCH  14  17
ENDBRANCH   9  14
BRANCH   7  29
HETATM   29  C4  UNL     1       7.824   3.821  20.213  1.00  0.00     0.050 A 
HETATM   30  C5  UNL     1       8.798   4.023  19.233  1.00  0.00     0.018 A 
HETATM   31  C6  UNL     1       9.315   2.959  18.542  1.00  0.00     0.001 A 
HETATM   32  C7  UNL     1       8.905   1.670  18.780  1.00  0.00     0.001 A 
HETATM   33  C8  UNL     1       7.952   1.476  19.740  1.00  0.00     0.020 A 
HETATM   34  C9  UNL     1       7.425   2.567  20.447  1.00  0.00     0.026 A 
HETATM   35 BR1  UNL     1       6.162   2.184  21.850  1.00  0.00    -0.050 Br
ENDBRANCH   7  29
TORSDOF 8
ENDMDL
MODEL 4
REMARK VINA RESULT: -8.495280392      1.619      2.078
REMARK  8 active torsions:
REMARK  status: ('A' for Active; 'I' for Inactive)
REMARK       I    between atoms: C2_4  and  N2_5 
REMARK       I    between atoms: C2_4  and  N3_16 
REMARK       I    between atoms: N2_5  and  C3_7 
REMARK    1  A    between atoms: C3_7  and  C4_9 
REMARK    2  A    between atoms: N3_16  and  C10_17 
REMARK    3  A    between atoms: N3_16  and  C13_21 
REMARK    4  A    between atoms: C10_17  and  C11_18 
REMARK    5  A    between atoms: C11_18  and  O2_19 
REMARK    6  A    between atoms: C13_21  and  O3_22 
REMARK    7  A    between atoms: C13_21  and  C14_24 
REMARK    8  A    between atoms: N5_31  and  O5_32 
ROOT
HETATM    1  C1  UNL     1       4.273   6.079  23.449  1.00  0.00     0.165 C 
HETATM    2  N1  UNL     1       5.199   7.146  23.461  1.00  0.00    -0.230 N 
ATOM      3  H1  UNL     1       5.006   7.934  24.078  1.00  0.00     0.177 HD
HETATM    4  C2  UNL     1       6.320   7.195  22.715  1.00  0.00     0.684 C 
HETATM    5  N2  UNL     1       6.512   6.096  21.911  1.00  0.00    -0.155 N 
ATOM      6  H2  UNL     1       5.843   5.355  22.120  1.00  0.00     0.187 HD
HETATM    7  C3  UNL     1       7.388   5.727  20.878  1.00  0.00     0.271 C 
HETATM    8  O1  UNL     1       8.263   6.492  20.389  1.00  0.00    -0.267 OA
HETATM    9  N3  UNL     1       6.995   8.420  22.900  1.00  0.00    -0.159 N 
ENDROOT
BRANCH   9  10
HETATM   10  C10 UNL     1       6.187   9.615  22.948  1.00  0.00     0.176 C 
BRANCH  10  11
HETATM   11  C11 UNL     1       5.769  10.175  21.637  1.00  0.00     0.188 C 
BRANCH  11  12
HETATM   12  O2  UNL     1       6.536   9.958  20.529  1.00  0.00    -0.394 OA
HETATM   13  C12 UNL     1       6.029   9.150  19.555  1.00  0.00     0.201 C 
ENDBRANCH  11  12
ENDBRANCH  10  11
ENDBRANCH   9  10
BRANCH   9  14
HETATM   14  C13 UNL     1       8.384   8.457  23.000  1.00  0.00     0.168 C 
BRANCH  14  15
HETATM   15  O3  UNL     1       8.949   8.682  21.813  1.00  0.00    -0.345 OA
ATOM     16  H3  UNL     1       9.716   8.135  21.687  1.00  0.00     0.219 HD
ENDBRANCH  14  15
BRANCH  14  17
HETATM   17  C14 UNL     1       9.350   8.315  24.034  1.00  0.00     0.018 A 
HETATM   18  C15 UNL     1      10.646   8.834  23.798  1.00  0.00     0.018 A 
HETATM   19  C16 UNL     1      11.671   8.734  24.710  1.00  0.00     0.035 A 
HETATM   20  C17 UNL     1      11.465   8.108  25.916  1.00  0.00     0.088 A 
HETATM   21  N4  UNL     1      12.218   7.835  27.013  1.00  0.00    -0.237 N 
HETATM   22  C18 UNL     1      10.228   7.584  26.203  1.00  0.00     0.119 A 
HETATM   23  O4  UNL     1      11.485   7.197  27.884  1.00  0.00    -0.128 OA
ATOM     24  H4  UNL     1      13.198   8.088  27.135  1.00  0.00     0.197 HD
HETATM   25  N5  UNL     1      10.285   7.029  27.432  1.00  0.00    -0.100 N 
HETATM   26  C19 UNL     1       9.216   7.708  25.248  1.00  0.00     0.052 A 
BRANCH  25  27
HETATM   27  O5  UNL     1       9.279   6.396  28.107  1.00  0.00    -0.261 OA
ATOM     28  H5  UNL     1       8.390   6.297  27.788  1.00  0.00     0.247 HD
ENDBRANCH  25  27
ENDBRANCH  14  17
ENDBRANCH   9  14
BRANCH   7  29
HETATM   29  C4  UNL     1       7.366   4.387  20.253  1.00  0.00     0.050 A 
HETATM   30  C5  UNL     1       7.674   3.312  21.090  1.00  0.00     0.018 A 
HETATM   31  C6  UNL     1       7.748   2.040  20.585  1.00  0.00     0.001 A 
HETATM   32  C7  UNL     1       7.528   1.773  19.256  1.00  0.00     0.001 A 
HETATM   33  C8  UNL     1       7.227   2.826  18.440  1.00  0.00     0.020 A 
HETATM   34  C9  UNL     1       7.150   4.127  18.960  1.00  0.00     0.026 A 
HETATM   35 BR1  UNL     1       6.620   5.531  17.752  1.00  0.00    -0.050 Br
ENDBRANCH   7  29
TORSDOF 8
ENDMDL
MODEL 5
REMARK VINA RESULT: -8.481351367      2.059      2.680
REMARK  8 active torsions:
REMARK  status: ('A' for Active; 'I' for Inactive)
REMARK       I    between atoms: C2_4  and  N2_5 
REMARK       I    between atoms: C2_4  and  N3_16 
REMARK       I    between atoms: N2_5  and  C3_7 
REMARK    1  A    between atoms: C3_7  and  C4_9 
REMARK    2  A    between atoms: N3_16  and  C10_17 
REMARK    3  A    between atoms: N3_16  and  C13_21 
REMARK    4  A    between atoms: C10_17  and  C11_18 
REMARK    5  A    between atoms: C11_18  and  O2_19 
REMARK    6  A    between atoms: C13_21  and  O3_22 
REMARK    7  A    between atoms: C13_21  and  C14_24 
REMARK    8  A    between atoms: N5_31  and  O5_32 
ROOT
HETATM    1  C1  UNL     1       3.491   6.259  19.878  1.00  0.00     0.165 C 
HETATM    2  N1  UNL     1       4.099   7.046  20.882  1.00  0.00    -0.230 N 
ATOM      3  H1  UNL     1       3.566   7.832  21.255  1.00  0.00     0.177 HD
HETATM    4  C2  UNL     1       5.332   6.834  21.381  1.00  0.00     0.684 C 
HETATM    5  N2  UNL     1       5.986   5.756  20.830  1.00  0.00    -0.155 N 
ATOM      6  H2  UNL     1       5.369   5.207  20.232  1.00  0.00     0.187 HD
HETATM    7  C3  UNL     1       7.281   5.216  20.875  1.00  0.00     0.271 C 
HETATM    8  O1  UNL     1       8.245   5.747  21.490  1.00  0.00    -0.267 OA
HETATM    9  N3  UNL     1       5.676   7.832  22.317  1.00  0.00    -0.159 N 
ENDROOT
BRANCH   9  10
HETATM   10  C10 UNL     1       5.331   9.192  21.983  1.00  0.00     0.176 C 
BRANCH  10  11
HETATM   11  C11 UNL     1       6.196   9.858  20.975  1.00  0.00     0.188 C 
BRANCH  11  12
HETATM   12  O2  UNL     1       6.998  10.898  21.347  1.00  0.00    -0.394 OA
HETATM   13  C12 UNL     1       8.090  11.165  20.576  1.00  0.00     0.201 C 
ENDBRANCH  11  12
ENDBRANCH  10  11
ENDBRANCH   9  10
BRANCH   9  14
HETATM   14  C13 UNL     1       6.348   7.502  23.492  1.00  0.00     0.168 C 
BRANCH  14  15
HETATM   15  O3  UNL     1       5.627   6.670  24.244  1.00  0.00    -0.345 OA
ATOM     16  H3  UNL     1       5.321   5.925  23.739  1.00  0.00     0.219 HD
ENDBRANCH  14  15
BRANCH  14  17
HETATM   17  C14 UNL     1       7.595   7.822  24.094  1.00  0.00     0.018 A 
HETATM   18  C15 UNL     1       8.589   8.409  23.273  1.00  0.00     0.018 A 
HETATM   19  C16 UNL     1       9.843   8.738  23.733  1.00  0.00     0.035 A 
HETATM   20  C17 UNL     1      10.184   8.500  25.043  1.00  0.00     0.088 A 
HETATM   21  N4  UNL     1      11.287   8.687  25.811  1.00  0.00    -0.237 N 
HETATM   22  C18 UNL     1       9.263   7.932  25.889  1.00  0.00     0.119 A 
HETATM   23  O4  UNL     1      11.041   8.263  27.020  1.00  0.00    -0.128 OA
ATOM     24  H4  UNL     1      12.167   9.094  25.495  1.00  0.00     0.197 HD
HETATM   25  N5  UNL     1       9.835   7.803  27.104  1.00  0.00    -0.100 N 
HETATM   26  C19 UNL     1       8.001   7.614  25.380  1.00  0.00     0.052 A 
BRANCH  25  27
HETATM   27  O5  UNL     1       9.274   7.285  28.238  1.00  0.00    -0.261 OA
ATOM     28  H5  UNL     1       8.978   6.388  28.336  1.00  0.00     0.247 HD
ENDBRANCH  25  27
ENDBRANCH  14  17
ENDBRANCH   9  14
BRANCH   7  29
HETATM   29  C4  UNL     1       7.643   3.954  20.193  1.00  0.00     0.050 A 
HETATM   30  C5  UNL     1       8.624   4.050  19.204  1.00  0.00     0.018 A 
HETATM   31  C6  UNL     1       8.975   2.949  18.468  1.00  0.00     0.001 A 
HETATM   32  C7  UNL     1       8.387   1.724  18.669  1.00  0.00     0.001 A 
HETATM   33  C8  UNL     1       7.428   1.634  19.638  1.00  0.00     0.020 A 
HETATM   34  C9  UNL     1       7.071   2.763  20.391  1.00  0.00     0.026 A 
HETATM   35 BR1  UNL     1       5.783   2.513  21.801  1.00  0.00    -0.050 Br
ENDBRANCH   7  29
TORSDOF 8
ENDMDL
