MODEL 1
REMARK VINA RESULT: -8.838565663      0.000      0.000
REMARK  6 active torsions:
REMARK  status: ('A' for Active; 'I' for Inactive)
REMARK    1  A    between atoms: N1_2  and  C3_4 
REMARK    2  A    between atoms: N3_16  and  C12_17 
REMARK    3  A    between atoms: C12_17  and  C13_18 
REMARK    4  A    between atoms: C13_18  and  N4_19 
REMARK    5  A    between atoms: C17_23  and  S1_24 
REMARK    6  A    between atoms: S1_24  and  N5_25 
ROOT
HETATM    1  C3  UNL     1       4.077   3.568  22.800  1.00  0.00     0.680 A 
HETATM    2  N2  UNL     1       4.355   2.250  22.631  1.00  0.00    -0.201 N 
ATOM      3  H2  UNL     1       3.799   1.538  23.105  1.00  0.00     0.183 HD
HETATM    4  C4  UNL     1       5.378   1.897  21.829  1.00  0.00     0.122 A 
HETATM    5  C5  UNL     1       6.134   2.842  21.187  1.00  0.00     0.037 A 
HETATM    6  C6  UNL     1       7.211   2.770  20.330  1.00  0.00     0.007 A 
HETATM    7  C7  UNL     1       7.926   1.717  19.801  1.00  0.00     0.033 A 
HETATM    8  C8  UNL     1       8.977   1.954  18.953  1.00  0.00     0.011 A 
HETATM    9 BR1  UNL     1      10.009   0.566  18.185  1.00  0.00    -0.051 Br
HETATM   10  C9  UNL     1       9.289   3.273  18.650  1.00  0.00     0.021 A 
HETATM   11  C10 UNL     1       8.584   4.318  19.171  1.00  0.00     0.032 A 
HETATM   12  C11 UNL     1       7.515   4.096  20.033  1.00  0.00     0.047 A 
HETATM   13  N3  UNL     1       6.670   4.923  20.674  1.00  0.00    -0.330 N 
HETATM   14  C19 UNL     1       5.809   4.166  21.393  1.00  0.00     0.136 A 
HETATM   15  N6  UNL     1       4.791   4.540  22.191  1.00  0.00    -0.175 N 
ATOM     16  H6  UNL     1       4.566   5.525  22.330  1.00  0.00     0.186 HD
ENDROOT
BRANCH  13  17
HETATM   17  C12 UNL     1       6.692   6.382  20.598  1.00  0.00     0.151 C 
BRANCH  17  18
HETATM   18  C13 UNL     1       8.057   6.841  21.053  1.00  0.00     0.148 C 
BRANCH  18  19
HETATM   19  N4  UNL     1       8.026   7.525  22.311  1.00  0.00    -0.363 N 
HETATM   20  C14 UNL     1       6.855   7.813  22.907  1.00  0.00     0.090 A 
HETATM   21  C15 UNL     1       6.746   8.461  24.104  1.00  0.00     0.019 A 
HETATM   22  C16 UNL     1       7.906   8.848  24.751  1.00  0.00     0.028 A 
HETATM   23  C17 UNL     1       9.124   8.566  24.163  1.00  0.00     0.094 A 
HETATM   24  C18 UNL     1       9.145   7.909  22.953  1.00  0.00     0.115 A 
BRANCH  23  25
HETATM   25  S1  UNL     1      10.571   9.067  25.006  1.00  0.00     0.258 S 
HETATM   26  O1  UNL     1      11.727   8.154  24.625  1.00  0.00    -0.201 OA
HETATM   27  O2  UNL     1      10.425   8.984  26.492  1.00  0.00    -0.201 OA
BRANCH  25  28
HETATM   28  N5  UNL     1      10.908  10.694  24.522  1.00  0.00    -0.324 N 
ATOM     29  H52 UNL     1      10.829  11.520  25.117  1.00  0.00     0.169 HD
ATOM     30  H51 UNL     1      11.196  10.665  23.544  1.00  0.00     0.169 HD
ENDBRANCH  25  28
ENDBRANCH  23  25
ENDBRANCH  18  19
ENDBRANCH  17  18
ENDBRANCH  13  17
BRANCH   1  31
HETATM   31  N1  UNL     1       3.010   3.960  23.638  1.00  0.00    -0.226 N 
HETATM   32  C1  UNL     1       2.194   2.989  24.319  1.00  0.00     0.168 C 
HETATM   33  C2  UNL     1       2.728   5.366  23.814  1.00  0.00     0.168 C 
ENDBRANCH   1  31
TORSDOF 6
ENDMDL
MODEL 2
REMARK VINA RESULT: -8.789018354      2.571      2.774
REMARK  6 active torsions:
REMARK  status: ('A' for Active; 'I' for Inactive)
REMARK    1  A    between atoms: N1_2  and  C3_4 
REMARK    2  A    between atoms: N3_16  and  C12_17 
REMARK    3  A    between atoms: C12_17  and  C13_18 
REMARK    4  A    between atoms: C13_18  and  N4_19 
REMARK    5  A    between atoms: C17_23  and  S1_24 
REMARK    6  A    between atoms: S1_24  and  N5_25 
ROOT
HETATM    1  C3  UNL     1       4.768   3.844  22.316  1.00  0.00     0.680 A 
HETATM    2  N2  UNL     1       5.012   2.510  22.389  1.00  0.00    -0.201 N 
ATOM      3  H2  UNL     1       4.454   1.914  23.001  1.00  0.00     0.183 HD
HETATM    4  C4  UNL     1       6.001   1.985  21.641  1.00  0.00     0.122 A 
HETATM    5  C5  UNL     1       6.759   2.773  20.813  1.00  0.00     0.037 A 
HETATM    6  C6  UNL     1       7.807   2.512  19.957  1.00  0.00     0.007 A 
HETATM    7  C7  UNL     1       8.481   1.360  19.617  1.00  0.00     0.033 A 
HETATM    8  C8  UNL     1       9.510   1.405  18.712  1.00  0.00     0.011 A 
HETATM    9 BR1  UNL     1      10.487  -0.130  18.191  1.00  0.00    -0.051 Br
HETATM   10  C9  UNL     1       9.843   2.635  18.160  1.00  0.00     0.021 A 
HETATM   11  C10 UNL     1       9.178   3.779  18.494  1.00  0.00     0.032 A 
HETATM   12  C11 UNL     1       8.131   3.751  19.410  1.00  0.00     0.047 A 
HETATM   13  N3  UNL     1       7.326   4.707  19.907  1.00  0.00    -0.330 N 
HETATM   14  C19 UNL     1       6.470   4.120  20.777  1.00  0.00     0.136 A 
HETATM   15  N6  UNL     1       5.485   4.664  21.517  1.00  0.00    -0.175 N 
ATOM     16  H6  UNL     1       5.287   5.664  21.476  1.00  0.00     0.186 HD
ENDROOT
BRANCH  13  17
HETATM   17  C12 UNL     1       7.377   6.124  19.559  1.00  0.00     0.151 C 
BRANCH  17  18
HETATM   18  C13 UNL     1       8.289   6.803  20.554  1.00  0.00     0.148 C 
BRANCH  18  19
HETATM   19  N4  UNL     1       7.727   8.004  21.098  1.00  0.00    -0.363 N 
HETATM   20  C14 UNL     1       6.756   7.948  22.027  1.00  0.00     0.090 A 
HETATM   21  C15 UNL     1       6.173   9.047  22.590  1.00  0.00     0.019 A 
HETATM   22  C16 UNL     1       6.602  10.299  22.187  1.00  0.00     0.028 A 
HETATM   23  C17 UNL     1       7.598  10.387  21.233  1.00  0.00     0.094 A 
HETATM   24  C18 UNL     1       8.132   9.229  20.715  1.00  0.00     0.115 A 
BRANCH  23  25
HETATM   25  S1  UNL     1       8.118  11.984  20.745  1.00  0.00     0.258 S 
HETATM   26  O1  UNL     1       9.166  11.867  19.647  1.00  0.00    -0.201 OA
HETATM   27  O2  UNL     1       8.749  12.747  21.866  1.00  0.00    -0.201 OA
BRANCH  25  28
HETATM   28  N5  UNL     1       6.723  12.820  20.156  1.00  0.00    -0.324 N 
ATOM     29  H52 UNL     1       6.025  13.291  20.732  1.00  0.00     0.169 HD
ATOM     30  H51 UNL     1       6.736  12.749  19.138  1.00  0.00     0.169 HD
ENDBRANCH  25  28
ENDBRANCH  23  25
ENDBRANCH  18  19
ENDBRANCH  17  18
ENDBRANCH  13  17
BRANCH   1  31
HETATM   31  N1  UNL     1       3.737   4.415  23.092  1.00  0.00    -0.226 N 
HETATM   32  C1  UNL     1       3.709   5.825  23.385  1.00  0.00     0.168 C 
HETATM   33  C2  UNL     1       2.687   3.567  23.608  1.00  0.00     0.168 C 
ENDBRANCH   1  31
TORSDOF 6
ENDMDL
MODEL 3
REMARK VINA RESULT: -8.729388528      1.553      1.781
REMARK  6 active torsions:
REMARK  status: ('A' for Active; 'I' for Inactive)
REMARK    1  A    between atoms: N1_2  and  C3_4 
REMARK    2  A    between atoms: N3_16  and  C12_17 
REMARK    3  A    between atoms: C12_17  and  C13_18 
REMARK    4  A    between atoms: C13_18  and  N4_19 
REMARK    5  A    between atoms: C17_23  and  S1_24 
REMARK    6  A    between atoms: S1_24  and  N5_25 
ROOT
HETATM    1  C3  UNL     1       4.807   3.873  22.228  1.00  0.00     0.680 A 
HETATM    2  N2  UNL     1       5.263   2.625  22.509  1.00  0.00    -0.201 N 
ATOM      3  H2  UNL     1       4.876   2.095  23.289  1.00  0.00     0.183 HD
HETATM    4  C4  UNL     1       6.236   2.098  21.741  1.00  0.00     0.122 A 
HETATM    5  C5  UNL     1       6.767   2.799  20.689  1.00  0.00     0.037 A 
HETATM    6  C6  UNL     1       7.745   2.514  19.761  1.00  0.00     0.007 A 
HETATM    7  C7  UNL     1       8.551   1.418  19.547  1.00  0.00     0.033 A 
HETATM    8  C8  UNL     1       9.457   1.418  18.518  1.00  0.00     0.011 A 
HETATM    9 BR1  UNL     1      10.601  -0.045  18.157  1.00  0.00    -0.051 Br
HETATM   10  C9  UNL     1       9.531   2.546  17.711  1.00  0.00     0.021 A 
HETATM   11  C10 UNL     1       8.734   3.634  17.919  1.00  0.00     0.032 A 
HETATM   12  C11 UNL     1       7.810   3.650  18.959  1.00  0.00     0.047 A 
HETATM   13  N3  UNL     1       6.922   4.570  19.378  1.00  0.00    -0.330 N 
HETATM   14  C19 UNL     1       6.268   4.061  20.448  1.00  0.00     0.136 A 
HETATM   15  N6  UNL     1       5.295   4.605  21.203  1.00  0.00    -0.175 N 
ATOM     16  H6  UNL     1       4.940   5.541  21.008  1.00  0.00     0.186 HD
ENDROOT
BRANCH  13  17
HETATM   17  C12 UNL     1       6.713   5.883  18.774  1.00  0.00     0.151 C 
BRANCH  17  18
HETATM   18  C13 UNL     1       7.716   6.831  19.388  1.00  0.00     0.148 C 
BRANCH  18  19
HETATM   19  N4  UNL     1       7.174   7.591  20.476  1.00  0.00    -0.363 N 
HETATM   20  C14 UNL     1       5.934   8.105  20.402  1.00  0.00     0.090 A 
HETATM   21  C15 UNL     1       5.351   8.838  21.396  1.00  0.00     0.019 A 
HETATM   22  C16 UNL     1       6.073   9.069  22.554  1.00  0.00     0.028 A 
HETATM   23  C17 UNL     1       7.350   8.553  22.657  1.00  0.00     0.094 A 
HETATM   24  C18 UNL     1       7.864   7.825  21.608  1.00  0.00     0.115 A 
BRANCH  23  25
HETATM   25  S1  UNL     1       8.236   8.861  24.133  1.00  0.00     0.258 S 
HETATM   26  O1  UNL     1       9.038   7.625  24.516  1.00  0.00    -0.201 OA
HETATM   27  O2  UNL     1       7.336   9.168  25.287  1.00  0.00    -0.201 OA
BRANCH  25  28
HETATM   28  N5  UNL     1       9.297  10.193  23.825  1.00  0.00    -0.324 N 
ATOM     29  H52 UNL     1       9.171  10.897  23.097  1.00  0.00     0.169 HD
ATOM     30  H51 UNL     1      10.057  10.136  24.502  1.00  0.00     0.169 HD
ENDBRANCH  25  28
ENDBRANCH  23  25
ENDBRANCH  18  19
ENDBRANCH  17  18
ENDBRANCH  13  17
BRANCH   1  31
HETATM   31  N1  UNL     1       3.788   4.445  23.021  1.00  0.00    -0.226 N 
HETATM   32  C1  UNL     1       2.677   3.661  23.497  1.00  0.00     0.168 C 
HETATM   33  C2  UNL     1       3.858   5.847  23.361  1.00  0.00     0.168 C 
ENDBRANCH   1  31
TORSDOF 6
ENDMDL
MODEL 4
REMARK VINA RESULT: -8.499405922      1.234      1.864
REMARK  6 active torsions:
REMARK  status: ('A' for Active; 'I' for Inactive)
REMARK    1  A    between atoms: N1_2  and  C3_4 
REMARK    2  A    between atoms: N3_16  and  C12_17 
REMARK    3  A    between atoms: C12_17  and  C13_18 
REMARK    4  A    between atoms: C13_18  and  N4_19 
REMARK    5  A    between atoms: C17_23  and  S1_24 
REMARK    6  A    between atoms: S1_24  and  N5_25 
ROOT
HETATM    1  C3  UNL     1       4.122   3.310  22.503  1.00  0.00     0.680 A 
HETATM    2  N2  UNL     1       4.704   2.093  22.664  1.00  0.00    -0.201 N 
ATOM      3  H2  UNL     1       4.360   1.444  23.371  1.00  0.00     0.183 HD
HETATM    4  C4  UNL     1       5.743   1.757  21.876  1.00  0.00     0.122 A 
HETATM    5  C5  UNL     1       6.217   2.620  20.922  1.00  0.00     0.037 A 
HETATM    6  C6  UNL     1       7.238   2.542  19.999  1.00  0.00     0.007 A 
HETATM    7  C7  UNL     1       8.161   1.565  19.696  1.00  0.00     0.033 A 
HETATM    8  C8  UNL     1       9.083   1.772  18.702  1.00  0.00     0.011 A 
HETATM    9 BR1  UNL     1      10.384   0.484  18.224  1.00  0.00    -0.051 Br
HETATM   10  C9  UNL     1       9.052   2.983  18.022  1.00  0.00     0.021 A 
HETATM   11  C10 UNL     1       8.139   3.952  18.319  1.00  0.00     0.032 A 
HETATM   12  C11 UNL     1       7.197   3.759  19.325  1.00  0.00     0.047 A 
HETATM   13  N3  UNL     1       6.208   4.530  19.811  1.00  0.00    -0.330 N 
HETATM   14  C19 UNL     1       5.591   3.842  20.800  1.00  0.00     0.136 A 
HETATM   15  N6  UNL     1       4.550   4.196  21.578  1.00  0.00    -0.175 N 
ATOM     16  H6  UNL     1       4.100   5.106  21.472  1.00  0.00     0.186 HD
ENDROOT
BRANCH  13  17
HETATM   17  C12 UNL     1       5.871   5.872  19.344  1.00  0.00     0.151 C 
BRANCH  17  18
HETATM   18  C13 UNL     1       5.711   6.751  20.562  1.00  0.00     0.148 C 
BRANCH  18  19
HETATM   19  N4  UNL     1       6.936   7.378  20.964  1.00  0.00    -0.363 N 
HETATM   20  C14 UNL     1       7.891   7.659  20.060  1.00  0.00     0.090 A 
HETATM   21  C15 UNL     1       9.081   8.254  20.366  1.00  0.00     0.019 A 
HETATM   22  C16 UNL     1       9.327   8.593  21.685  1.00  0.00     0.028 A 
HETATM   23  C17 UNL     1       8.364   8.316  22.635  1.00  0.00     0.094 A 
HETATM   24  C18 UNL     1       7.191   7.712  22.242  1.00  0.00     0.115 A 
BRANCH  23  25
HETATM   25  S1  UNL     1       8.704   8.757  24.293  1.00  0.00     0.258 S 
HETATM   26  O1  UNL     1       9.175   7.531  25.062  1.00  0.00    -0.201 OA
HETATM   27  O2  UNL     1       7.497   9.278  25.005  1.00  0.00    -0.201 OA
BRANCH  25  28
HETATM   28  N5  UNL     1       9.950   9.958  24.258  1.00  0.00    -0.324 N 
ATOM     29  H52 UNL     1      10.366  10.358  23.416  1.00  0.00     0.169 HD
ATOM     30  H51 UNL     1      10.180  10.183  25.226  1.00  0.00     0.169 HD
ENDBRANCH  25  28
ENDBRANCH  23  25
ENDBRANCH  18  19
ENDBRANCH  17  18
ENDBRANCH  13  17
BRANCH   1  31
HETATM   31  N1  UNL     1       3.032   3.682  23.320  1.00  0.00    -0.226 N 
HETATM   32  C1  UNL     1       2.537   5.035  23.340  1.00  0.00     0.168 C 
HETATM   33  C2  UNL     1       2.401   2.687  24.154  1.00  0.00     0.168 C 
ENDBRANCH   1  31
TORSDOF 6
ENDMDL
MODEL 5
REMARK VINA RESULT: -8.208808951      2.391      2.901
REMARK  6 active torsions:
REMARK  status: ('A' for Active; 'I' for Inactive)
REMARK    1  A    between atoms: N1_2  and  C3_4 
REMARK    2  A    between atoms: N3_16  and  C12_17 
REMARK    3  A    between atoms: C12_17  and  C13_18 
REMARK    4  A    between atoms: C13_18  and  N4_19 
REMARK    5  A    between atoms: C17_23  and  S1_24 
REMARK    6  A    between atoms: S1_24  and  N5_25 
ROOT
HETATM    1  C3  UNL     1       4.043   3.313  22.736  1.00  0.00     0.680 A 
HETATM    2  N2  UNL     1       4.342   2.003  22.538  1.00  0.00    -0.201 N 
ATOM      3  H2  UNL     1       3.787   1.272  22.984  1.00  0.00     0.183 HD
HETATM    4  C4  UNL     1       5.382   1.683  21.745  1.00  0.00     0.122 A 
HETATM    5  C5  UNL     1       6.136   2.654  21.140  1.00  0.00     0.037 A 
HETATM    6  C6  UNL     1       7.228   2.618  20.299  1.00  0.00     0.007 A 
HETATM    7  C7  UNL     1       7.965   1.587  19.757  1.00  0.00     0.033 A 
HETATM    8  C8  UNL     1       9.027   1.859  18.933  1.00  0.00     0.011 A 
HETATM    9 BR1  UNL     1      10.090   0.505  18.148  1.00  0.00    -0.051 Br
HETATM   10  C9  UNL     1       9.327   3.190  18.668  1.00  0.00     0.021 A 
HETATM   11  C10 UNL     1       8.599   4.212  19.203  1.00  0.00     0.032 A 
HETATM   12  C11 UNL     1       7.519   3.954  20.041  1.00  0.00     0.047 A 
HETATM   13  N3  UNL     1       6.653   4.755  20.688  1.00  0.00    -0.330 N 
HETATM   14  C19 UNL     1       5.790   3.968  21.373  1.00  0.00     0.136 A 
HETATM   15  N6  UNL     1       4.754   4.309  22.163  1.00  0.00    -0.175 N 
ATOM     16  H6  UNL     1       4.514   5.287  22.323  1.00  0.00     0.186 HD
ENDROOT
BRANCH  13  17
HETATM   17  C12 UNL     1       6.656   6.215  20.649  1.00  0.00     0.151 C 
BRANCH  17  18
HETATM   18  C13 UNL     1       7.882   6.687  21.396  1.00  0.00     0.148 C 
BRANCH  18  19
HETATM   19  N4  UNL     1       7.563   7.416  22.588  1.00  0.00    -0.363 N 
HETATM   20  C14 UNL     1       8.537   7.857  23.403  1.00  0.00     0.090 A 
HETATM   21  C15 UNL     1       8.312   8.558  24.554  1.00  0.00     0.019 A 
HETATM   22  C16 UNL     1       7.004   8.836  24.909  1.00  0.00     0.028 A 
HETATM   23  C17 UNL     1       5.982   8.395  24.090  1.00  0.00     0.094 A 
HETATM   24  C18 UNL     1       6.297   7.694  22.948  1.00  0.00     0.115 A 
BRANCH  23  25
HETATM   25  S1  UNL     1       4.340   8.764  24.566  1.00  0.00     0.258 S 
HETATM   26  O1  UNL     1       4.347   9.869  25.612  1.00  0.00    -0.201 OA
HETATM   27  O2  UNL     1       3.646   7.590  25.180  1.00  0.00    -0.201 OA
BRANCH  25  28
HETATM   28  N5  UNL     1       3.501   9.287  23.146  1.00  0.00    -0.324 N 
ATOM     29  H52 UNL     1       2.731   9.957  23.124  1.00  0.00     0.169 HD
ATOM     30  H51 UNL     1       3.920   8.803  22.352  1.00  0.00     0.169 HD
ENDBRANCH  25  28
ENDBRANCH  23  25
ENDBRANCH  18  19
ENDBRANCH  17  18
ENDBRANCH  13  17
BRANCH   1  31
HETATM   31  N1  UNL     1       2.957   3.670  23.565  1.00  0.00    -0.226 N 
HETATM   32  C1  UNL     1       2.438   5.014  23.586  1.00  0.00     0.168 C 
HETATM   33  C2  UNL     1       2.353   2.667  24.412  1.00  0.00     0.168 C 
ENDBRANCH   1  31
TORSDOF 6
ENDMDL
