MODEL 1
REMARK VINA RESULT: -8.129486612      0.000      0.000
REMARK  7 active torsions:
REMARK  status: ('A' for Active; 'I' for Inactive)
REMARK    1  A    between atoms: O1_2  and  C2_3 
REMARK    2  A    between atoms: C2_3  and  C3_5 
REMARK    3  A    between atoms: C3_5  and  C4_6 
REMARK    4  A    between atoms: C4_6  and  C5_7 
REMARK    5  A    between atoms: C8_11  and  O3_12 
REMARK    6  A    between atoms: N3_21  and  N4_23 
REMARK       I    between atoms: N4_23  and  C15_25 
REMARK    7  A    between atoms: C15_25  and  C16_27 
ROOT
HETATM    1  C3  UNL     1       7.985  10.889  20.580  1.00  0.00     0.105 C 
HETATM    2  N3  UNL     1       8.524   9.957  19.968  1.00  0.00    -0.296 N 
ATOM      3  H3  UNL     1       9.296  10.288  19.389  1.00  0.00     0.187 HD
ENDROOT
BRANCH   1   4
HETATM    4  C2  UNL     1       8.519  12.250  20.388  1.00  0.00     0.307 C 
HETATM    5  O2  UNL     1       9.426  12.464  19.555  1.00  0.00    -0.258 OA
BRANCH   4   6
HETATM    6  O1  UNL     1       8.005  13.297  21.141  1.00  0.00    -0.322 OA
HETATM    7  C1  UNL     1       7.205  14.319  20.522  1.00  0.00     0.213 C 
ENDBRANCH   4   6
ENDBRANCH   1   4
BRANCH   1   8
HETATM    8  C4  UNL     1       6.837  10.736  21.502  1.00  0.00     0.106 C 
BRANCH   8   9
HETATM    9  C5  UNL     1       7.188   9.989  22.718  1.00  0.00    -0.024 A 
HETATM   10  C6  UNL     1       8.477   9.940  23.222  1.00  0.00     0.101 A 
HETATM   11  N1  UNL     1       8.772   9.244  24.334  1.00  0.00    -0.341 N 
HETATM   12  C7  UNL     1      10.117   9.180  24.875  1.00  0.00     0.158 C 
HETATM   13  C8  UNL     1       7.824   8.562  25.009  1.00  0.00     0.153 A 
HETATM   14  C9  UNL     1       6.519   8.573  24.552  1.00  0.00     0.028 A 
HETATM   15  C10 UNL     1       5.515   7.895  25.204  1.00  0.00     0.034 A 
HETATM   16  C14 UNL     1       6.211   9.297  23.394  1.00  0.00     0.002 A 
HETATM   17  C11 UNL     1       4.203   7.883  24.782  1.00  0.00     0.091 A 
HETATM   18  N2  UNL     1       3.929   8.585  23.665  1.00  0.00    -0.370 N 
HETATM   19  C12 UNL     1       2.572   8.650  23.122  1.00  0.00     0.154 C 
HETATM   20  C13 UNL     1       4.880   9.266  22.992  1.00  0.00     0.102 A 
BRANCH  13  21
HETATM   21  O3  UNL     1       8.108   7.833  26.166  1.00  0.00    -0.345 OA
ATOM     22  H3  UNL     1       7.545   7.852  26.930  1.00  0.00     0.219 HD
ENDBRANCH  13  21
ENDBRANCH   8   9
ENDBRANCH   1   8
BRANCH   2  23
HETATM   23  N4  UNL     1       8.364   8.620  19.860  1.00  0.00    -0.265 N 
HETATM   24  C15 UNL     1       7.359   7.946  19.147  1.00  0.00     0.277 C 
HETATM   25  O4  UNL     1       6.489   8.612  18.532  1.00  0.00    -0.265 OA
ATOM     26  H4  UNL     1       9.045   8.038  20.349  1.00  0.00     0.190 HD
BRANCH  24  27
HETATM   27  C16 UNL     1       7.313   6.459  19.109  1.00  0.00     0.075 A 
HETATM   28  C17 UNL     1       6.958   5.684  18.028  1.00  0.00     0.026 A 
HETATM   29  C18 UNL     1       6.984   4.349  18.232  1.00  0.00     0.028 A 
HETATM   30  C19 UNL     1       7.343   3.888  19.445  1.00  0.00     0.052 A 
HETATM   31 BR1  UNL     1       7.474   2.064  20.057  1.00  0.00    -0.043 Br
HETATM   32  S1  UNL     1       7.655   5.321  20.324  1.00  0.00    -0.077 SA
ENDBRANCH  24  27
ENDBRANCH   2  23
TORSDOF 7
ENDMDL
MODEL 2
REMARK VINA RESULT: -8.046161443      3.391      6.812
REMARK  7 active torsions:
REMARK  status: ('A' for Active; 'I' for Inactive)
REMARK    1  A    between atoms: O1_2  and  C2_3 
REMARK    2  A    between atoms: C2_3  and  C3_5 
REMARK    3  A    between atoms: C3_5  and  C4_6 
REMARK    4  A    between atoms: C4_6  and  C5_7 
REMARK    5  A    between atoms: C8_11  and  O3_12 
REMARK    6  A    between atoms: N3_21  and  N4_23 
REMARK       I    between atoms: N4_23  and  C15_25 
REMARK    7  A    between atoms: C15_25  and  C16_27 
ROOT
HETATM    1  C3  UNL     1       4.524   7.261  24.116  1.00  0.00     0.105 C 
HETATM    2  N3  UNL     1       5.429   6.979  24.912  1.00  0.00    -0.296 N 
ATOM      3  H3  UNL     1       5.062   6.526  25.749  1.00  0.00     0.187 HD
ENDROOT
BRANCH   1   4
HETATM    4  C2  UNL     1       3.139   6.913  24.483  1.00  0.00     0.307 C 
HETATM    5  O2  UNL     1       2.500   6.068  23.819  1.00  0.00    -0.258 OA
BRANCH   4   6
HETATM    6  O1  UNL     1       2.547   7.531  25.576  1.00  0.00    -0.322 OA
HETATM    7  C1  UNL     1       2.423   8.962  25.628  1.00  0.00     0.213 C 
ENDBRANCH   4   6
ENDBRANCH   1   4
BRANCH   1   8
HETATM    8  C4  UNL     1       4.731   7.925  22.808  1.00  0.00     0.106 C 
BRANCH   8   9
HETATM    9  C5  UNL     1       5.679   7.197  21.952  1.00  0.00    -0.024 A 
HETATM   10  C6  UNL     1       5.530   5.856  21.641  1.00  0.00     0.101 A 
HETATM   11  N1  UNL     1       6.415   5.212  20.859  1.00  0.00    -0.341 N 
HETATM   12  C7  UNL     1       6.277   3.807  20.525  1.00  0.00     0.158 C 
HETATM   13  C8  UNL     1       7.488   5.846  20.343  1.00  0.00     0.153 A 
HETATM   14  C9  UNL     1       7.688   7.185  20.620  1.00  0.00     0.028 A 
HETATM   15  C10 UNL     1       8.766   7.878  20.117  1.00  0.00     0.034 A 
HETATM   16  C14 UNL     1       6.768   7.856  21.434  1.00  0.00     0.002 A 
HETATM   17  C11 UNL     1       9.000   9.213  20.369  1.00  0.00     0.091 A 
HETATM   18  N2  UNL     1       8.102   9.839  21.155  1.00  0.00    -0.370 N 
HETATM   19  C12 UNL     1       8.242  11.256  21.489  1.00  0.00     0.154 C 
HETATM   20  C13 UNL     1       7.030   9.201  21.671  1.00  0.00     0.102 A 
BRANCH  13  21
HETATM   21  O3  UNL     1       8.419   5.197  19.528  1.00  0.00    -0.345 OA
ATOM     22  H3  UNL     1       9.130   5.659  19.100  1.00  0.00     0.219 HD
ENDBRANCH  13  21
ENDBRANCH   8   9
ENDBRANCH   1   8
BRANCH   2  23
HETATM   23  N4  UNL     1       6.773   7.110  24.970  1.00  0.00    -0.265 N 
HETATM   24  C15 UNL     1       7.497   8.300  25.149  1.00  0.00     0.277 C 
HETATM   25  O4  UNL     1       6.876   9.386  25.267  1.00  0.00    -0.265 OA
ATOM     26  H4  UNL     1       7.319   6.254  24.873  1.00  0.00     0.190 HD
BRANCH  24  27
HETATM   27  C16 UNL     1       8.984   8.292  25.204  1.00  0.00     0.075 A 
HETATM   28  C17 UNL     1       9.835   8.850  24.277  1.00  0.00     0.026 A 
HETATM   29  C18 UNL     1      11.154   8.711  24.536  1.00  0.00     0.028 A 
HETATM   30  C19 UNL     1      11.527   8.055  25.650  1.00  0.00     0.052 A 
HETATM   31 BR1  UNL     1      13.306   7.685  26.298  1.00  0.00    -0.043 Br
HETATM   32  S1  UNL     1      10.034   7.620  26.359  1.00  0.00    -0.077 SA
ENDBRANCH  24  27
ENDBRANCH   2  23
TORSDOF 7
ENDMDL
MODEL 3
REMARK VINA RESULT: -7.997804055      2.636      5.311
REMARK  7 active torsions:
REMARK  status: ('A' for Active; 'I' for Inactive)
REMARK    1  A    between atoms: O1_2  and  C2_3 
REMARK    2  A    between atoms: C2_3  and  C3_5 
REMARK    3  A    between atoms: C3_5  and  C4_6 
REMARK    4  A    between atoms: C4_6  and  C5_7 
REMARK    5  A    between atoms: C8_11  and  O3_12 
REMARK    6  A    between atoms: N3_21  and  N4_23 
REMARK       I    between atoms: N4_23  and  C15_25 
REMARK    7  A    between atoms: C15_25  and  C16_27 
ROOT
HETATM    1  C3  UNL     1       4.600   6.928  23.864  1.00  0.00     0.105 C 
HETATM    2  N3  UNL     1       4.464   5.992  23.066  1.00  0.00    -0.296 N 
ATOM      3  H3  UNL     1       3.506   5.930  22.723  1.00  0.00     0.187 HD
ENDROOT
BRANCH   1   4
HETATM    4  C2  UNL     1       3.421   7.759  24.171  1.00  0.00     0.307 C 
HETATM    5  O2  UNL     1       2.689   8.185  23.252  1.00  0.00    -0.258 OA
BRANCH   4   6
HETATM    6  O1  UNL     1       3.128   8.066  25.492  1.00  0.00    -0.322 OA
HETATM    7  C1  UNL     1       3.199   9.423  25.962  1.00  0.00     0.213 C 
ENDBRANCH   4   6
ENDBRANCH   1   4
BRANCH   1   8
HETATM    8  C4  UNL     1       5.870   7.282  24.538  1.00  0.00     0.106 C 
BRANCH   8   9
HETATM    9  C5  UNL     1       6.863   7.839  23.607  1.00  0.00    -0.024 A 
HETATM   10  C6  UNL     1       6.559   8.175  22.299  1.00  0.00     0.101 A 
HETATM   11  N1  UNL     1       7.487   8.679  21.467  1.00  0.00    -0.341 N 
HETATM   12  C7  UNL     1       7.186   9.033  20.092  1.00  0.00     0.158 C 
HETATM   13  C8  UNL     1       8.758   8.881  21.871  1.00  0.00     0.153 A 
HETATM   14  C9  UNL     1       9.121   8.564  23.167  1.00  0.00     0.028 A 
HETATM   15  C10 UNL     1      10.403   8.751  23.630  1.00  0.00     0.034 A 
HETATM   16  C14 UNL     1       8.155   8.038  24.034  1.00  0.00     0.002 A 
HETATM   17  C11 UNL     1      10.803   8.449  24.914  1.00  0.00     0.091 A 
HETATM   18  N2  UNL     1       9.858   7.944  25.730  1.00  0.00    -0.370 N 
HETATM   19  C12 UNL     1      10.162   7.589  27.116  1.00  0.00     0.154 C 
HETATM   20  C13 UNL     1       8.588   7.742  25.322  1.00  0.00     0.102 A 
BRANCH  13  21
HETATM   21  O3  UNL     1       9.738   9.404  21.024  1.00  0.00    -0.345 OA
ATOM     22  H3  UNL     1       9.920   9.035  20.169  1.00  0.00     0.219 HD
ENDBRANCH  13  21
ENDBRANCH   8   9
ENDBRANCH   1   8
BRANCH   2  23
HETATM   23  N4  UNL     1       5.245   5.030  22.526  1.00  0.00    -0.265 N 
HETATM   24  C15 UNL     1       5.544   4.851  21.166  1.00  0.00     0.277 C 
HETATM   25  O4  UNL     1       5.054   5.640  20.320  1.00  0.00    -0.265 OA
ATOM     26  H4  UNL     1       5.661   4.362  23.177  1.00  0.00     0.190 HD
BRANCH  24  27
HETATM   27  C16 UNL     1       6.433   3.746  20.715  1.00  0.00     0.075 A 
HETATM   28  C17 UNL     1       6.501   2.484  21.258  1.00  0.00     0.026 A 
HETATM   29  C18 UNL     1       7.393   1.647  20.683  1.00  0.00     0.028 A 
HETATM   30  C19 UNL     1       8.129   2.098  19.650  1.00  0.00     0.052 A 
HETATM   31 BR1  UNL     1       9.475   1.171  18.626  1.00  0.00    -0.043 Br
HETATM   32  S1  UNL     1       7.583   3.708  19.463  1.00  0.00    -0.077 SA
ENDBRANCH  24  27
ENDBRANCH   2  23
TORSDOF 7
ENDMDL
MODEL 4
REMARK VINA RESULT: -7.956418887      3.299      6.899
REMARK  7 active torsions:
REMARK  status: ('A' for Active; 'I' for Inactive)
REMARK    1  A    between atoms: O1_2  and  C2_3 
REMARK    2  A    between atoms: C2_3  and  C3_5 
REMARK    3  A    between atoms: C3_5  and  C4_6 
REMARK    4  A    between atoms: C4_6  and  C5_7 
REMARK    5  A    between atoms: C8_11  and  O3_12 
REMARK    6  A    between atoms: N3_21  and  N4_23 
REMARK       I    between atoms: N4_23  and  C15_25 
REMARK    7  A    between atoms: C15_25  and  C16_27 
ROOT
HETATM    1  C3  UNL     1       5.020   7.526  24.224  1.00  0.00     0.105 C 
HETATM    2  N3  UNL     1       5.925   6.996  24.882  1.00  0.00    -0.296 N 
ATOM      3  H3  UNL     1       5.558   6.295  25.526  1.00  0.00     0.187 HD
ENDROOT
BRANCH   1   4
HETATM    4  C2  UNL     1       3.634   7.081  24.462  1.00  0.00     0.307 C 
HETATM    5  O2  UNL     1       3.289   5.910  24.195  1.00  0.00    -0.258 OA
BRANCH   4   6
HETATM    6  O1  UNL     1       2.711   7.975  24.987  1.00  0.00    -0.322 OA
HETATM    7  C1  UNL     1       3.102   8.923  25.995  1.00  0.00     0.213 C 
ENDBRANCH   4   6
ENDBRANCH   1   4
BRANCH   1   8
HETATM    8  C4  UNL     1       5.227   8.580  23.205  1.00  0.00     0.106 C 
BRANCH   8   9
HETATM    9  C5  UNL     1       5.736   8.041  21.935  1.00  0.00    -0.024 A 
HETATM   10  C6  UNL     1       5.430   6.768  21.485  1.00  0.00     0.101 A 
HETATM   11  N1  UNL     1       5.914   6.297  20.322  1.00  0.00    -0.341 N 
HETATM   12  C7  UNL     1       5.607   4.965  19.836  1.00  0.00     0.158 C 
HETATM   13  C8  UNL     1       6.719   7.046  19.541  1.00  0.00     0.153 A 
HETATM   14  C9  UNL     1       7.058   8.326  19.939  1.00  0.00     0.028 A 
HETATM   15  C10 UNL     1       7.875   9.132  19.179  1.00  0.00     0.034 A 
HETATM   16  C14 UNL     1       6.556   8.816  21.150  1.00  0.00     0.002 A 
HETATM   17  C11 UNL     1       8.235  10.412  19.540  1.00  0.00     0.091 A 
HETATM   18  N2  UNL     1       7.741  10.863  20.711  1.00  0.00    -0.370 N 
HETATM   19  C12 UNL     1       8.051  12.207  21.197  1.00  0.00     0.154 C 
HETATM   20  C13 UNL     1       6.937  10.110  21.490  1.00  0.00     0.102 A 
BRANCH  13  21
HETATM   21  O3  UNL     1       7.231   6.578  18.328  1.00  0.00    -0.345 OA
ATOM     22  H3  UNL     1       7.240   7.109  17.541  1.00  0.00     0.219 HD
ENDBRANCH  13  21
ENDBRANCH   8   9
ENDBRANCH   1   8
BRANCH   2  23
HETATM   23  N4  UNL     1       7.270   7.096  24.975  1.00  0.00    -0.265 N 
HETATM   24  C15 UNL     1       8.007   8.235  25.337  1.00  0.00     0.277 C 
HETATM   25  O4  UNL     1       7.399   9.301  25.607  1.00  0.00    -0.265 OA
ATOM     26  H4  UNL     1       7.806   6.254  24.759  1.00  0.00     0.190 HD
BRANCH  24  27
HETATM   27  C16 UNL     1       9.493   8.195  25.408  1.00  0.00     0.075 A 
HETATM   28  C17 UNL     1      10.365   8.743  24.496  1.00  0.00     0.026 A 
HETATM   29  C18 UNL     1      11.678   8.575  24.768  1.00  0.00     0.028 A 
HETATM   30  C19 UNL     1      12.025   7.903  25.881  1.00  0.00     0.052 A 
HETATM   31 BR1  UNL     1      13.788   7.491  26.546  1.00  0.00    -0.043 Br
HETATM   32  S1  UNL     1      10.515   7.493  26.570  1.00  0.00    -0.077 SA
ENDBRANCH  24  27
ENDBRANCH   2  23
TORSDOF 7
ENDMDL
MODEL 5
REMARK VINA RESULT: -7.833845626      3.490      5.713
REMARK  7 active torsions:
REMARK  status: ('A' for Active; 'I' for Inactive)
REMARK    1  A    between atoms: O1_2  and  C2_3 
REMARK    2  A    between atoms: C2_3  and  C3_5 
REMARK    3  A    between atoms: C3_5  and  C4_6 
REMARK    4  A    between atoms: C4_6  and  C5_7 
REMARK    5  A    between atoms: C8_11  and  O3_12 
REMARK    6  A    between atoms: N3_21  and  N4_23 
REMARK       I    between atoms: N4_23  and  C15_25 
REMARK    7  A    between atoms: C15_25  and  C16_27 
ROOT
HETATM    1  C3  UNL     1       9.400   9.301  24.598  1.00  0.00     0.105 C 
HETATM    2  N3  UNL     1       9.433  10.214  23.762  1.00  0.00    -0.296 N 
ATOM      3  H3  UNL     1      10.385  10.545  23.609  1.00  0.00     0.187 HD
ENDROOT
BRANCH   1   4
HETATM    4  C2  UNL     1      10.672   8.861  25.199  1.00  0.00     0.307 C 
HETATM    5  O2  UNL     1      11.638   8.537  24.475  1.00  0.00    -0.258 OA
BRANCH   4   6
HETATM    6  O1  UNL     1      10.792   8.809  26.581  1.00  0.00    -0.322 OA
HETATM    7  C1  UNL     1      11.056   7.562  27.247  1.00  0.00     0.213 C 
ENDBRANCH   4   6
ENDBRANCH   1   4
BRANCH   1   8
HETATM    8  C4  UNL     1       8.168   8.608  25.039  1.00  0.00     0.106 C 
BRANCH   8   9
HETATM    9  C5  UNL     1       7.405   8.048  23.913  1.00  0.00    -0.024 A 
HETATM   10  C6  UNL     1       8.003   7.364  22.868  1.00  0.00     0.101 A 
HETATM   11  N1  UNL     1       7.282   6.867  21.848  1.00  0.00    -0.341 N 
HETATM   12  C7  UNL     1       7.892   6.151  20.744  1.00  0.00     0.158 C 
HETATM   13  C8  UNL     1       5.942   7.011  21.798  1.00  0.00     0.153 A 
HETATM   14  C9  UNL     1       5.289   7.685  22.814  1.00  0.00     0.028 A 
HETATM   15  C10 UNL     1       3.925   7.859  22.812  1.00  0.00     0.034 A 
HETATM   16  C14 UNL     1       6.039   8.205  23.876  1.00  0.00     0.002 A 
HETATM   17  C11 UNL     1       3.237   8.524  23.805  1.00  0.00     0.091 A 
HETATM   18  N2  UNL     1       3.979   9.016  24.817  1.00  0.00    -0.370 N 
HETATM   19  C12 UNL     1       3.362   9.736  25.931  1.00  0.00     0.154 C 
HETATM   20  C13 UNL     1       5.320   8.870  24.863  1.00  0.00     0.102 A 
BRANCH  13  21
HETATM   21  O3  UNL     1       5.173   6.502  20.749  1.00  0.00    -0.345 OA
ATOM     22  H3  UNL     1       4.284   6.791  20.583  1.00  0.00     0.219 HD
ENDBRANCH  13  21
ENDBRANCH   8   9
ENDBRANCH   1   8
BRANCH   2  23
HETATM   23  N4  UNL     1       8.546  10.890  22.999  1.00  0.00    -0.265 N 
HETATM   24  C15 UNL     1       8.371  10.778  21.611  1.00  0.00     0.277 C 
HETATM   25  O4  UNL     1       9.096   9.983  20.961  1.00  0.00    -0.265 OA
ATOM     26  H4  UNL     1       7.939  11.552  23.484  1.00  0.00     0.190 HD
BRANCH  24  27
HETATM   27  C16 UNL     1       7.341  11.583  20.900  1.00  0.00     0.075 A 
HETATM   28  C17 UNL     1       6.103  11.142  20.492  1.00  0.00     0.026 A 
HETATM   29  C18 UNL     1       5.337  12.056  19.856  1.00  0.00     0.028 A 
HETATM   30  C19 UNL     1       5.829  13.296  19.674  1.00  0.00     0.052 A 
HETATM   31 BR1  UNL     1       5.003  14.811  18.812  1.00  0.00    -0.043 Br
HETATM   32  S1  UNL     1       7.377  13.205  20.393  1.00  0.00    -0.077 SA
ENDBRANCH  24  27
ENDBRANCH   2  23
TORSDOF 7
ENDMDL
