MODEL 1
REMARK VINA RESULT: -6.663118609      0.000      0.000
REMARK  5 active torsions:
REMARK  status: ('A' for Active; 'I' for Inactive)
REMARK    1  A    between atoms: C2_2  and  O1_3 
REMARK    2  A    between atoms: C2_2  and  C3_5 
REMARK    3  A    between atoms: C3_5  and  C4_6 
REMARK    4  A    between atoms: C7_10  and  N1_11 
REMARK    5  A    between atoms: N1_11  and  C8_13 
ROOT
HETATM    1  C4  UNL     1      -3.540  -6.876  29.230  1.00  0.00     0.198 C 
HETATM    2  C5  UNL     1      -2.539  -5.767  29.255  1.00  0.00     0.107 C 
HETATM    3  S1  UNL     1      -1.176  -6.335  30.356  1.00  0.00    -0.163 SA
HETATM    4  C6  UNL     1      -1.691  -6.290  32.074  1.00  0.00     0.128 C 
HETATM    5  C7  UNL     1      -1.313  -7.590  32.738  1.00  0.00     0.289 C 
HETATM    6  N2  UNL     1      -2.495  -8.447  32.884  1.00  0.00    -0.052 N 
ATOM      7  H21 UNL     1      -2.222  -9.417  33.044  1.00  0.00     0.279 HD
ATOM      8  H22 UNL     1      -2.978  -8.554  31.992  1.00  0.00     0.279 HD
HETATM    9  C13 UNL     1      -3.398  -7.992  33.905  1.00  0.00     0.254 C 
HETATM   10  C14 UNL     1      -4.787  -8.540  33.652  1.00  0.00     0.150 C 
HETATM   11  N3  UNL     1      -5.616  -7.455  33.181  1.00  0.00    -0.358 N 
ATOM     12  H3  UNL     1      -5.881  -6.737  33.856  1.00  0.00     0.162 HD
HETATM   13  C15 UNL     1      -6.089  -7.311  31.858  1.00  0.00     0.243 C 
HETATM   14  O3  UNL     1      -7.243  -6.831  31.705  1.00  0.00    -0.272 OA
HETATM   15  C16 UNL     1      -5.327  -7.681  30.649  1.00  0.00     0.335 C 
HETATM   16  N4  UNL     1      -4.555  -6.541  30.244  1.00  0.00    -0.062 N 
ATOM     17  H41 UNL     1      -5.159  -5.785  29.922  1.00  0.00     0.278 HD
ATOM     18  H42 UNL     1      -4.130  -6.081  31.049  1.00  0.00     0.278 HD
ENDROOT
BRANCH   5  19
HETATM   19  N1  UNL     1      -0.517  -7.540  33.877  1.00  0.00    -0.389 N 
ATOM     20  H1  UNL     1      -0.988  -7.451  34.778  1.00  0.00     0.155 HD
BRANCH  19  21
HETATM   21  C8  UNL     1       0.869  -7.603  33.880  1.00  0.00     0.102 C 
HETATM   22  C9  UNL     1       1.615  -7.983  32.653  1.00  0.00     0.029 C 
HETATM   23  C10 UNL     1       3.072  -7.614  32.829  1.00  0.00     0.028 C 
HETATM   24  C11 UNL     1       3.330  -7.397  34.300  1.00  0.00     0.167 C 
HETATM   25  O2  UNL     1       2.608  -6.331  34.826  1.00  0.00    -0.389 OA
HETATM   26  C12 UNL     1       1.384  -6.174  34.226  1.00  0.00     0.192 C 
ENDBRANCH  19  21
ENDBRANCH   5  19
BRANCH   1  27
HETATM   27  C3  UNL     1      -4.260  -7.054  27.950  1.00  0.00     0.065 C 
BRANCH  27  28
HETATM   28  C2  UNL     1      -3.716  -8.106  27.041  1.00  0.00     0.116 C 
HETATM   29  C1  UNL     1      -3.600  -9.425  27.776  1.00  0.00     0.039 C 
BRANCH  28  30
HETATM   30  O1  UNL     1      -2.497  -7.823  26.481  1.00  0.00    -0.396 OA
ATOM     31  H1  UNL     1      -2.601  -7.822  25.537  1.00  0.00     0.210 HD
ENDBRANCH  28  30
ENDBRANCH  27  28
ENDBRANCH   1  27
TORSDOF 5
ENDMDL
MODEL 2
REMARK VINA RESULT: -6.555956359      0.874      1.137
REMARK  5 active torsions:
REMARK  status: ('A' for Active; 'I' for Inactive)
REMARK    1  A    between atoms: C2_2  and  O1_3 
REMARK    2  A    between atoms: C2_2  and  C3_5 
REMARK    3  A    between atoms: C3_5  and  C4_6 
REMARK    4  A    between atoms: C7_10  and  N1_11 
REMARK    5  A    between atoms: N1_11  and  C8_13 
ROOT
HETATM    1  C4  UNL     1      -3.870  -6.892  29.367  1.00  0.00     0.198 C 
HETATM    2  C5  UNL     1      -2.758  -5.910  29.189  1.00  0.00     0.107 C 
HETATM    3  S1  UNL     1      -1.352  -6.542  30.195  1.00  0.00    -0.163 SA
HETATM    4  C6  UNL     1      -1.667  -6.299  31.944  1.00  0.00     0.128 C 
HETATM    5  C7  UNL     1      -1.361  -7.576  32.685  1.00  0.00     0.289 C 
HETATM    6  N2  UNL     1      -2.605  -8.274  33.027  1.00  0.00    -0.052 N 
ATOM      7  H21 UNL     1      -2.423  -9.253  33.249  1.00  0.00     0.279 HD
ATOM      8  H22 UNL     1      -3.192  -8.396  32.203  1.00  0.00     0.279 HD
HETATM    9  C13 UNL     1      -3.335  -7.636  34.087  1.00  0.00     0.254 C 
HETATM   10  C14 UNL     1      -4.795  -8.035  34.027  1.00  0.00     0.150 C 
HETATM   11  N3  UNL     1      -5.549  -6.902  33.543  1.00  0.00    -0.358 N 
ATOM     12  H3  UNL     1      -5.658  -6.106  34.172  1.00  0.00     0.162 HD
HETATM   13  C15 UNL     1      -6.146  -6.811  32.267  1.00  0.00     0.243 C 
HETATM   14  O3  UNL     1      -7.252  -6.212  32.186  1.00  0.00    -0.272 OA
HETATM   15  C16 UNL     1      -5.566  -7.365  31.027  1.00  0.00     0.335 C 
HETATM   16  N4  UNL     1      -4.725  -6.359  30.442  1.00  0.00    -0.062 N 
ATOM     17  H41 UNL     1      -5.276  -5.566  30.113  1.00  0.00     0.278 HD
ATOM     18  H42 UNL     1      -4.167  -5.889  31.155  1.00  0.00     0.278 HD
ENDROOT
BRANCH   5  19
HETATM   19  N1  UNL     1      -0.443  -7.528  33.729  1.00  0.00    -0.389 N 
ATOM     20  H1  UNL     1      -0.805  -7.614  34.679  1.00  0.00     0.155 HD
BRANCH  19  21
HETATM   21  C8  UNL     1       0.926  -7.374  33.574  1.00  0.00     0.102 C 
HETATM   22  C9  UNL     1       1.868  -7.842  34.624  1.00  0.00     0.029 C 
HETATM   23  C10 UNL     1       3.266  -7.891  34.046  1.00  0.00     0.028 C 
HETATM   24  C11 UNL     1       3.283  -7.062  32.784  1.00  0.00     0.167 C 
HETATM   25  O2  UNL     1       2.450  -7.568  31.792  1.00  0.00    -0.389 OA
HETATM   26  C12 UNL     1       1.329  -8.175  32.300  1.00  0.00     0.192 C 
ENDBRANCH  19  21
ENDBRANCH   5  19
BRANCH   1  27
HETATM   27  C3  UNL     1      -4.742  -7.087  28.188  1.00  0.00     0.065 C 
BRANCH  27  28
HETATM   28  C2  UNL     1      -4.285  -8.117  27.208  1.00  0.00     0.116 C 
HETATM   29  C1  UNL     1      -3.649  -9.284  27.932  1.00  0.00     0.039 C 
BRANCH  28  30
HETATM   30  O1  UNL     1      -3.401  -7.671  26.260  1.00  0.00    -0.396 OA
ATOM     31  H1  UNL     1      -3.508  -6.731  26.176  1.00  0.00     0.210 HD
ENDBRANCH  28  30
ENDBRANCH  27  28
ENDBRANCH   1  27
TORSDOF 5
ENDMDL
MODEL 3
REMARK VINA RESULT: -6.468038790      1.222      1.643
REMARK  5 active torsions:
REMARK  status: ('A' for Active; 'I' for Inactive)
REMARK    1  A    between atoms: C2_2  and  O1_3 
REMARK    2  A    between atoms: C2_2  and  C3_5 
REMARK    3  A    between atoms: C3_5  and  C4_6 
REMARK    4  A    between atoms: C7_10  and  N1_11 
REMARK    5  A    between atoms: N1_11  and  C8_13 
ROOT
HETATM    1  C4  UNL     1      -3.983  -7.063  29.432  1.00  0.00     0.198 C 
HETATM    2  C5  UNL     1      -2.863  -6.117  29.143  1.00  0.00     0.107 C 
HETATM    3  S1  UNL     1      -1.431  -6.704  30.141  1.00  0.00    -0.163 SA
HETATM    4  C6  UNL     1      -1.676  -6.330  31.878  1.00  0.00     0.128 C 
HETATM    5  C7  UNL     1      -1.363  -7.556  32.698  1.00  0.00     0.289 C 
HETATM    6  N2  UNL     1      -2.605  -8.203  33.134  1.00  0.00    -0.052 N 
ATOM      7  H21 UNL     1      -2.431  -9.168  33.419  1.00  0.00     0.279 HD
ATOM      8  H22 UNL     1      -3.225  -8.373  32.342  1.00  0.00     0.279 HD
HETATM    9  C13 UNL     1      -3.285  -7.477  34.171  1.00  0.00     0.254 C 
HETATM   10  C14 UNL     1      -4.752  -7.851  34.193  1.00  0.00     0.150 C 
HETATM   11  N3  UNL     1      -5.504  -6.741  33.655  1.00  0.00    -0.358 N 
ATOM     12  H3  UNL     1      -5.577  -5.900  34.228  1.00  0.00     0.162 HD
HETATM   13  C15 UNL     1      -6.147  -6.730  32.398  1.00  0.00     0.243 C 
HETATM   14  O3  UNL     1      -7.245  -6.118  32.315  1.00  0.00    -0.272 OA
HETATM   15  C16 UNL     1      -5.624  -7.383  31.181  1.00  0.00     0.335 C 
HETATM   16  N4  UNL     1      -4.788  -6.438  30.496  1.00  0.00    -0.062 N 
ATOM     17  H41 UNL     1      -5.338  -5.660  30.131  1.00  0.00     0.278 HD
ATOM     18  H42 UNL     1      -4.197  -5.929  31.152  1.00  0.00     0.278 HD
ENDROOT
BRANCH   5  19
HETATM   19  N1  UNL     1      -0.407  -7.451  33.702  1.00  0.00    -0.389 N 
ATOM     20  H1  UNL     1      -0.733  -7.474  34.668  1.00  0.00     0.155 HD
BRANCH  19  21
HETATM   21  C8  UNL     1       0.957  -7.319  33.487  1.00  0.00     0.102 C 
HETATM   22  C9  UNL     1       1.934  -7.726  34.529  1.00  0.00     0.029 C 
HETATM   23  C10 UNL     1       3.309  -7.823  33.903  1.00  0.00     0.028 C 
HETATM   24  C11 UNL     1       3.284  -7.078  32.591  1.00  0.00     0.167 C 
HETATM   25  O2  UNL     1       2.412  -7.640  31.665  1.00  0.00    -0.389 OA
HETATM   26  C12 UNL     1       1.307  -8.204  32.253  1.00  0.00     0.192 C 
ENDBRANCH  19  21
ENDBRANCH   5  19
BRANCH   1  27
HETATM   27  C3  UNL     1      -4.902  -7.325  28.302  1.00  0.00     0.065 C 
BRANCH  27  28
HETATM   28  C2  UNL     1      -4.864  -6.329  27.191  1.00  0.00     0.116 C 
HETATM   29  C1  UNL     1      -6.216  -5.667  27.033  1.00  0.00     0.039 C 
BRANCH  28  30
HETATM   30  O1  UNL     1      -4.489  -6.826  25.970  1.00  0.00    -0.396 OA
ATOM     31  H1  UNL     1      -3.548  -6.958  25.982  1.00  0.00     0.210 HD
ENDBRANCH  28  30
ENDBRANCH  27  28
ENDBRANCH   1  27
TORSDOF 5
ENDMDL
MODEL 4
REMARK VINA RESULT: -6.444949009      0.829      1.160
REMARK  5 active torsions:
REMARK  status: ('A' for Active; 'I' for Inactive)
REMARK    1  A    between atoms: C2_2  and  O1_3 
REMARK    2  A    between atoms: C2_2  and  C3_5 
REMARK    3  A    between atoms: C3_5  and  C4_6 
REMARK    4  A    between atoms: C7_10  and  N1_11 
REMARK    5  A    between atoms: N1_11  and  C8_13 
ROOT
HETATM    1  C4  UNL     1      -3.928  -7.249  29.395  1.00  0.00     0.198 C 
HETATM    2  C5  UNL     1      -2.878  -6.208  29.178  1.00  0.00     0.107 C 
HETATM    3  S1  UNL     1      -1.457  -6.688  30.246  1.00  0.00    -0.163 SA
HETATM    4  C6  UNL     1      -1.825  -6.366  31.972  1.00  0.00     0.128 C 
HETATM    5  C7  UNL     1      -1.454  -7.574  32.792  1.00  0.00     0.289 C 
HETATM    6  N2  UNL     1      -2.657  -8.332  33.152  1.00  0.00    -0.052 N 
ATOM      7  H21 UNL     1      -2.418  -9.283  33.434  1.00  0.00     0.279 HD
ATOM      8  H22 UNL     1      -3.217  -8.539  32.326  1.00  0.00     0.279 HD
HETATM    9  C13 UNL     1      -3.451  -7.683  34.159  1.00  0.00     0.254 C 
HETATM   10  C14 UNL     1      -4.879  -8.180  34.096  1.00  0.00     0.150 C 
HETATM   11  N3  UNL     1      -5.694  -7.129  33.532  1.00  0.00    -0.358 N 
ATOM     12  H3  UNL     1      -5.869  -6.306  34.110  1.00  0.00     0.162 HD
HETATM   13  C15 UNL     1      -6.268  -7.151  32.242  1.00  0.00     0.243 C 
HETATM   14  O3  UNL     1      -7.408  -6.632  32.106  1.00  0.00    -0.272 OA
HETATM   15  C16 UNL     1      -5.626  -7.736  31.048  1.00  0.00     0.335 C 
HETATM   16  N4  UNL     1      -4.839  -6.713  30.420  1.00  0.00    -0.062 N 
ATOM     17  H41 UNL     1      -5.432  -5.978  30.035  1.00  0.00     0.278 HD
ATOM     18  H42 UNL     1      -4.329  -6.166  31.114  1.00  0.00     0.278 HD
ENDROOT
BRANCH   5  19
HETATM   19  N1  UNL     1      -0.565  -7.407  33.848  1.00  0.00    -0.389 N 
ATOM     20  H1  UNL     1      -0.950  -7.122  34.749  1.00  0.00     0.155 HD
BRANCH  19  21
HETATM   21  C8  UNL     1       0.807  -7.597  33.768  1.00  0.00     0.102 C 
HETATM   22  C9  UNL     1       1.446  -7.992  32.486  1.00  0.00     0.029 C 
HETATM   23  C10 UNL     1       2.939  -7.767  32.591  1.00  0.00     0.028 C 
HETATM   24  C11 UNL     1       3.296  -7.638  34.052  1.00  0.00     0.167 C 
HETATM   25  O2  UNL     1       2.708  -6.533  34.658  1.00  0.00    -0.389 OA
HETATM   26  C12 UNL     1       1.473  -6.238  34.136  1.00  0.00     0.192 C 
ENDBRANCH  19  21
ENDBRANCH   5  19
BRANCH   1  27
HETATM   27  C3  UNL     1      -4.760  -7.569  28.213  1.00  0.00     0.065 C 
BRANCH  27  28
HETATM   28  C2  UNL     1      -4.870  -6.490  27.187  1.00  0.00     0.116 C 
HETATM   29  C1  UNL     1      -6.294  -5.979  27.114  1.00  0.00     0.039 C 
BRANCH  28  30
HETATM   30  O1  UNL     1      -4.479  -6.842  25.922  1.00  0.00    -0.396 OA
ATOM     31  H1  UNL     1      -4.537  -6.070  25.370  1.00  0.00     0.210 HD
ENDBRANCH  28  30
ENDBRANCH  27  28
ENDBRANCH   1  27
TORSDOF 5
ENDMDL
MODEL 5
REMARK VINA RESULT: -6.314592526      2.300      4.555
REMARK  5 active torsions:
REMARK  status: ('A' for Active; 'I' for Inactive)
REMARK    1  A    between atoms: C2_2  and  O1_3 
REMARK    2  A    between atoms: C2_2  and  C3_5 
REMARK    3  A    between atoms: C3_5  and  C4_6 
REMARK    4  A    between atoms: C7_10  and  N1_11 
REMARK    5  A    between atoms: N1_11  and  C8_13 
ROOT
HETATM    1  C4  UNL     1      -5.298  -6.397  31.922  1.00  0.00     0.198 C 
HETATM    2  C5  UNL     1      -4.507  -7.093  32.981  1.00  0.00     0.107 C 
HETATM    3  S1  UNL     1      -2.750  -6.621  32.699  1.00  0.00    -0.163 SA
HETATM    4  C6  UNL     1      -2.094  -7.461  31.256  1.00  0.00     0.128 C 
HETATM    5  C7  UNL     1      -1.373  -6.463  30.386  1.00  0.00     0.289 C 
HETATM    6  N2  UNL     1      -2.203  -6.104  29.231  1.00  0.00    -0.052 N 
ATOM      7  H21 UNL     1      -1.880  -5.234  28.808  1.00  0.00     0.279 HD
ATOM      8  H22 UNL     1      -3.133  -5.809  29.529  1.00  0.00     0.279 HD
HETATM    9  C13 UNL     1      -2.287  -7.151  28.251  1.00  0.00     0.254 C 
HETATM   10  C14 UNL     1      -3.529  -6.973  27.404  1.00  0.00     0.150 C 
HETATM   11  N3  UNL     1      -4.483  -7.987  27.792  1.00  0.00    -0.358 N 
ATOM     12  H3  UNL     1      -4.281  -8.950  27.525  1.00  0.00     0.162 HD
HETATM   13  C15 UNL     1      -5.673  -7.746  28.512  1.00  0.00     0.243 C 
HETATM   14  O3  UNL     1      -6.681  -8.442  28.215  1.00  0.00    -0.272 OA
HETATM   15  C16 UNL     1      -5.818  -6.742  29.585  1.00  0.00     0.335 C 
HETATM   16  N4  UNL     1      -5.473  -7.368  30.829  1.00  0.00    -0.062 N 
ATOM     17  H41 UNL     1      -6.155  -8.084  31.080  1.00  0.00     0.278 HD
ATOM     18  H42 UNL     1      -4.647  -7.957  30.726  1.00  0.00     0.278 HD
ENDROOT
BRANCH   5  19
HETATM   19  N1  UNL     1      -0.044  -6.710  30.062  1.00  0.00    -0.389 N 
ATOM     20  H1  UNL     1       0.222  -6.641  29.079  1.00  0.00     0.155 HD
BRANCH  19  21
HETATM   21  C8  UNL     1       0.947  -7.042  30.974  1.00  0.00     0.102 C 
HETATM   22  C9  UNL     1       2.190  -7.724  30.531  1.00  0.00     0.029 C 
HETATM   23  C10 UNL     1       3.223  -7.628  31.633  1.00  0.00     0.028 C 
HETATM   24  C11 UNL     1       2.513  -7.269  32.916  1.00  0.00     0.167 C 
HETATM   25  O2  UNL     1       1.903  -6.021  32.866  1.00  0.00    -0.389 OA
HETATM   26  C12 UNL     1       1.437  -5.709  31.613  1.00  0.00     0.192 C 
ENDBRANCH  19  21
ENDBRANCH   5  19
BRANCH   1  27
HETATM   27  C3  UNL     1      -6.654  -5.961  32.324  1.00  0.00     0.065 C 
BRANCH  27  28
HETATM   28  C2  UNL     1      -6.794  -5.501  33.738  1.00  0.00     0.116 C 
HETATM   29  C1  UNL     1      -7.825  -6.340  34.462  1.00  0.00     0.039 C 
BRANCH  28  30
HETATM   30  O1  UNL     1      -7.133  -4.183  33.895  1.00  0.00    -0.396 OA
ATOM     31  H1  UNL     1      -6.621  -3.830  34.613  1.00  0.00     0.210 HD
ENDBRANCH  28  30
ENDBRANCH  27  28
ENDBRANCH   1  27
TORSDOF 5
ENDMDL
