MODEL 1
REMARK VINA RESULT: -7.409735460      0.000      0.000
REMARK  7 active torsions:
REMARK  status: ('A' for Active; 'I' for Inactive)
REMARK    1  A    between atoms: C2_2  and  C4_4 
REMARK    2  A    between atoms: C4_4  and  C5_5 
REMARK    3  A    between atoms: C5_5  and  N1_6 
REMARK    4  A    between atoms: C5_5  and  N2_10 
REMARK    5  A    between atoms: N2_10  and  C6_12 
REMARK    6  A    between atoms: C7_15  and  N4_16 
REMARK    7  A    between atoms: C8_21  and  N6_22 
ROOT
HETATM    1  C6  UNL     1      -2.131  -7.219  33.114  1.00  0.00     0.143 A 
HETATM    2  N3  UNL     1      -2.660  -8.050  33.998  1.00  0.00    -0.175 N 
ATOM      3  H3  UNL     1      -2.165  -8.210  34.875  1.00  0.00     0.186 HD
HETATM    4  C7  UNL     1      -3.810  -8.686  33.793  1.00  0.00     0.679 A 
HETATM    5  N5  UNL     1      -4.478  -8.494  32.654  1.00  0.00    -0.175 N 
ATOM      6  H5  UNL     1      -5.360  -8.981  32.496  1.00  0.00     0.186 HD
HETATM    7  C8  UNL     1      -3.988  -7.650  31.697  1.00  0.00     0.150 A 
HETATM    8  C16 UNL     1      -2.805  -6.991  31.901  1.00  0.00     0.133 A 
HETATM    9  C17 UNL     1      -2.306  -6.121  30.905  1.00  0.00     0.107 C 
HETATM   10  N8  UNL     1      -1.875  -5.402  30.092  1.00  0.00    -0.191 NA
ENDROOT
BRANCH   1  11
HETATM   11  N2  UNL     1      -1.044  -6.589  33.264  1.00  0.00    -0.347 N 
ATOM     12  H2  UNL     1      -1.107  -5.630  33.607  1.00  0.00     0.163 HD
BRANCH  11  13
HETATM   13  C5  UNL     1       0.279  -7.102  32.995  1.00  0.00     0.283 C 
BRANCH  13  14
HETATM   14  C4  UNL     1       1.146  -5.901  32.689  1.00  0.00     0.058 C 
BRANCH  14  15
HETATM   15  C2  UNL     1       1.843  -5.962  31.372  1.00  0.00    -0.019 C 
HETATM   16  C1  UNL     1       1.611  -4.739  30.510  1.00  0.00     0.009 C 
HETATM   17  C3  UNL     1       1.293  -7.207  30.656  1.00  0.00     0.009 C 
ENDBRANCH  14  15
ENDBRANCH  13  14
BRANCH  13  18
HETATM   18  N1  UNL     1       0.795  -7.863  34.115  1.00  0.00    -0.058 N 
ATOM     19  H13 UNL     1       1.011  -7.259  34.908  1.00  0.00     0.276 HD
ATOM     20  H12 UNL     1       0.067  -8.434  34.545  1.00  0.00     0.276 HD
ATOM     21  H11 UNL     1       1.601  -8.428  33.848  1.00  0.00     0.276 HD
ENDBRANCH  13  18
ENDBRANCH  11  13
ENDBRANCH   1  11
BRANCH   7  22
HETATM   22  N6  UNL     1      -4.712  -7.464  30.495  1.00  0.00    -0.301 N 
HETATM   23  C9  UNL     1      -5.809  -6.534  30.308  1.00  0.00     0.135 C 
HETATM   24  C10 UNL     1      -5.510  -5.992  28.940  1.00  0.00     0.041 C 
HETATM   25  C11 UNL     1      -5.041  -7.197  28.152  1.00  0.00     0.068 C 
HETATM   26  C12 UNL     1      -6.111  -7.785  27.301  1.00  0.00     0.048 C 
HETATM   27  C14 UNL     1      -3.901  -6.845  27.224  1.00  0.00     0.251 C 
HETATM   28  C15 UNL     1      -4.557  -8.103  29.235  1.00  0.00     0.236 C 
HETATM   29  C13 UNL     1      -5.740  -7.334  25.903  1.00  0.00     0.233 C 
HETATM   30  N7  UNL     1      -4.300  -7.160  25.888  1.00  0.00    -0.074 N 
ATOM     31  H72 UNL     1      -3.804  -7.963  25.501  1.00  0.00     0.277 HD
ATOM     32  H71 UNL     1      -3.988  -6.471  25.204  1.00  0.00     0.277 HD
HETATM   33  O1  UNL     1      -4.089  -9.246  29.051  1.00  0.00    -0.272 OA
ENDBRANCH   7  22
BRANCH   4  34
HETATM   34  N4  UNL     1      -4.314  -9.499  34.675  1.00  0.00    -0.234 N 
ATOM     35  H42 UNL     1      -3.853 -10.396  34.826  1.00  0.00     0.174 HD
ATOM     36  H41 UNL     1      -5.148  -9.263  35.212  1.00  0.00     0.174 HD
ENDBRANCH   4  34
TORSDOF 7
ENDMDL
MODEL 2
REMARK VINA RESULT: -7.144063257      2.030      3.595
REMARK  7 active torsions:
REMARK  status: ('A' for Active; 'I' for Inactive)
REMARK    1  A    between atoms: C2_2  and  C4_4 
REMARK    2  A    between atoms: C4_4  and  C5_5 
REMARK    3  A    between atoms: C5_5  and  N1_6 
REMARK    4  A    between atoms: C5_5  and  N2_10 
REMARK    5  A    between atoms: N2_10  and  C6_12 
REMARK    6  A    between atoms: C7_15  and  N4_16 
REMARK    7  A    between atoms: C8_21  and  N6_22 
ROOT
HETATM    1  C6  UNL     1      -0.080  -7.029  31.980  1.00  0.00     0.143 A 
HETATM    2  N3  UNL     1       0.625  -6.053  31.428  1.00  0.00    -0.175 N 
ATOM      3  H3  UNL     1       1.572  -5.884  31.767  1.00  0.00     0.186 HD
HETATM    4  C7  UNL     1       0.153  -5.284  30.451  1.00  0.00     0.679 A 
HETATM    5  N5  UNL     1      -1.083  -5.485  29.991  1.00  0.00    -0.175 N 
ATOM      6  H5  UNL     1      -1.446  -4.895  29.242  1.00  0.00     0.186 HD
HETATM    7  C8  UNL     1      -1.867  -6.474  30.515  1.00  0.00     0.150 A 
HETATM    8  C16 UNL     1      -1.387  -7.271  31.520  1.00  0.00     0.133 A 
HETATM    9  C17 UNL     1      -2.206  -8.291  32.058  1.00  0.00     0.107 C 
HETATM   10  N8  UNL     1      -2.868  -9.135  32.518  1.00  0.00    -0.191 NA
ENDROOT
BRANCH   1  11
HETATM   11  N2  UNL     1       0.325  -7.789  32.907  1.00  0.00    -0.347 N 
ATOM     12  H2  UNL     1      -0.359  -8.067  33.610  1.00  0.00     0.163 HD
BRANCH  11  13
HETATM   13  C5  UNL     1       1.667  -8.299  33.060  1.00  0.00     0.283 C 
BRANCH  13  14
HETATM   14  C4  UNL     1       1.964  -8.271  34.544  1.00  0.00     0.058 C 
BRANCH  14  15
HETATM   15  C2  UNL     1       3.359  -7.870  34.887  1.00  0.00    -0.019 C 
HETATM   16  C1  UNL     1       3.815  -8.375  36.240  1.00  0.00     0.009 C 
HETATM   17  C3  UNL     1       3.374  -6.333  34.881  1.00  0.00     0.009 C 
ENDBRANCH  14  15
ENDBRANCH  13  14
BRANCH  13  18
HETATM   18  N1  UNL     1       1.796  -9.635  32.514  1.00  0.00    -0.058 N 
ATOM     19  H13 UNL     1       1.013  -9.866  31.903  1.00  0.00     0.276 HD
ATOM     20  H12 UNL     1       2.551  -9.687  31.829  1.00  0.00     0.276 HD
ATOM     21  H11 UNL     1       1.913 -10.333  33.249  1.00  0.00     0.276 HD
ENDBRANCH  13  18
ENDBRANCH  11  13
ENDBRANCH   1  11
BRANCH   7  22
HETATM   22  N6  UNL     1      -3.175  -6.666  30.013  1.00  0.00    -0.301 N 
HETATM   23  C9  UNL     1      -4.372  -6.013  30.505  1.00  0.00     0.135 C 
HETATM   24  C10 UNL     1      -5.093  -5.705  29.225  1.00  0.00     0.041 C 
HETATM   25  C11 UNL     1      -4.875  -6.932  28.365  1.00  0.00     0.068 C 
HETATM   26  C12 UNL     1      -6.034  -7.866  28.383  1.00  0.00     0.048 C 
HETATM   27  C14 UNL     1      -4.644  -6.564  26.918  1.00  0.00     0.251 C 
HETATM   28  C15 UNL     1      -3.626  -7.500  28.953  1.00  0.00     0.236 C 
HETATM   29  C13 UNL     1      -6.693  -7.638  27.038  1.00  0.00     0.233 C 
HETATM   30  N7  UNL     1      -5.649  -7.205  26.129  1.00  0.00    -0.074 N 
ATOM     31  H72 UNL     1      -5.282  -7.961  25.551  1.00  0.00     0.277 HD
ATOM     32  H71 UNL     1      -5.998  -6.618  25.371  1.00  0.00     0.277 HD
HETATM   33  O1  UNL     1      -3.070  -8.550  28.566  1.00  0.00    -0.272 OA
ENDBRANCH   7  22
BRANCH   4  34
HETATM   34  N4  UNL     1       0.862  -4.330  29.923  1.00  0.00    -0.234 N 
ATOM     35  H42 UNL     1       1.531  -3.839  30.515  1.00  0.00     0.174 HD
ATOM     36  H41 UNL     1       0.765  -4.066  28.942  1.00  0.00     0.174 HD
ENDBRANCH   4  34
TORSDOF 7
ENDMDL
MODEL 3
REMARK VINA RESULT: -7.022259186      2.350      4.155
REMARK  7 active torsions:
REMARK  status: ('A' for Active; 'I' for Inactive)
REMARK    1  A    between atoms: C2_2  and  C4_4 
REMARK    2  A    between atoms: C4_4  and  C5_5 
REMARK    3  A    between atoms: C5_5  and  N1_6 
REMARK    4  A    between atoms: C5_5  and  N2_10 
REMARK    5  A    between atoms: N2_10  and  C6_12 
REMARK    6  A    between atoms: C7_15  and  N4_16 
REMARK    7  A    between atoms: C8_21  and  N6_22 
ROOT
HETATM    1  C6  UNL     1       0.214  -6.912  31.958  1.00  0.00     0.143 A 
HETATM    2  N3  UNL     1       0.945  -5.898  31.521  1.00  0.00    -0.175 N 
ATOM      3  H3  UNL     1       1.835  -5.705  31.979  1.00  0.00     0.186 HD
HETATM    4  C7  UNL     1       0.568  -5.119  30.511  1.00  0.00     0.679 A 
HETATM    5  N5  UNL     1      -0.593  -5.349  29.895  1.00  0.00    -0.175 N 
ATOM      6  H5  UNL     1      -0.882  -4.752  29.121  1.00  0.00     0.186 HD
HETATM    7  C8  UNL     1      -1.397  -6.378  30.295  1.00  0.00     0.150 A 
HETATM    8  C16 UNL     1      -1.016  -7.186  31.333  1.00  0.00     0.133 A 
HETATM    9  C17 UNL     1      -1.856  -8.248  31.741  1.00  0.00     0.107 C 
HETATM   10  N8  UNL     1      -2.538  -9.127  32.095  1.00  0.00    -0.191 NA
ENDROOT
BRANCH   1  11
HETATM   11  N2  UNL     1       0.529  -7.683  32.910  1.00  0.00    -0.347 N 
ATOM     12  H2  UNL     1      -0.185  -7.865  33.615  1.00  0.00     0.163 HD
BRANCH  11  13
HETATM   13  C5  UNL     1       1.808  -8.328  33.092  1.00  0.00     0.283 C 
BRANCH  13  14
HETATM   14  C4  UNL     1       2.074  -8.331  34.581  1.00  0.00     0.058 C 
BRANCH  14  15
HETATM   15  C2  UNL     1       3.443  -7.881  34.965  1.00  0.00    -0.019 C 
HETATM   16  C1  UNL     1       3.866  -8.347  36.342  1.00  0.00     0.009 C 
HETATM   17  C3  UNL     1       3.413  -6.344  34.929  1.00  0.00     0.009 C 
ENDBRANCH  14  15
ENDBRANCH  13  14
BRANCH  13  18
HETATM   18  N1  UNL     1       1.811  -9.671  32.546  1.00  0.00    -0.058 N 
ATOM     19  H13 UNL     1       1.358  -9.703  31.632  1.00  0.00     0.276 HD
ATOM     20  H12 UNL     1       2.749  -9.958  32.267  1.00  0.00     0.276 HD
ATOM     21  H11 UNL     1       1.393 -10.341  33.192  1.00  0.00     0.276 HD
ENDBRANCH  13  18
ENDBRANCH  11  13
ENDBRANCH   1  11
BRANCH   7  22
HETATM   22  N6  UNL     1      -2.626  -6.602  29.629  1.00  0.00    -0.301 N 
HETATM   23  C9  UNL     1      -2.771  -7.107  28.277  1.00  0.00     0.135 C 
HETATM   24  C10 UNL     1      -3.928  -8.051  28.433  1.00  0.00     0.041 C 
HETATM   25  C11 UNL     1      -4.878  -7.330  29.367  1.00  0.00     0.068 C 
HETATM   26  C12 UNL     1      -5.988  -6.646  28.649  1.00  0.00     0.048 C 
HETATM   27  C14 UNL     1      -5.525  -8.283  30.346  1.00  0.00     0.251 C 
HETATM   28  C15 UNL     1      -3.956  -6.404  30.088  1.00  0.00     0.236 C 
HETATM   29  C13 UNL     1      -7.182  -7.540  28.909  1.00  0.00     0.233 C 
HETATM   30  N7  UNL     1      -6.942  -8.203  30.176  1.00  0.00    -0.074 N 
ATOM     31  H72 UNL     1      -7.414  -7.751  30.960  1.00  0.00     0.277 HD
ATOM     32  H71 UNL     1      -7.406  -9.108  30.248  1.00  0.00     0.277 HD
HETATM   33  O1  UNL     1      -4.310  -5.584  30.961  1.00  0.00    -0.272 OA
ENDBRANCH   7  22
BRANCH   4  34
HETATM   34  N4  UNL     1       1.301  -4.127  30.097  1.00  0.00    -0.234 N 
ATOM     35  H42 UNL     1       1.624  -3.444  30.782  1.00  0.00     0.174 HD
ATOM     36  H41 UNL     1       1.558  -4.018  29.116  1.00  0.00     0.174 HD
ENDBRANCH   4  34
TORSDOF 7
ENDMDL
MODEL 4
REMARK VINA RESULT: -6.867165557      1.637      2.065
REMARK  7 active torsions:
REMARK  status: ('A' for Active; 'I' for Inactive)
REMARK    1  A    between atoms: C2_2  and  C4_4 
REMARK    2  A    between atoms: C4_4  and  C5_5 
REMARK    3  A    between atoms: C5_5  and  N1_6 
REMARK    4  A    between atoms: C5_5  and  N2_10 
REMARK    5  A    between atoms: N2_10  and  C6_12 
REMARK    6  A    between atoms: C7_15  and  N4_16 
REMARK    7  A    between atoms: C8_21  and  N6_22 
ROOT
HETATM    1  C6  UNL     1      -2.185  -8.007  32.071  1.00  0.00     0.143 A 
HETATM    2  N3  UNL     1      -2.509  -9.200  32.547  1.00  0.00    -0.175 N 
ATOM      3  H3  UNL     1      -2.134  -9.481  33.453  1.00  0.00     0.186 HD
HETATM    4  C7  UNL     1      -3.301 -10.046  31.897  1.00  0.00     0.679 A 
HETATM    5  N5  UNL     1      -3.804  -9.703  30.709  1.00  0.00    -0.175 N 
ATOM      6  H5  UNL     1      -4.412 -10.352  30.210  1.00  0.00     0.186 HD
HETATM    7  C8  UNL     1      -3.510  -8.488  30.158  1.00  0.00     0.150 A 
HETATM    8  C16 UNL     1      -2.696  -7.610  30.822  1.00  0.00     0.133 A 
HETATM    9  C17 UNL     1      -2.396  -6.355  30.242  1.00  0.00     0.107 C 
HETATM   10  N8  UNL     1      -2.133  -5.317  29.778  1.00  0.00    -0.191 NA
ENDROOT
BRANCH   1  11
HETATM   11  N2  UNL     1      -1.439  -7.166  32.651  1.00  0.00    -0.347 N 
ATOM     12  H2  UNL     1      -1.896  -6.368  33.092  1.00  0.00     0.163 HD
BRANCH  11  13
HETATM   13  C5  UNL     1      -0.000  -7.233  32.749  1.00  0.00     0.283 C 
BRANCH  13  14
HETATM   14  C4  UNL     1       0.510  -5.843  32.436  1.00  0.00     0.058 C 
BRANCH  14  15
HETATM   15  C2  UNL     1       1.594  -5.800  31.412  1.00  0.00    -0.019 C 
HETATM   16  C1  UNL     1       1.472  -4.631  30.456  1.00  0.00     0.009 C 
HETATM   17  C3  UNL     1       1.491  -7.118  30.627  1.00  0.00     0.009 C 
ENDBRANCH  14  15
ENDBRANCH  13  14
BRANCH  13  18
HETATM   18  N1  UNL     1       0.426  -7.677  34.061  1.00  0.00    -0.058 N 
ATOM     19  H13 UNL     1       1.442  -7.652  34.151  1.00  0.00     0.276 HD
ATOM     20  H12 UNL     1       0.188  -6.994  34.781  1.00  0.00     0.276 HD
ATOM     21  H11 UNL     1       0.055  -8.599  34.285  1.00  0.00     0.276 HD
ENDBRANCH  13  18
ENDBRANCH  11  13
ENDBRANCH   1  11
BRANCH   7  22
HETATM   22  N6  UNL     1      -4.053  -8.146  28.896  1.00  0.00    -0.301 N 
HETATM   23  C9  UNL     1      -3.404  -8.353  27.616  1.00  0.00     0.135 C 
HETATM   24  C10 UNL     1      -4.553  -8.823  26.771  1.00  0.00     0.041 C 
HETATM   25  C11 UNL     1      -5.717  -7.955  27.203  1.00  0.00     0.068 C 
HETATM   26  C12 UNL     1      -5.964  -6.814  26.281  1.00  0.00     0.048 C 
HETATM   27  C14 UNL     1      -7.006  -8.743  27.263  1.00  0.00     0.251 C 
HETATM   28  C15 UNL     1      -5.303  -7.549  28.579  1.00  0.00     0.236 C 
HETATM   29  C13 UNL     1      -7.196  -7.240  25.511  1.00  0.00     0.233 C 
HETATM   30  N7  UNL     1      -7.946  -8.128  26.379  1.00  0.00    -0.074 N 
ATOM     31  H72 UNL     1      -8.708  -7.659  26.869  1.00  0.00     0.277 HD
ATOM     32  H71 UNL     1      -8.514  -8.802  25.867  1.00  0.00     0.277 HD
HETATM   33  O1  UNL     1      -5.962  -6.798  29.328  1.00  0.00    -0.272 OA
ENDBRANCH   7  22
BRANCH   4  34
HETATM   34  N4  UNL     1      -3.608 -11.213  32.383  1.00  0.00    -0.234 N 
ATOM     35  H42 UNL     1      -3.531 -11.354  33.390  1.00  0.00     0.174 HD
ATOM     36  H41 UNL     1      -3.918 -11.981  31.787  1.00  0.00     0.174 HD
ENDBRANCH   4  34
TORSDOF 7
ENDMDL
MODEL 5
REMARK VINA RESULT: -6.858815478      1.143      1.206
REMARK  7 active torsions:
REMARK  status: ('A' for Active; 'I' for Inactive)
REMARK    1  A    between atoms: C2_2  and  C4_4 
REMARK    2  A    between atoms: C4_4  and  C5_5 
REMARK    3  A    between atoms: C5_5  and  N1_6 
REMARK    4  A    between atoms: C5_5  and  N2_10 
REMARK    5  A    between atoms: N2_10  and  C6_12 
REMARK    6  A    between atoms: C7_15  and  N4_16 
REMARK    7  A    between atoms: C8_21  and  N6_22 
ROOT
HETATM    1  C6  UNL     1      -1.940  -7.342  33.050  1.00  0.00     0.143 A 
HETATM    2  N3  UNL     1      -2.540  -7.883  34.100  1.00  0.00    -0.175 N 
ATOM      3  H3  UNL     1      -2.107  -7.776  35.017  1.00  0.00     0.186 HD
HETATM    4  C7  UNL     1      -3.681  -8.559  34.011  1.00  0.00     0.679 A 
HETATM    5  N5  UNL     1      -4.267  -8.713  32.822  1.00  0.00    -0.175 N 
ATOM      6  H5  UNL     1      -5.143  -9.231  32.753  1.00  0.00     0.186 HD
HETATM    7  C8  UNL     1      -3.703  -8.182  31.697  1.00  0.00     0.150 A 
HETATM    8  C16 UNL     1      -2.528  -7.483  31.780  1.00  0.00     0.133 A 
HETATM    9  C17 UNL     1      -1.951  -6.939  30.610  1.00  0.00     0.107 C 
HETATM   10  N8  UNL     1      -1.457  -6.485  29.654  1.00  0.00    -0.191 NA
ENDROOT
BRANCH   1  11
HETATM   11  N2  UNL     1      -0.858  -6.688  33.084  1.00  0.00    -0.347 N 
ATOM     12  H2  UNL     1      -0.930  -5.676  33.195  1.00  0.00     0.163 HD
BRANCH  11  13
HETATM   13  C5  UNL     1       0.472  -7.241  32.979  1.00  0.00     0.283 C 
BRANCH  13  14
HETATM   14  C4  UNL     1       1.393  -6.078  32.682  1.00  0.00     0.058 C 
BRANCH  14  15
HETATM   15  C2  UNL     1       2.134  -6.192  31.393  1.00  0.00    -0.019 C 
HETATM   16  C1  UNL     1       1.787  -5.101  30.401  1.00  0.00     0.009 C 
HETATM   17  C3  UNL     1       1.757  -7.561  30.804  1.00  0.00     0.009 C 
ENDBRANCH  14  15
ENDBRANCH  13  14
BRANCH  13  18
HETATM   18  N1  UNL     1       0.859  -7.934  34.192  1.00  0.00    -0.058 N 
ATOM     19  H13 UNL     1       1.363  -8.796  33.984  1.00  0.00     0.276 HD
ATOM     20  H12 UNL     1       1.598  -7.434  34.687  1.00  0.00     0.276 HD
ATOM     21  H11 UNL     1       0.057  -8.108  34.798  1.00  0.00     0.276 HD
ENDBRANCH  13  18
ENDBRANCH  11  13
ENDBRANCH   1  11
BRANCH   7  22
HETATM   22  N6  UNL     1      -4.342  -8.361  30.446  1.00  0.00    -0.301 N 
HETATM   23  C9  UNL     1      -5.340  -7.477  29.876  1.00  0.00     0.135 C 
HETATM   24  C10 UNL     1      -4.921  -7.442  28.435  1.00  0.00     0.041 C 
HETATM   25  C11 UNL     1      -4.518  -8.869  28.126  1.00  0.00     0.068 C 
HETATM   26  C12 UNL     1      -5.587  -9.636  27.432  1.00  0.00     0.048 C 
HETATM   27  C14 UNL     1      -3.302  -8.921  27.229  1.00  0.00     0.251 C 
HETATM   28  C15 UNL     1      -4.174  -9.391  29.482  1.00  0.00     0.236 C 
HETATM   29  C13 UNL     1      -5.102  -9.702  25.998  1.00  0.00     0.233 C 
HETATM   30  N7  UNL     1      -3.654  -9.637  26.043  1.00  0.00    -0.074 N 
ATOM     31  H72 UNL     1      -3.210 -10.554  25.982  1.00  0.00     0.277 HD
ATOM     32  H71 UNL     1      -3.246  -9.237  25.198  1.00  0.00     0.277 HD
HETATM   33  O1  UNL     1      -3.800 -10.559  29.721  1.00  0.00    -0.272 OA
ENDBRANCH   7  22
BRANCH   4  34
HETATM   34  N4  UNL     1      -4.254  -9.082  35.055  1.00  0.00    -0.234 N 
ATOM     35  H42 UNL     1      -3.694  -9.222  35.896  1.00  0.00     0.174 HD
ATOM     36  H41 UNL     1      -5.237  -9.353  35.051  1.00  0.00     0.174 HD
ENDBRANCH   4  34
TORSDOF 7
ENDMDL
