MODEL 1
REMARK VINA RESULT: -7.642975708      0.000      0.000
REMARK  7 active torsions:
REMARK  status: ('A' for Active; 'I' for Inactive)
REMARK    1  A    between atoms: N1_2  and  N2_4 
REMARK    2  A    between atoms: C2_6  and  C3_7 
REMARK    3  A    between atoms: C4_8  and  N3_9 
REMARK    4  A    between atoms: C10_18  and  N5_19 
REMARK    5  A    between atoms: N5_19  and  C11_21 
REMARK    6  A    between atoms: C14_24  and  N6_25 
REMARK    7  A    between atoms: C17_33  and  N8_34 
ROOT
HETATM    1  C3  UNL     1      -2.548  -7.622  31.575  1.00  0.00     0.069 A 
HETATM    2  C4  UNL     1      -1.672  -7.231  32.536  1.00  0.00     0.134 A 
HETATM    3  N4  UNL     1      -2.016  -7.384  33.835  1.00  0.00    -0.176 N 
ATOM      4  H4  UNL     1      -1.347  -7.084  34.543  1.00  0.00     0.186 HD
HETATM    5  C10 UNL     1      -3.195  -7.911  34.258  1.00  0.00     0.681 A 
HETATM    6  N7  UNL     1      -4.032  -8.285  33.289  1.00  0.00    -0.176 N 
ATOM      7  H7  UNL     1      -4.931  -8.686  33.555  1.00  0.00     0.186 HD
HETATM    8  C17 UNL     1      -3.753  -8.160  31.975  1.00  0.00     0.130 A 
ENDROOT
BRANCH   5   9
HETATM    9  N5  UNL     1      -3.414  -8.011  35.518  1.00  0.00    -0.221 N 
ATOM     10  H5  UNL     1      -2.597  -8.037  36.128  1.00  0.00     0.178 HD
BRANCH   9  11
HETATM   11  C11 UNL     1      -4.691  -8.089  36.146  1.00  0.00     0.099 C 
HETATM   12  C12 UNL     1      -4.809  -7.060  37.274  1.00  0.00     0.027 C 
HETATM   13  C13 UNL     1      -3.790  -7.305  38.335  1.00  0.00     0.035 C 
HETATM   14  C14 UNL     1      -3.839  -8.772  38.701  1.00  0.00     0.183 C 
HETATM   15  C15 UNL     1      -5.030  -9.489  38.160  1.00  0.00     0.035 C 
HETATM   16  C16 UNL     1      -5.029  -9.482  36.663  1.00  0.00     0.027 C 
BRANCH  14  17
HETATM   17  N6  UNL     1      -3.841  -8.869  40.145  1.00  0.00    -0.075 N 
ATOM     18  H63 UNL     1      -3.292  -8.133  40.591  1.00  0.00     0.274 HD
ATOM     19  H62 UNL     1      -4.744  -8.633  40.556  1.00  0.00     0.274 HD
ATOM     20  H61 UNL     1      -3.525  -9.806  40.396  1.00  0.00     0.274 HD
ENDBRANCH  14  17
ENDBRANCH   9  11
ENDBRANCH   5   9
BRANCH   2  21
HETATM   21  N3  UNL     1      -0.398  -6.672  32.309  1.00  0.00    -0.365 N 
HETATM   22  C5  UNL     1       0.821  -7.494  32.214  1.00  0.00     0.132 C 
HETATM   23  C6  UNL     1       1.390  -7.349  30.797  1.00  0.00     0.098 C 
HETATM   24  C7  UNL     1       1.506  -5.918  30.485  1.00  0.00     0.130 C 
HETATM   25  O1  UNL     1       2.546  -5.376  30.094  1.00  0.00    -0.298 OA
HETATM   26  C8  UNL     1       0.300  -5.036  30.640  1.00  0.00     0.098 C 
HETATM   27  C9  UNL     1      -0.140  -5.244  32.103  1.00  0.00     0.132 C 
ENDBRANCH   2  21
BRANCH   8  28
HETATM   28  N8  UNL     1      -4.645  -8.553  31.131  1.00  0.00    -0.384 N 
ATOM     29  H82 UNL     1      -4.375  -9.262  30.448  1.00  0.00     0.157 HD
ATOM     30  H81 UNL     1      -5.596  -8.183  31.131  1.00  0.00     0.157 HD
ENDBRANCH   8  28
BRANCH   1  31
HETATM   31  C2  UNL     1      -2.266  -7.495  30.178  1.00  0.00     0.125 C 
HETATM   32  N2  UNL     1      -2.683  -6.645  29.340  1.00  0.00    -0.316 N 
ATOM     33  H2  UNL     1      -3.322  -5.919  29.662  1.00  0.00     0.185 HD
BRANCH  32  34
HETATM   34  N1  UNL     1      -2.311  -6.654  27.999  1.00  0.00    -0.341 N 
HETATM   35  C1  UNL     1      -2.629  -7.700  27.058  1.00  0.00     0.167 C 
ATOM     36  H1  UNL     1      -1.773  -5.859  27.655  1.00  0.00     0.179 HD
ENDBRANCH  32  34
ENDBRANCH   1  31
TORSDOF 7
ENDMDL
MODEL 2
REMARK VINA RESULT: -7.357228398      1.318      2.047
REMARK  7 active torsions:
REMARK  status: ('A' for Active; 'I' for Inactive)
REMARK    1  A    between atoms: N1_2  and  N2_4 
REMARK    2  A    between atoms: C2_6  and  C3_7 
REMARK    3  A    between atoms: C4_8  and  N3_9 
REMARK    4  A    between atoms: C10_18  and  N5_19 
REMARK    5  A    between atoms: N5_19  and  C11_21 
REMARK    6  A    between atoms: C14_24  and  N6_25 
REMARK    7  A    between atoms: C17_33  and  N8_34 
ROOT
HETATM    1  C3  UNL     1      -2.609  -7.555  31.594  1.00  0.00     0.069 A 
HETATM    2  C4  UNL     1      -1.755  -7.127  32.560  1.00  0.00     0.134 A 
HETATM    3  N4  UNL     1      -2.127  -7.237  33.856  1.00  0.00    -0.176 N 
ATOM      4  H4  UNL     1      -1.474  -6.910  34.568  1.00  0.00     0.186 HD
HETATM    5  C10 UNL     1      -3.313  -7.755  34.271  1.00  0.00     0.681 A 
HETATM    6  N7  UNL     1      -4.128  -8.165  33.297  1.00  0.00    -0.176 N 
ATOM      7  H7  UNL     1      -5.031  -8.560  33.558  1.00  0.00     0.186 HD
HETATM    8  C17 UNL     1      -3.820  -8.084  31.987  1.00  0.00     0.130 A 
ENDROOT
BRANCH   5   9
HETATM    9  N5  UNL     1      -3.559  -7.812  35.528  1.00  0.00    -0.221 N 
ATOM     10  H5  UNL     1      -3.268  -8.658  36.018  1.00  0.00     0.178 HD
BRANCH   9  11
HETATM   11  C11 UNL     1      -4.201  -6.805  36.306  1.00  0.00     0.099 C 
HETATM   12  C12 UNL     1      -5.130  -7.431  37.351  1.00  0.00     0.027 C 
HETATM   13  C13 UNL     1      -6.209  -8.230  36.703  1.00  0.00     0.035 C 
HETATM   14  C14 UNL     1      -6.831  -7.382  35.616  1.00  0.00     0.183 C 
HETATM   15  C15 UNL     1      -6.434  -5.944  35.672  1.00  0.00     0.035 C 
HETATM   16  C16 UNL     1      -4.960  -5.783  35.468  1.00  0.00     0.027 C 
BRANCH  14  17
HETATM   17  N6  UNL     1      -8.268  -7.485  35.740  1.00  0.00    -0.075 N 
ATOM     18  H63 UNL     1      -8.764  -7.071  34.950  1.00  0.00     0.274 HD
ATOM     19  H62 UNL     1      -8.608  -8.440  35.629  1.00  0.00     0.274 HD
ATOM     20  H61 UNL     1      -8.535  -7.072  36.635  1.00  0.00     0.274 HD
ENDBRANCH  14  17
ENDBRANCH   9  11
ENDBRANCH   5   9
BRANCH   2  21
HETATM   21  N3  UNL     1      -0.478  -6.572  32.341  1.00  0.00    -0.365 N 
HETATM   22  C5  UNL     1       0.747  -7.390  32.320  1.00  0.00     0.132 C 
HETATM   23  C6  UNL     1       1.356  -7.309  30.915  1.00  0.00     0.098 C 
HETATM   24  C7  UNL     1       1.472  -5.895  30.536  1.00  0.00     0.130 C 
HETATM   25  O1  UNL     1       2.519  -5.365  30.149  1.00  0.00    -0.298 OA
HETATM   26  C8  UNL     1       0.258  -5.014  30.615  1.00  0.00     0.098 C 
HETATM   27  C9  UNL     1      -0.222  -5.153  32.073  1.00  0.00     0.132 C 
ENDBRANCH   2  21
BRANCH   8  28
HETATM   28  N8  UNL     1      -4.693  -8.510  31.137  1.00  0.00    -0.384 N 
ATOM     29  H82 UNL     1      -4.396  -8.625  30.168  1.00  0.00     0.157 HD
ATOM     30  H81 UNL     1      -5.651  -8.732  31.406  1.00  0.00     0.157 HD
ENDBRANCH   8  28
BRANCH   1  31
HETATM   31  C2  UNL     1      -2.296  -7.474  30.201  1.00  0.00     0.125 C 
HETATM   32  N2  UNL     1      -2.684  -6.645  29.328  1.00  0.00    -0.316 N 
ATOM     33  H2  UNL     1      -3.318  -5.900  29.615  1.00  0.00     0.185 HD
BRANCH  32  34
HETATM   34  N1  UNL     1      -2.285  -6.700  27.996  1.00  0.00    -0.341 N 
HETATM   35  C1  UNL     1      -2.616  -7.760  27.075  1.00  0.00     0.167 C 
ATOM     36  H1  UNL     1      -1.715  -5.931  27.643  1.00  0.00     0.179 HD
ENDBRANCH  32  34
ENDBRANCH   1  31
TORSDOF 7
ENDMDL
MODEL 3
REMARK VINA RESULT: -7.293451401      2.306      7.154
REMARK  7 active torsions:
REMARK  status: ('A' for Active; 'I' for Inactive)
REMARK    1  A    between atoms: N1_2  and  N2_4 
REMARK    2  A    between atoms: C2_6  and  C3_7 
REMARK    3  A    between atoms: C4_8  and  N3_9 
REMARK    4  A    between atoms: C10_18  and  N5_19 
REMARK    5  A    between atoms: N5_19  and  C11_21 
REMARK    6  A    between atoms: C14_24  and  N6_25 
REMARK    7  A    between atoms: C17_33  and  N8_34 
ROOT
HETATM    1  C3  UNL     1      -2.766  -6.577  31.042  1.00  0.00     0.069 A 
HETATM    2  C4  UNL     1      -1.645  -6.771  30.301  1.00  0.00     0.134 A 
HETATM    3  N4  UNL     1      -1.769  -6.981  28.970  1.00  0.00    -0.176 N 
ATOM      4  H4  UNL     1      -0.918  -7.126  28.429  1.00  0.00     0.186 HD
HETATM    5  C10 UNL     1      -2.956  -7.010  28.308  1.00  0.00     0.681 A 
HETATM    6  N7  UNL     1      -4.037  -6.816  29.065  1.00  0.00    -0.176 N 
ATOM      7  H7  UNL     1      -4.951  -6.830  28.614  1.00  0.00     0.186 HD
HETATM    8  C17 UNL     1      -3.984  -6.602  30.395  1.00  0.00     0.130 A 
ENDROOT
BRANCH   5   9
HETATM    9  N5  UNL     1      -2.954  -7.215  27.041  1.00  0.00    -0.221 N 
ATOM     10  H5  UNL     1      -2.833  -6.399  26.442  1.00  0.00     0.178 HD
BRANCH   9  11
HETATM   11  C11 UNL     1      -3.107  -8.475  26.393  1.00  0.00     0.099 C 
HETATM   12  C12 UNL     1      -4.071  -8.367  25.208  1.00  0.00     0.027 C 
HETATM   13  C13 UNL     1      -5.429  -7.944  25.655  1.00  0.00     0.035 C 
HETATM   14  C14 UNL     1      -5.831  -8.818  26.822  1.00  0.00     0.183 C 
HETATM   15  C15 UNL     1      -4.950 -10.006  27.017  1.00  0.00     0.035 C 
HETATM   16  C16 UNL     1      -3.547  -9.591  27.334  1.00  0.00     0.027 C 
BRANCH  14  17
HETATM   17  N6  UNL     1      -7.189  -9.264  26.595  1.00  0.00    -0.075 N 
ATOM     18  H63 UNL     1      -7.238 -10.103  26.018  1.00  0.00     0.274 HD
ATOM     19  H62 UNL     1      -7.624  -9.650  27.433  1.00  0.00     0.274 HD
ATOM     20  H61 UNL     1      -7.713  -8.482  26.202  1.00  0.00     0.274 HD
ENDBRANCH  14  17
ENDBRANCH   9  11
ENDBRANCH   5   9
BRANCH   2  21
HETATM   21  N3  UNL     1      -0.324  -6.768  30.792  1.00  0.00    -0.365 N 
HETATM   22  C5  UNL     1       0.559  -5.594  30.680  1.00  0.00     0.132 C 
HETATM   23  C6  UNL     1       0.886  -5.101  32.094  1.00  0.00     0.098 C 
HETATM   24  C7  UNL     1       1.363  -6.240  32.889  1.00  0.00     0.130 C 
HETATM   25  O1  UNL     1       2.431  -6.252  33.512  1.00  0.00    -0.298 OA
HETATM   26  C8  UNL     1       0.521  -7.481  32.966  1.00  0.00     0.098 C 
HETATM   27  C9  UNL     1       0.305  -7.890  31.495  1.00  0.00     0.132 C 
ENDBRANCH   2  21
BRANCH   8  28
HETATM   28  N8  UNL     1      -5.099  -6.432  31.022  1.00  0.00    -0.384 N 
ATOM     29  H82 UNL     1      -5.272  -7.002  31.850  1.00  0.00     0.157 HD
ATOM     30  H81 UNL     1      -5.796  -5.752  30.717  1.00  0.00     0.157 HD
ENDBRANCH   8  28
BRANCH   1  31
HETATM   31  C2  UNL     1      -2.726  -6.350  32.454  1.00  0.00     0.125 C 
HETATM   32  N2  UNL     1      -2.901  -7.158  33.411  1.00  0.00    -0.316 N 
ATOM     33  H2  UNL     1      -3.105  -8.133  33.192  1.00  0.00     0.185 HD
BRANCH  32  34
HETATM   34  N1  UNL     1      -2.827  -6.780  34.748  1.00  0.00    -0.341 N 
HETATM   35  C1  UNL     1      -3.962  -6.554  35.609  1.00  0.00     0.167 C 
ATOM     36  H1  UNL     1      -1.899  -6.653  35.151  1.00  0.00     0.179 HD
ENDBRANCH  32  34
ENDBRANCH   1  31
TORSDOF 7
ENDMDL
MODEL 4
REMARK VINA RESULT: -7.187281579      3.965      6.218
REMARK  7 active torsions:
REMARK  status: ('A' for Active; 'I' for Inactive)
REMARK    1  A    between atoms: N1_2  and  N2_4 
REMARK    2  A    between atoms: C2_6  and  C3_7 
REMARK    3  A    between atoms: C4_8  and  N3_9 
REMARK    4  A    between atoms: C10_18  and  N5_19 
REMARK    5  A    between atoms: N5_19  and  C11_21 
REMARK    6  A    between atoms: C14_24  and  N6_25 
REMARK    7  A    between atoms: C17_33  and  N8_34 
ROOT
HETATM    1  C3  UNL     1      -3.607  -9.097  30.449  1.00  0.00     0.069 A 
HETATM    2  C4  UNL     1      -3.158  -7.855  30.134  1.00  0.00     0.134 A 
HETATM    3  N4  UNL     1      -2.336  -7.218  31.001  1.00  0.00    -0.176 N 
ATOM      4  H4  UNL     1      -2.010  -6.286  30.749  1.00  0.00     0.186 HD
HETATM    5  C10 UNL     1      -1.918  -7.741  32.184  1.00  0.00     0.681 A 
HETATM    6  N7  UNL     1      -2.378  -8.962  32.462  1.00  0.00    -0.176 N 
ATOM      7  H7  UNL     1      -2.093  -9.396  33.339  1.00  0.00     0.186 HD
HETATM    8  C17 UNL     1      -3.199  -9.652  31.644  1.00  0.00     0.130 A 
ENDROOT
BRANCH   5   9
HETATM    9  N5  UNL     1      -1.136  -7.047  32.927  1.00  0.00    -0.221 N 
ATOM     10  H5  UNL     1      -1.558  -6.281  33.452  1.00  0.00     0.178 HD
BRANCH   9  11
HETATM   11  C11 UNL     1       0.266  -7.244  33.088  1.00  0.00     0.099 C 
HETATM   12  C12 UNL     1       1.000  -5.904  33.180  1.00  0.00     0.027 C 
HETATM   13  C13 UNL     1       0.817  -5.102  31.937  1.00  0.00     0.035 C 
HETATM   14  C14 UNL     1       1.116  -5.997  30.755  1.00  0.00     0.183 C 
HETATM   15  C15 UNL     1       1.774  -7.284  31.124  1.00  0.00     0.035 C 
HETATM   16  C16 UNL     1       0.885  -8.113  31.998  1.00  0.00     0.027 C 
BRANCH  14  17
HETATM   17  N6  UNL     1       1.977  -5.265  29.851  1.00  0.00    -0.075 N 
ATOM     18  H63 UNL     1       2.862  -5.741  29.676  1.00  0.00     0.274 HD
ATOM     19  H62 UNL     1       1.632  -5.262  28.891  1.00  0.00     0.274 HD
ATOM     20  H61 UNL     1       2.101  -4.325  30.229  1.00  0.00     0.274 HD
ENDBRANCH  14  17
ENDBRANCH   9  11
ENDBRANCH   5   9
BRANCH   2  21
HETATM   21  N3  UNL     1      -3.463  -7.143  28.956  1.00  0.00    -0.365 N 
HETATM   22  C5  UNL     1      -2.638  -7.236  27.740  1.00  0.00     0.132 C 
HETATM   23  C6  UNL     1      -3.489  -7.858  26.627  1.00  0.00     0.098 C 
HETATM   24  C7  UNL     1      -4.756  -7.120  26.538  1.00  0.00     0.130 C 
HETATM   25  O1  UNL     1      -5.196  -6.622  25.496  1.00  0.00    -0.298 OA
HETATM   26  C8  UNL     1      -5.588  -6.945  27.776  1.00  0.00     0.098 C 
HETATM   27  C9  UNL     1      -4.635  -6.278  28.787  1.00  0.00     0.132 C 
ENDBRANCH   2  21
BRANCH   8  28
HETATM   28  N8  UNL     1      -3.580 -10.824  32.024  1.00  0.00    -0.384 N 
ATOM     29  H82 UNL     1      -4.581 -11.023  32.023  1.00  0.00     0.157 HD
ATOM     30  H81 UNL     1      -2.918 -11.543  32.316  1.00  0.00     0.157 HD
ENDBRANCH   8  28
BRANCH   1  31
HETATM   31  C2  UNL     1      -4.478  -9.840  29.592  1.00  0.00     0.125 C 
HETATM   32  N2  UNL     1      -4.205 -10.621  28.636  1.00  0.00    -0.316 N 
ATOM     33  H2  UNL     1      -3.225 -10.777  28.402  1.00  0.00     0.185 HD
BRANCH  32  34
HETATM   34  N1  UNL     1      -5.177 -11.278  27.888  1.00  0.00    -0.341 N 
HETATM   35  C1  UNL     1      -5.875 -10.715  26.759  1.00  0.00     0.167 C 
ATOM     36  H1  UNL     1      -5.415 -12.232  28.160  1.00  0.00     0.179 HD
ENDBRANCH  32  34
ENDBRANCH   1  31
TORSDOF 7
ENDMDL
MODEL 5
REMARK VINA RESULT: -7.182484870      2.081      6.989
REMARK  7 active torsions:
REMARK  status: ('A' for Active; 'I' for Inactive)
REMARK    1  A    between atoms: N1_2  and  N2_4 
REMARK    2  A    between atoms: C2_6  and  C3_7 
REMARK    3  A    between atoms: C4_8  and  N3_9 
REMARK    4  A    between atoms: C10_18  and  N5_19 
REMARK    5  A    between atoms: N5_19  and  C11_21 
REMARK    6  A    between atoms: C14_24  and  N6_25 
REMARK    7  A    between atoms: C17_33  and  N8_34 
ROOT
HETATM    1  C3  UNL     1      -2.875  -6.557  31.444  1.00  0.00     0.069 A 
HETATM    2  C4  UNL     1      -1.679  -6.659  30.810  1.00  0.00     0.134 A 
HETATM    3  N4  UNL     1      -1.664  -6.849  29.470  1.00  0.00    -0.176 N 
ATOM      4  H4  UNL     1      -0.758  -6.925  29.010  1.00  0.00     0.186 HD
HETATM    5  C10 UNL     1      -2.779  -6.945  28.698  1.00  0.00     0.681 A 
HETATM    6  N7  UNL     1      -3.936  -6.841  29.353  1.00  0.00    -0.176 N 
ATOM      7  H7  UNL     1      -4.802  -6.908  28.818  1.00  0.00     0.186 HD
HETATM    8  C17 UNL     1      -4.023  -6.652  30.686  1.00  0.00     0.130 A 
ENDROOT
BRANCH   5   9
HETATM    9  N5  UNL     1      -2.646  -7.124  27.435  1.00  0.00    -0.221 N 
ATOM     10  H5  UNL     1      -2.391  -6.308  26.878  1.00  0.00     0.178 HD
BRANCH   9  11
HETATM   11  C11 UNL     1      -2.820  -8.354  26.737  1.00  0.00     0.099 C 
HETATM   12  C12 UNL     1      -3.613  -8.141  25.444  1.00  0.00     0.027 C 
HETATM   13  C13 UNL     1      -4.977  -7.609  25.730  1.00  0.00     0.035 C 
HETATM   14  C14 UNL     1      -5.596  -8.467  26.812  1.00  0.00     0.183 C 
HETATM   15  C15 UNL     1      -4.849  -9.731  27.081  1.00  0.00     0.035 C 
HETATM   16  C16 UNL     1      -3.468  -9.445  27.582  1.00  0.00     0.027 C 
BRANCH  14  17
HETATM   17  N6  UNL     1      -6.946  -8.789  26.404  1.00  0.00    -0.075 N 
ATOM     18  H63 UNL     1      -7.627  -8.654  27.152  1.00  0.00     0.274 HD
ATOM     19  H62 UNL     1      -7.332  -8.113  25.745  1.00  0.00     0.274 HD
ATOM     20  H61 UNL     1      -6.943  -9.741  26.038  1.00  0.00     0.274 HD
ENDBRANCH  14  17
ENDBRANCH   9  11
ENDBRANCH   5   9
BRANCH   2  21
HETATM   21  N3  UNL     1      -0.412  -6.576  31.423  1.00  0.00    -0.365 N 
HETATM   22  C5  UNL     1       0.173  -7.694  32.182  1.00  0.00     0.132 C 
HETATM   23  C6  UNL     1       1.445  -8.154  31.459  1.00  0.00     0.098 C 
HETATM   24  C7  UNL     1       2.291  -6.980  31.209  1.00  0.00     0.130 C 
HETATM   25  O1  UNL     1       3.477  -6.896  31.548  1.00  0.00    -0.298 OA
HETATM   26  C8  UNL     1       1.705  -5.793  30.501  1.00  0.00     0.098 C 
HETATM   27  C9  UNL     1       0.474  -5.411  31.347  1.00  0.00     0.132 C 
ENDBRANCH   2  21
BRANCH   8  28
HETATM   28  N8  UNL     1      -5.200  -6.570  31.207  1.00  0.00    -0.384 N 
ATOM     29  H82 UNL     1      -5.424  -5.736  31.749  1.00  0.00     0.157 HD
ATOM     30  H81 UNL     1      -5.900  -7.303  31.088  1.00  0.00     0.157 HD
ENDBRANCH   8  28
BRANCH   1  31
HETATM   31  C2  UNL     1      -2.982  -6.357  32.857  1.00  0.00     0.125 C 
HETATM   32  N2  UNL     1      -3.014  -7.203  33.796  1.00  0.00    -0.316 N 
ATOM     33  H2  UNL     1      -2.959  -8.193  33.560  1.00  0.00     0.185 HD
BRANCH  32  34
HETATM   34  N1  UNL     1      -3.121  -6.847  35.137  1.00  0.00    -0.341 N 
HETATM   35  C1  UNL     1      -4.361  -6.610  35.835  1.00  0.00     0.167 C 
ATOM     36  H1  UNL     1      -2.256  -6.745  35.668  1.00  0.00     0.179 HD
ENDBRANCH  32  34
ENDBRANCH   1  31
TORSDOF 7
ENDMDL
