MODEL 1
REMARK VINA RESULT: -8.241427032      0.000      0.000
REMARK  8 active torsions:
REMARK  status: ('A' for Active; 'I' for Inactive)
REMARK    1  A    between atoms: N1_2  and  C2_4 
REMARK    2  A    between atoms: C3_7  and  N3_8 
REMARK    3  A    between atoms: N3_8  and  C4_10 
REMARK    4  A    between atoms: C7_15  and  N5_16 
REMARK    5  A    between atoms: N5_16  and  C8_18 
REMARK    6  A    between atoms: C13_23  and  N6_24 
REMARK    7  A    between atoms: N6_24  and  C14_26 
REMARK    8  A    between atoms: C15_33  and  O1_34 
ROOT
HETATM    1  N5  UNL     1      -1.915  -6.159  30.641  1.00  0.00    -0.218 N 
ATOM      2  H5  UNL     1      -2.253  -6.219  31.602  1.00  0.00     0.178 HD
ENDROOT
BRANCH   1   3
HETATM    3  C7  UNL     1      -2.755  -6.340  29.668  1.00  0.00     0.707 A 
HETATM    4  N4  UNL     1      -2.421  -7.025  28.561  1.00  0.00    -0.021 N 
HETATM    5  C3  UNL     1      -3.270  -7.233  27.528  1.00  0.00     0.707 A 
ATOM      6  H4  UNL     1      -1.478  -7.409  28.497  1.00  0.00     0.203 HD
HETATM    7  N2  UNL     1      -4.495  -6.722  27.636  1.00  0.00    -0.022 N 
HETATM    8  C2  UNL     1      -4.897  -6.022  28.717  1.00  0.00     0.706 A 
ATOM      9  H2  UNL     1      -5.155  -6.864  26.871  1.00  0.00     0.203 HD
HETATM   10  N10 UNL     1      -4.009  -5.850  29.709  1.00  0.00    -0.022 N 
ATOM     11  H10 UNL     1      -4.298  -5.323  30.534  1.00  0.00     0.203 HD
BRANCH   5  12
HETATM   12  N3  UNL     1      -2.913  -7.898  26.483  1.00  0.00    -0.221 N 
ATOM     13  H3  UNL     1      -2.409  -7.415  25.739  1.00  0.00     0.178 HD
BRANCH  12  14
HETATM   14  C4  UNL     1      -3.201  -9.293  26.332  1.00  0.00     0.091 C 
HETATM   15  C5  UNL     1      -4.353  -9.516  25.349  1.00  0.00     0.032 C 
HETATM   16  C6  UNL     1      -3.627  -9.959  27.625  1.00  0.00     0.032 C 
ENDBRANCH  12  14
ENDBRANCH   5  12
BRANCH   8  17
HETATM   17  N1  UNL     1      -6.098  -5.553  28.758  1.00  0.00    -0.229 N 
HETATM   18  C1  UNL     1      -6.748  -4.948  27.637  1.00  0.00     0.165 C 
ATOM     19  H1  UNL     1      -6.611  -5.615  29.637  1.00  0.00     0.177 HD
ENDBRANCH   8  17
ENDBRANCH   1   3
BRANCH   1  20
HETATM   20  C8  UNL     1      -0.541  -5.883  30.415  1.00  0.00     0.122 C 
HETATM   21  C9  UNL     1      -0.022  -4.672  31.156  1.00  0.00     0.028 C 
HETATM   22  C10 UNL     1       1.281  -4.315  30.436  1.00  0.00     0.002 C 
HETATM   23  C11 UNL     1       2.257  -5.417  30.554  1.00  0.00     0.002 C 
HETATM   24  C12 UNL     1       1.759  -6.806  30.480  1.00  0.00     0.027 C 
HETATM   25  C13 UNL     1       0.334  -7.049  30.866  1.00  0.00     0.106 C 
BRANCH  25  26
HETATM   26  N6  UNL     1       0.118  -7.317  32.264  1.00  0.00    -0.365 N 
ATOM     27  H6  UNL     1      -0.813  -7.225  32.670  1.00  0.00     0.161 HD
BRANCH  26  28
HETATM   28  C14 UNL     1       1.217  -7.711  33.068  1.00  0.00     0.171 A 
HETATM   29  N7  UNL     1       1.909  -8.860  33.121  1.00  0.00    -0.268 N 
HETATM   30  N8  UNL     1       2.859  -8.771  34.055  1.00  0.00    -0.239 N 
ATOM     31  H7  UNL     1       1.734  -9.677  32.536  1.00  0.00     0.190 HD
HETATM   32  N9  UNL     1       2.830  -7.605  34.631  1.00  0.00    -0.262 N 
ATOM     33  H8  UNL     1       3.517  -9.514  34.285  1.00  0.00     0.208 HD
HETATM   34  C15 UNL     1       1.833  -6.922  34.052  1.00  0.00     0.202 A 
ATOM     35  H9  UNL     1       3.444  -7.277  35.375  1.00  0.00     0.190 HD
BRANCH  34  36
HETATM   36  O1  UNL     1       1.455  -5.634  34.366  1.00  0.00    -0.342 OA
ATOM     37  H1  UNL     1       1.526  -4.895  33.773  1.00  0.00     0.219 HD
ENDBRANCH  34  36
ENDBRANCH  26  28
ENDBRANCH  25  26
ENDBRANCH   1  20
TORSDOF 8
ENDMDL
MODEL 2
REMARK VINA RESULT: -8.189607169      3.369      5.143
REMARK  8 active torsions:
REMARK  status: ('A' for Active; 'I' for Inactive)
REMARK    1  A    between atoms: N1_2  and  C2_4 
REMARK    2  A    between atoms: C3_7  and  N3_8 
REMARK    3  A    between atoms: N3_8  and  C4_10 
REMARK    4  A    between atoms: C7_15  and  N5_16 
REMARK    5  A    between atoms: N5_16  and  C8_18 
REMARK    6  A    between atoms: C13_23  and  N6_24 
REMARK    7  A    between atoms: N6_24  and  C14_26 
REMARK    8  A    between atoms: C15_33  and  O1_34 
ROOT
HETATM    1  N5  UNL     1      -0.664  -7.832  32.295  1.00  0.00    -0.218 N 
ATOM      2  H5  UNL     1      -0.185  -8.706  32.513  1.00  0.00     0.178 HD
ENDROOT
BRANCH   1   3
HETATM    3  C7  UNL     1      -1.879  -7.661  32.718  1.00  0.00     0.707 A 
HETATM    4  N4  UNL     1      -2.230  -7.920  33.990  1.00  0.00    -0.021 N 
HETATM    5  C3  UNL     1      -3.486  -7.753  34.465  1.00  0.00     0.707 A 
ATOM      6  H4  UNL     1      -1.512  -8.260  34.630  1.00  0.00     0.203 HD
HETATM    7  N2  UNL     1      -4.406  -7.309  33.611  1.00  0.00    -0.022 N 
HETATM    8  C2  UNL     1      -4.124  -7.031  32.321  1.00  0.00     0.706 A 
ATOM      9  H2  UNL     1      -5.361  -7.175  33.944  1.00  0.00     0.203 HD
HETATM   10  N10 UNL     1      -2.860  -7.216  31.909  1.00  0.00    -0.022 N 
ATOM     11  H10 UNL     1      -2.631  -7.010  30.936  1.00  0.00     0.203 HD
BRANCH   5  12
HETATM   12  N3  UNL     1      -3.784  -8.011  35.694  1.00  0.00    -0.221 N 
ATOM     13  H3  UNL     1      -3.473  -8.892  36.102  1.00  0.00     0.178 HD
BRANCH  12  14
HETATM   14  C4  UNL     1      -4.537  -7.099  36.502  1.00  0.00     0.091 C 
HETATM   15  C5  UNL     1      -3.902  -6.936  37.886  1.00  0.00     0.032 C 
HETATM   16  C6  UNL     1      -5.960  -7.557  36.752  1.00  0.00     0.032 C 
ENDBRANCH  12  14
ENDBRANCH   5  12
BRANCH   8  17
HETATM   17  N1  UNL     1      -5.062  -6.604  31.545  1.00  0.00    -0.229 N 
HETATM   18  C1  UNL     1      -4.850  -6.236  30.180  1.00  0.00     0.165 C 
ATOM     19  H1  UNL     1      -6.005  -6.525  31.925  1.00  0.00     0.177 HD
ENDBRANCH   8  17
ENDBRANCH   1   3
BRANCH   1  20
HETATM   20  C8  UNL     1       0.021  -6.845  31.539  1.00  0.00     0.122 C 
HETATM   21  C9  UNL     1      -0.563  -5.457  31.657  1.00  0.00     0.028 C 
HETATM   22  C10 UNL     1       0.017  -4.697  30.462  1.00  0.00     0.002 C 
HETATM   23  C11 UNL     1       1.489  -4.619  30.563  1.00  0.00     0.002 C 
HETATM   24  C12 UNL     1       2.219  -5.792  31.086  1.00  0.00     0.027 C 
HETATM   25  C13 UNL     1       1.474  -6.721  31.991  1.00  0.00     0.106 C 
BRANCH  25  26
HETATM   26  N6  UNL     1       1.529  -6.384  33.390  1.00  0.00    -0.365 N 
ATOM     27  H6  UNL     1       0.896  -5.685  33.779  1.00  0.00     0.161 HD
BRANCH  26  28
HETATM   28  C14 UNL     1       2.475  -7.037  34.220  1.00  0.00     0.171 A 
HETATM   29  N7  UNL     1       3.304  -6.562  35.163  1.00  0.00    -0.268 N 
HETATM   30  N8  UNL     1       4.027  -7.562  35.672  1.00  0.00    -0.239 N 
ATOM     31  H7  UNL     1       3.371  -5.585  35.446  1.00  0.00     0.190 HD
HETATM   32  N9  UNL     1       3.714  -8.690  35.105  1.00  0.00    -0.262 N 
ATOM     33  H8  UNL     1       4.728  -7.457  36.404  1.00  0.00     0.208 HD
HETATM   34  C15 UNL     1       2.762  -8.412  34.205  1.00  0.00     0.202 A 
ATOM     35  H9  UNL     1       4.115  -9.606  35.307  1.00  0.00     0.190 HD
BRANCH  34  36
HETATM   36  O1  UNL     1       2.146  -9.326  33.379  1.00  0.00    -0.342 OA
ATOM     37  H1  UNL     1       1.664 -10.086  33.685  1.00  0.00     0.219 HD
ENDBRANCH  34  36
ENDBRANCH  26  28
ENDBRANCH  25  26
ENDBRANCH   1  20
TORSDOF 8
ENDMDL
MODEL 3
REMARK VINA RESULT: -8.148249375      1.191      1.393
REMARK  8 active torsions:
REMARK  status: ('A' for Active; 'I' for Inactive)
REMARK    1  A    between atoms: N1_2  and  C2_4 
REMARK    2  A    between atoms: C3_7  and  N3_8 
REMARK    3  A    between atoms: N3_8  and  C4_10 
REMARK    4  A    between atoms: C7_15  and  N5_16 
REMARK    5  A    between atoms: N5_16  and  C8_18 
REMARK    6  A    between atoms: C13_23  and  N6_24 
REMARK    7  A    between atoms: N6_24  and  C14_26 
REMARK    8  A    between atoms: C15_33  and  O1_34 
ROOT
HETATM    1  N5  UNL     1      -1.794  -7.244  30.767  1.00  0.00    -0.218 N 
ATOM      2  H5  UNL     1      -1.855  -8.016  31.431  1.00  0.00     0.178 HD
ENDROOT
BRANCH   1   3
HETATM    3  C7  UNL     1      -2.866  -6.874  30.135  1.00  0.00     0.707 A 
HETATM    4  N4  UNL     1      -2.997  -7.034  28.807  1.00  0.00    -0.021 N 
HETATM    5  C3  UNL     1      -4.099  -6.662  28.116  1.00  0.00     0.707 A 
ATOM      6  H4  UNL     1      -2.224  -7.459  28.293  1.00  0.00     0.203 HD
HETATM    7  N2  UNL     1      -5.093  -6.110  28.809  1.00  0.00    -0.022 N 
HETATM    8  C2  UNL     1      -5.029  -5.918  30.142  1.00  0.00     0.706 A 
ATOM      9  H2  UNL     1      -5.936  -5.820  28.312  1.00  0.00     0.203 HD
HETATM   10  N10 UNL     1      -3.910  -6.309  30.772  1.00  0.00    -0.022 N 
ATOM     11  H10 UNL     1      -3.846  -6.170  31.781  1.00  0.00     0.203 HD
BRANCH   5  12
HETATM   12  N3  UNL     1      -4.188  -6.834  26.841  1.00  0.00    -0.221 N 
ATOM     13  H3  UNL     1      -3.678  -6.204  26.221  1.00  0.00     0.178 HD
BRANCH  12  14
HETATM   14  C4  UNL     1      -4.980  -7.880  26.266  1.00  0.00     0.091 C 
HETATM   15  C5  UNL     1      -4.201  -8.628  25.180  1.00  0.00     0.032 C 
HETATM   16  C6  UNL     1      -6.241  -7.376  25.596  1.00  0.00     0.032 C 
ENDBRANCH  12  14
ENDBRANCH   5  12
BRANCH   8  17
HETATM   17  N1  UNL     1      -6.028  -5.376  30.754  1.00  0.00    -0.229 N 
HETATM   18  C1  UNL     1      -6.702  -4.207  30.282  1.00  0.00     0.165 C 
ATOM     19  H1  UNL     1      -6.354  -5.805  31.620  1.00  0.00     0.177 HD
ENDBRANCH   8  17
ENDBRANCH   1   3
BRANCH   1  20
HETATM   20  C8  UNL     1      -0.539  -6.611  30.565  1.00  0.00     0.122 C 
HETATM   21  C9  UNL     1      -0.404  -5.271  31.250  1.00  0.00     0.028 C 
HETATM   22  C10 UNL     1       0.782  -4.604  30.549  1.00  0.00     0.002 C 
HETATM   23  C11 UNL     1       2.016  -5.388  30.759  1.00  0.00     0.002 C 
HETATM   24  C12 UNL     1       1.920  -6.862  30.751  1.00  0.00     0.027 C 
HETATM   25  C13 UNL     1       0.600  -7.469  31.108  1.00  0.00     0.106 C 
BRANCH  25  26
HETATM   26  N6  UNL     1       0.404  -7.720  32.512  1.00  0.00    -0.365 N 
ATOM     27  H6  UNL     1      -0.537  -7.771  32.902  1.00  0.00     0.161 HD
BRANCH  26  28
HETATM   28  C14 UNL     1       1.538  -7.895  33.346  1.00  0.00     0.171 A 
HETATM   29  N7  UNL     1       2.361  -8.942  33.513  1.00  0.00    -0.268 N 
HETATM   30  N8  UNL     1       3.288  -8.644  34.426  1.00  0.00    -0.239 N 
ATOM     31  H7  UNL     1       2.288  -9.830  33.017  1.00  0.00     0.190 HD
HETATM   32  N9  UNL     1       3.117  -7.437  34.878  1.00  0.00    -0.262 N 
ATOM     33  H8  UNL     1       4.029  -9.276  34.728  1.00  0.00     0.208 HD
HETATM   34  C15 UNL     1       2.050  -6.940  34.239  1.00  0.00     0.202 A 
ATOM     35  H9  UNL     1       3.684  -6.962  35.581  1.00  0.00     0.190 HD
BRANCH  34  36
HETATM   36  O1  UNL     1       1.520  -5.681  34.419  1.00  0.00    -0.342 OA
ATOM     37  H1  UNL     1       1.654  -5.148  35.195  1.00  0.00     0.219 HD
ENDBRANCH  34  36
ENDBRANCH  26  28
ENDBRANCH  25  26
ENDBRANCH   1  20
TORSDOF 8
ENDMDL
MODEL 4
REMARK VINA RESULT: -8.132463049      3.382      5.088
REMARK  8 active torsions:
REMARK  status: ('A' for Active; 'I' for Inactive)
REMARK    1  A    between atoms: N1_2  and  C2_4 
REMARK    2  A    between atoms: C3_7  and  N3_8 
REMARK    3  A    between atoms: N3_8  and  C4_10 
REMARK    4  A    between atoms: C7_15  and  N5_16 
REMARK    5  A    between atoms: N5_16  and  C8_18 
REMARK    6  A    between atoms: C13_23  and  N6_24 
REMARK    7  A    between atoms: N6_24  and  C14_26 
REMARK    8  A    between atoms: C15_33  and  O1_34 
ROOT
HETATM    1  N5  UNL     1      -0.750  -7.690  32.144  1.00  0.00    -0.218 N 
ATOM      2  H5  UNL     1      -0.267  -8.570  32.325  1.00  0.00     0.178 HD
ENDROOT
BRANCH   1   3
HETATM    3  C7  UNL     1      -1.941  -7.516  32.630  1.00  0.00     0.707 A 
HETATM    4  N4  UNL     1      -2.232  -7.802  33.910  1.00  0.00    -0.021 N 
HETATM    5  C3  UNL     1      -3.461  -7.633  34.451  1.00  0.00     0.707 A 
ATOM      6  H4  UNL     1      -1.487  -8.165  34.506  1.00  0.00     0.203 HD
HETATM    7  N2  UNL     1      -4.416  -7.158  33.654  1.00  0.00    -0.022 N 
HETATM    8  C2  UNL     1      -4.194  -6.851  32.359  1.00  0.00     0.706 A 
ATOM      9  H2  UNL     1      -5.352  -7.021  34.037  1.00  0.00     0.203 HD
HETATM   10  N10 UNL     1      -2.954  -7.041  31.881  1.00  0.00    -0.022 N 
ATOM     11  H10 UNL     1      -2.771  -6.813  30.903  1.00  0.00     0.203 HD
BRANCH   5  12
HETATM   12  N3  UNL     1      -3.701  -7.917  35.686  1.00  0.00    -0.221 N 
ATOM     13  H3  UNL     1      -3.369  -8.806  36.062  1.00  0.00     0.178 HD
BRANCH  12  14
HETATM   14  C4  UNL     1      -4.419  -7.026  36.548  1.00  0.00     0.091 C 
HETATM   15  C5  UNL     1      -3.740  -6.915  37.916  1.00  0.00     0.032 C 
HETATM   16  C6  UNL     1      -5.838  -7.477  36.827  1.00  0.00     0.032 C 
ENDBRANCH  12  14
ENDBRANCH   5  12
BRANCH   8  17
HETATM   17  N1  UNL     1      -5.164  -6.396  31.641  1.00  0.00    -0.229 N 
HETATM   18  C1  UNL     1      -6.445  -6.047  32.172  1.00  0.00     0.165 C 
ATOM     19  H1  UNL     1      -5.009  -6.278  30.639  1.00  0.00     0.177 HD
ENDBRANCH   8  17
ENDBRANCH   1   3
BRANCH   1  20
HETATM   20  C8  UNL     1      -0.096  -6.698  31.367  1.00  0.00     0.122 C 
HETATM   21  C9  UNL     1      -0.672  -5.310  31.521  1.00  0.00     0.028 C 
HETATM   22  C10 UNL     1      -0.143  -4.540  30.309  1.00  0.00     0.002 C 
HETATM   23  C11 UNL     1       1.332  -4.465  30.346  1.00  0.00     0.002 C 
HETATM   24  C12 UNL     1       2.082  -5.644  30.827  1.00  0.00     0.027 C 
HETATM   25  C13 UNL     1       1.375  -6.580  31.755  1.00  0.00     0.106 C 
BRANCH  25  26
HETATM   26  N6  UNL     1       1.492  -6.255  33.154  1.00  0.00    -0.365 N 
ATOM     27  H6  UNL     1       1.309  -5.306  33.481  1.00  0.00     0.161 HD
BRANCH  26  28
HETATM   28  C14 UNL     1       1.864  -7.272  34.069  1.00  0.00     0.171 A 
HETATM   29  N7  UNL     1       1.227  -8.386  34.461  1.00  0.00    -0.268 N 
HETATM   30  N8  UNL     1       1.969  -9.035  35.361  1.00  0.00    -0.239 N 
ATOM     31  H7  UNL     1       0.314  -8.690  34.123  1.00  0.00     0.190 HD
HETATM   32  N9  UNL     1       3.079  -8.397  35.588  1.00  0.00    -0.262 N 
ATOM     33  H8  UNL     1       1.702  -9.911  35.810  1.00  0.00     0.208 HD
HETATM   34  C15 UNL     1       3.054  -7.306  34.812  1.00  0.00     0.202 A 
ATOM     35  H9  UNL     1       3.822  -8.674  36.230  1.00  0.00     0.190 HD
BRANCH  34  36
HETATM   36  O1  UNL     1       4.043  -6.347  34.742  1.00  0.00    -0.342 OA
ATOM     37  H1  UNL     1       4.918  -6.452  35.098  1.00  0.00     0.219 HD
ENDBRANCH  34  36
ENDBRANCH  26  28
ENDBRANCH  25  26
ENDBRANCH   1  20
TORSDOF 8
ENDMDL
MODEL 5
REMARK VINA RESULT: -8.045711296      0.924      3.103
REMARK  8 active torsions:
REMARK  status: ('A' for Active; 'I' for Inactive)
REMARK    1  A    between atoms: N1_2  and  C2_4 
REMARK    2  A    between atoms: C3_7  and  N3_8 
REMARK    3  A    between atoms: N3_8  and  C4_10 
REMARK    4  A    between atoms: C7_15  and  N5_16 
REMARK    5  A    between atoms: N5_16  and  C8_18 
REMARK    6  A    between atoms: C13_23  and  N6_24 
REMARK    7  A    between atoms: N6_24  and  C14_26 
REMARK    8  A    between atoms: C15_33  and  O1_34 
ROOT
HETATM    1  N5  UNL     1      -1.740  -7.028  30.584  1.00  0.00    -0.218 N 
ATOM      2  H5  UNL     1      -1.948  -7.546  31.439  1.00  0.00     0.178 HD
ENDROOT
BRANCH   1   3
HETATM    3  C7  UNL     1      -2.666  -6.912  29.682  1.00  0.00     0.707 A 
HETATM    4  N4  UNL     1      -3.852  -6.341  29.952  1.00  0.00    -0.021 N 
HETATM    5  C3  UNL     1      -4.839  -6.203  29.037  1.00  0.00     0.707 A 
ATOM      6  H4  UNL     1      -4.017  -5.993  30.898  1.00  0.00     0.203 HD
HETATM    7  N2  UNL     1      -4.601  -6.665  27.811  1.00  0.00    -0.022 N 
HETATM    8  C2  UNL     1      -3.434  -7.250  27.470  1.00  0.00     0.706 A 
ATOM      9  H2  UNL     1      -5.329  -6.573  27.102  1.00  0.00     0.203 HD
HETATM   10  N10 UNL     1      -2.494  -7.358  28.422  1.00  0.00    -0.022 N 
ATOM     11  H10 UNL     1      -1.606  -7.798  28.180  1.00  0.00     0.203 HD
BRANCH   5  12
HETATM   12  N3  UNL     1      -5.964  -5.647  29.335  1.00  0.00    -0.221 N 
ATOM     13  H3  UNL     1      -6.771  -6.239  29.531  1.00  0.00     0.178 HD
BRANCH  12  14
HETATM   14  C4  UNL     1      -6.117  -4.224  29.398  1.00  0.00     0.091 C 
HETATM   15  C5  UNL     1      -6.887  -3.808  30.655  1.00  0.00     0.032 C 
HETATM   16  C6  UNL     1      -6.895  -3.653  28.230  1.00  0.00     0.032 C 
ENDBRANCH  12  14
ENDBRANCH   5  12
BRANCH   8  17
HETATM   17  N1  UNL     1      -3.267  -7.677  26.265  1.00  0.00    -0.229 N 
HETATM   18  C1  UNL     1      -4.260  -8.411  25.543  1.00  0.00     0.165 C 
ATOM     19  H1  UNL     1      -2.380  -7.481  25.801  1.00  0.00     0.177 HD
ENDBRANCH   8  17
ENDBRANCH   1   3
BRANCH   1  20
HETATM   20  C8  UNL     1      -0.449  -6.461  30.423  1.00  0.00     0.122 C 
HETATM   21  C9  UNL     1      -0.252  -5.151  31.150  1.00  0.00     0.028 C 
HETATM   22  C10 UNL     1       0.982  -4.531  30.490  1.00  0.00     0.002 C 
HETATM   23  C11 UNL     1       2.166  -5.389  30.696  1.00  0.00     0.002 C 
HETATM   24  C12 UNL     1       1.989  -6.855  30.642  1.00  0.00     0.027 C 
HETATM   25  C13 UNL     1       0.631  -7.397  30.958  1.00  0.00     0.106 C 
BRANCH  25  26
HETATM   26  N6  UNL     1       0.396  -7.677  32.352  1.00  0.00    -0.365 N 
ATOM     27  H6  UNL     1      -0.556  -7.730  32.714  1.00  0.00     0.161 HD
BRANCH  26  28
HETATM   28  C14 UNL     1       1.505  -7.879  33.211  1.00  0.00     0.171 A 
HETATM   29  N7  UNL     1       2.311  -8.939  33.382  1.00  0.00    -0.268 N 
HETATM   30  N8  UNL     1       3.218  -8.667  34.323  1.00  0.00    -0.239 N 
ATOM     31  H7  UNL     1       2.241  -9.818  32.870  1.00  0.00     0.190 HD
HETATM   32  N9  UNL     1       3.049  -7.465  34.791  1.00  0.00    -0.262 N 
ATOM     33  H8  UNL     1       3.943  -9.313  34.634  1.00  0.00     0.208 HD
HETATM   34  C15 UNL     1       2.005  -6.946  34.132  1.00  0.00     0.202 A 
ATOM     35  H9  UNL     1       3.603  -7.009  35.515  1.00  0.00     0.190 HD
BRANCH  34  36
HETATM   36  O1  UNL     1       1.485  -5.683  34.320  1.00  0.00    -0.342 OA
ATOM     37  H1  UNL     1       0.632  -5.403  34.010  1.00  0.00     0.219 HD
ENDBRANCH  34  36
ENDBRANCH  26  28
ENDBRANCH  25  26
ENDBRANCH   1  20
TORSDOF 8
ENDMDL
