MODEL 1
REMARK VINA RESULT: -7.181204803      0.000      0.000
REMARK  3 active torsions:
REMARK  status: ('A' for Active; 'I' for Inactive)
REMARK    1  A    between atoms: O1_2  and  C2_3 
REMARK    2  A    between atoms: C4_5  and  N1_6 
REMARK    3  A    between atoms: N1_6  and  N2_8 
ROOT
HETATM    1  N1  UNL     1      -0.556  -6.044  33.704  1.00  0.00    -0.300 N 
ATOM      2  H1  UNL     1      -0.372  -5.508  34.553  1.00  0.00     0.187 HD
ENDROOT
BRANCH   1   3
HETATM    3  C4  UNL     1      -1.806  -5.924  33.049  1.00  0.00     0.050 A 
HETATM    4  C3  UNL     1      -1.918  -5.713  31.688  1.00  0.00     0.069 A 
HETATM    5  C2  UNL     1      -3.133  -5.595  31.043  1.00  0.00     0.094 A 
HETATM    6  C11 UNL     1      -4.293  -5.693  31.796  1.00  0.00     0.079 A 
HETATM    7  C10 UNL     1      -4.230  -5.906  33.173  1.00  0.00     0.032 A 
HETATM    8  N4  UNL     1      -5.549  -5.575  31.157  1.00  0.00    -0.100 NA
HETATM    9  C9  UNL     1      -3.000  -6.015  33.758  1.00  0.00     0.033 A 
BRANCH   5  10
HETATM   10  O1  UNL     1      -3.249  -5.385  29.694  1.00  0.00    -0.354 OA
HETATM   11  C1  UNL     1      -2.885  -6.293  28.699  1.00  0.00     0.210 C 
ENDBRANCH   5  10
ENDBRANCH   1   3
BRANCH   1  12
HETATM   12  N2  UNL     1       0.422  -6.890  33.194  1.00  0.00    -0.299 N 
HETATM   13  C5  UNL     1       1.655  -6.858  33.549  1.00  0.00     0.102 C 
HETATM   14  C6  UNL     1       2.352  -5.984  34.529  1.00  0.00     0.167 C 
HETATM   15  C8  UNL     1       2.682  -7.744  33.014  1.00  0.00     0.272 C 
HETATM   16  C7  UNL     1       3.373  -6.919  35.083  1.00  0.00     0.230 C 
HETATM   17  O2  UNL     1       3.828  -6.963  36.271  1.00  0.00    -0.273 OA
HETATM   18  N3  UNL     1       3.735  -7.761  33.989  1.00  0.00    -0.292 N 
ATOM     19  H3  UNL     1       4.603  -8.290  33.913  1.00  0.00     0.172 HD
HETATM   20  O3  UNL     1       2.644  -8.366  31.917  1.00  0.00    -0.266 OA
ATOM     21  H2  UNL     1       0.143  -7.579  32.495  1.00  0.00     0.186 HD
ENDBRANCH   1  12
TORSDOF 3
ENDMDL
MODEL 2
REMARK VINA RESULT: -7.162310602      2.018      2.964
REMARK  3 active torsions:
REMARK  status: ('A' for Active; 'I' for Inactive)
REMARK    1  A    between atoms: O1_2  and  C2_3 
REMARK    2  A    between atoms: C4_5  and  N1_6 
REMARK    3  A    between atoms: N1_6  and  N2_8 
ROOT
HETATM    1  N1  UNL     1      -1.321  -6.779  33.269  1.00  0.00    -0.300 N 
ATOM      2  H1  UNL     1      -1.735  -7.490  33.872  1.00  0.00     0.187 HD
ENDROOT
BRANCH   1   3
HETATM    3  C4  UNL     1      -1.885  -6.518  31.995  1.00  0.00     0.050 A 
HETATM    4  C3  UNL     1      -2.712  -7.416  31.346  1.00  0.00     0.069 A 
HETATM    5  C2  UNL     1      -3.264  -7.167  30.106  1.00  0.00     0.094 A 
HETATM    6  C11 UNL     1      -2.975  -5.963  29.483  1.00  0.00     0.079 A 
HETATM    7  C10 UNL     1      -2.146  -5.026  30.099  1.00  0.00     0.032 A 
HETATM    8  N4  UNL     1      -3.530  -5.688  28.212  1.00  0.00    -0.100 NA
HETATM    9  C9  UNL     1      -1.627  -5.325  31.327  1.00  0.00     0.033 A 
BRANCH   5  10
HETATM   10  O1  UNL     1      -4.084  -8.054  29.459  1.00  0.00    -0.354 OA
HETATM   11  C1  UNL     1      -3.682  -9.265  28.892  1.00  0.00     0.210 C 
ENDBRANCH   5  10
ENDBRANCH   1   3
BRANCH   1  12
HETATM   12  N2  UNL     1      -0.206  -6.069  33.698  1.00  0.00    -0.299 N 
HETATM   13  C5  UNL     1       0.990  -6.300  33.293  1.00  0.00     0.102 C 
HETATM   14  C6  UNL     1       1.502  -7.306  32.326  1.00  0.00     0.167 C 
HETATM   15  C8  UNL     1       2.161  -5.556  33.742  1.00  0.00     0.272 C 
HETATM   16  C7  UNL     1       2.621  -6.558  31.687  1.00  0.00     0.230 C 
HETATM   17  O2  UNL     1       3.020  -6.628  30.480  1.00  0.00    -0.273 OA
HETATM   18  N3  UNL     1       3.157  -5.736  32.724  1.00  0.00    -0.292 N 
ATOM     19  H3  UNL     1       4.096  -5.340  32.739  1.00  0.00     0.172 HD
HETATM   20  O3  UNL     1       2.269  -4.893  34.810  1.00  0.00    -0.266 OA
ATOM     21  H2  UNL     1      -0.346  -5.320  34.375  1.00  0.00     0.186 HD
ENDBRANCH   1  12
TORSDOF 3
ENDMDL
MODEL 3
REMARK VINA RESULT: -7.029227239      1.265      1.267
REMARK  3 active torsions:
REMARK  status: ('A' for Active; 'I' for Inactive)
REMARK    1  A    between atoms: O1_2  and  C2_3 
REMARK    2  A    between atoms: C4_5  and  N1_6 
REMARK    3  A    between atoms: N1_6  and  N2_8 
ROOT
HETATM    1  N1  UNL     1      -1.000  -6.594  33.357  1.00  0.00    -0.300 N 
ATOM      2  H1  UNL     1      -0.868  -6.963  34.299  1.00  0.00     0.187 HD
ENDROOT
BRANCH   1   3
HETATM    3  C4  UNL     1      -2.300  -6.254  32.906  1.00  0.00     0.050 A 
HETATM    4  C3  UNL     1      -2.584  -5.988  31.579  1.00  0.00     0.069 A 
HETATM    5  C2  UNL     1      -3.847  -5.655  31.134  1.00  0.00     0.094 A 
HETATM    6  C11 UNL     1      -4.877  -5.586  32.058  1.00  0.00     0.079 A 
HETATM    7  C10 UNL     1      -4.639  -5.847  33.408  1.00  0.00     0.032 A 
HETATM    8  N4  UNL     1      -6.180  -5.248  31.624  1.00  0.00    -0.100 NA
HETATM    9  C9  UNL     1      -3.368  -6.171  33.793  1.00  0.00     0.033 A 
BRANCH   5  10
HETATM   10  O1  UNL     1      -4.133  -5.391  29.820  1.00  0.00    -0.354 OA
HETATM   11  C1  UNL     1      -3.596  -6.064  28.722  1.00  0.00     0.210 C 
ENDBRANCH   5  10
ENDBRANCH   1   3
BRANCH   1  12
HETATM   12  N2  UNL     1       0.096  -6.427  32.518  1.00  0.00    -0.299 N 
HETATM   13  C5  UNL     1       1.240  -5.997  32.911  1.00  0.00     0.102 C 
HETATM   14  C6  UNL     1       1.701  -5.584  34.263  1.00  0.00     0.167 C 
HETATM   15  C8  UNL     1       2.390  -5.820  32.033  1.00  0.00     0.272 C 
HETATM   16  C7  UNL     1       3.123  -6.030  34.237  1.00  0.00     0.230 C 
HETATM   17  O2  UNL     1       3.819  -6.480  35.203  1.00  0.00    -0.273 OA
HETATM   18  N3  UNL     1       3.545  -5.845  32.886  1.00  0.00    -0.292 N 
ATOM     19  H3  UNL     1       4.511  -5.747  32.576  1.00  0.00     0.172 HD
HETATM   20  O3  UNL     1       2.367  -5.676  30.780  1.00  0.00    -0.266 OA
ATOM     21  H2  UNL     1      -0.015  -6.660  31.532  1.00  0.00     0.186 HD
ENDBRANCH   1  12
TORSDOF 3
ENDMDL
MODEL 4
REMARK VINA RESULT: -6.967969499      2.605      3.042
REMARK  3 active torsions:
REMARK  status: ('A' for Active; 'I' for Inactive)
REMARK    1  A    between atoms: O1_2  and  C2_3 
REMARK    2  A    between atoms: C4_5  and  N1_6 
REMARK    3  A    between atoms: N1_6  and  N2_8 
ROOT
HETATM    1  N1  UNL     1      -0.987  -5.377  30.321  1.00  0.00    -0.300 N 
ATOM      2  H1  UNL     1      -1.138  -4.398  30.564  1.00  0.00     0.187 HD
ENDROOT
BRANCH   1   3
HETATM    3  C4  UNL     1      -2.088  -6.195  29.964  1.00  0.00     0.050 A 
HETATM    4  C3  UNL     1      -2.664  -6.164  28.708  1.00  0.00     0.069 A 
HETATM    5  C2  UNL     1      -3.737  -6.958  28.354  1.00  0.00     0.094 A 
HETATM    6  C11 UNL     1      -4.258  -7.825  29.301  1.00  0.00     0.079 A 
HETATM    7  C10 UNL     1      -3.710  -7.892  30.581  1.00  0.00     0.032 A 
HETATM    8  N4  UNL     1      -5.357  -8.648  28.960  1.00  0.00    -0.100 NA
HETATM    9  C9  UNL     1      -2.649  -7.083  30.877  1.00  0.00     0.033 A 
BRANCH   5  10
HETATM   10  O1  UNL     1      -4.311  -6.930  27.110  1.00  0.00    -0.354 OA
HETATM   11  C1  UNL     1      -5.065  -5.877  26.589  1.00  0.00     0.210 C 
ENDBRANCH   5  10
ENDBRANCH   1   3
BRANCH   1  12
HETATM   12  N2  UNL     1       0.298  -5.906  30.341  1.00  0.00    -0.299 N 
HETATM   13  C5  UNL     1       1.204  -5.556  31.180  1.00  0.00     0.102 C 
HETATM   14  C6  UNL     1       1.159  -4.567  32.289  1.00  0.00     0.167 C 
HETATM   15  C8  UNL     1       2.553  -6.109  31.202  1.00  0.00     0.272 C 
HETATM   16  C7  UNL     1       2.049  -5.214  33.296  1.00  0.00     0.230 C 
HETATM   17  O2  UNL     1       1.946  -5.183  34.564  1.00  0.00    -0.273 OA
HETATM   18  N3  UNL     1       3.051  -5.881  32.529  1.00  0.00    -0.292 N 
ATOM     19  H3  UNL     1       3.973  -6.153  32.869  1.00  0.00     0.172 HD
HETATM   20  O3  UNL     1       3.152  -6.673  30.246  1.00  0.00    -0.266 OA
ATOM     21  H2  UNL     1       0.536  -6.615  29.647  1.00  0.00     0.186 HD
ENDBRANCH   1  12
TORSDOF 3
ENDMDL
MODEL 5
REMARK VINA RESULT: -6.920940453      2.532      3.246
REMARK  3 active torsions:
REMARK  status: ('A' for Active; 'I' for Inactive)
REMARK    1  A    between atoms: O1_2  and  C2_3 
REMARK    2  A    between atoms: C4_5  and  N1_6 
REMARK    3  A    between atoms: N1_6  and  N2_8 
ROOT
HETATM    1  N1  UNL     1      -0.827  -5.367  30.257  1.00  0.00    -0.300 N 
ATOM      2  H1  UNL     1      -0.959  -4.363  30.133  1.00  0.00     0.187 HD
ENDROOT
BRANCH   1   3
HETATM    3  C4  UNL     1      -1.953  -6.221  30.360  1.00  0.00     0.050 A 
HETATM    4  C3  UNL     1      -2.295  -6.867  31.533  1.00  0.00     0.069 A 
HETATM    5  C2  UNL     1      -3.391  -7.700  31.640  1.00  0.00     0.094 A 
HETATM    6  C11 UNL     1      -4.183  -7.898  30.520  1.00  0.00     0.079 A 
HETATM    7  C10 UNL     1      -3.877  -7.268  29.314  1.00  0.00     0.032 A 
HETATM    8  N4  UNL     1      -5.310  -8.747  30.606  1.00  0.00    -0.100 NA
HETATM    9  C9  UNL     1      -2.780  -6.453  29.266  1.00  0.00     0.033 A 
BRANCH   5  10
HETATM   10  O1  UNL     1      -3.734  -8.342  32.801  1.00  0.00    -0.354 OA
HETATM   11  C1  UNL     1      -4.058  -7.718  34.007  1.00  0.00     0.210 C 
ENDBRANCH   5  10
ENDBRANCH   1   3
BRANCH   1  12
HETATM   12  N2  UNL     1       0.457  -5.894  30.324  1.00  0.00    -0.299 N 
HETATM   13  C5  UNL     1       1.329  -5.549  31.201  1.00  0.00     0.102 C 
HETATM   14  C6  UNL     1       1.239  -4.567  32.314  1.00  0.00     0.167 C 
HETATM   15  C8  UNL     1       2.677  -6.100  31.272  1.00  0.00     0.272 C 
HETATM   16  C7  UNL     1       2.090  -5.219  33.350  1.00  0.00     0.230 C 
HETATM   17  O2  UNL     1       1.937  -5.196  34.613  1.00  0.00    -0.273 OA
HETATM   18  N3  UNL     1       3.122  -5.880  32.619  1.00  0.00    -0.292 N 
ATOM     19  H3  UNL     1       4.030  -6.152  32.994  1.00  0.00     0.172 HD
HETATM   20  O3  UNL     1       3.314  -6.656  30.337  1.00  0.00    -0.266 OA
ATOM     21  H2  UNL     1       0.723  -6.598  29.636  1.00  0.00     0.186 HD
ENDBRANCH   1  12
TORSDOF 3
ENDMDL
