MODEL 1
REMARK VINA RESULT: -7.138274183      0.000      0.000
REMARK  4 active torsions:
REMARK  status: ('A' for Active; 'I' for Inactive)
REMARK    1  A    between atoms: N1_1  and  C1_4 
REMARK    2  A    between atoms: N4_11  and  N5_12 
REMARK    3  A    between atoms: C3_14  and  C4_15 
REMARK    4  A    between atoms: C7_18  and  N6_19 
ROOT
HETATM    1  N5  UNL     1      -2.870  -5.686  30.001  1.00  0.00    -0.286 N 
ATOM      2  H5  UNL     1      -2.618  -6.626  30.306  1.00  0.00     0.187 HD
HETATM    3  C3  UNL     1      -2.093  -4.701  30.247  1.00  0.00     0.119 C 
ENDROOT
BRANCH   1   4
HETATM    4  N4  UNL     1      -4.062  -5.469  29.314  1.00  0.00    -0.030 N 
HETATM    5  C1  UNL     1      -4.325  -5.772  28.034  1.00  0.00     0.716 A 
HETATM    6  N2  UNL     1      -5.592  -5.385  27.808  1.00  0.00    -0.127 N 
HETATM    7  N3  UNL     1      -6.111  -4.861  28.894  1.00  0.00    -0.235 N 
ATOM      8  H2  UNL     1      -6.081  -5.484  26.919  1.00  0.00     0.206 HD
HETATM    9  C2  UNL     1      -5.153  -4.909  29.853  1.00  0.00     0.375 A 
ATOM     10  H3  UNL     1      -7.054  -4.489  28.997  1.00  0.00     0.192 HD
HETATM   11  O1  UNL     1      -5.248  -4.508  31.034  1.00  0.00    -0.243 OA
BRANCH   5  12
HETATM   12  N1  UNL     1      -3.509  -6.320  27.214  1.00  0.00    -0.231 N 
ATOM     13  H12 UNL     1      -3.699  -7.150  26.652  1.00  0.00     0.174 HD
ATOM     14  H11 UNL     1      -2.557  -6.032  26.986  1.00  0.00     0.174 HD
ENDBRANCH   5  12
ENDBRANCH   1   4
BRANCH   3  15
HETATM   15  C4  UNL     1      -0.853  -4.929  30.961  1.00  0.00    -0.019 A 
HETATM   16  C5  UNL     1      -0.585  -6.134  31.594  1.00  0.00     0.015 A 
HETATM   17  C6  UNL     1       0.585  -6.324  32.257  1.00  0.00     0.037 A 
HETATM   18  C7  UNL     1       1.569  -5.360  32.351  1.00  0.00     0.102 A 
HETATM   19  C8  UNL     1       1.295  -4.165  31.719  1.00  0.00     0.037 A 
HETATM   20  C9  UNL     1       0.116  -3.947  31.039  1.00  0.00     0.015 A 
BRANCH  18  21
HETATM   21  N6  UNL     1       2.778  -5.603  33.055  1.00  0.00    -0.116 N 
HETATM   22  O2  UNL     1       3.790  -6.013  32.491  1.00  0.00    -0.532 OA
HETATM   23  O3  UNL     1       2.826  -5.375  34.406  1.00  0.00    -0.532 OA
ENDBRANCH  18  21
ENDBRANCH   3  15
TORSDOF 4
ENDMDL
MODEL 2
REMARK VINA RESULT: -7.127860192      0.022      1.107
REMARK  4 active torsions:
REMARK  status: ('A' for Active; 'I' for Inactive)
REMARK    1  A    between atoms: N1_1  and  C1_4 
REMARK    2  A    between atoms: N4_11  and  N5_12 
REMARK    3  A    between atoms: C3_14  and  C4_15 
REMARK    4  A    between atoms: C7_18  and  N6_19 
ROOT
HETATM    1  N5  UNL     1      -2.872  -5.683  30.002  1.00  0.00    -0.286 N 
ATOM      2  H5  UNL     1      -2.627  -6.622  30.315  1.00  0.00     0.187 HD
HETATM    3  C3  UNL     1      -2.088  -4.702  30.240  1.00  0.00     0.119 C 
ENDROOT
BRANCH   1   4
HETATM    4  N4  UNL     1      -4.062  -5.463  29.313  1.00  0.00    -0.030 N 
HETATM    5  C1  UNL     1      -4.323  -5.769  28.032  1.00  0.00     0.716 A 
HETATM    6  N2  UNL     1      -5.589  -5.377  27.804  1.00  0.00    -0.127 N 
HETATM    7  N3  UNL     1      -6.107  -4.848  28.887  1.00  0.00    -0.235 N 
ATOM      8  H2  UNL     1      -6.077  -5.477  26.914  1.00  0.00     0.206 HD
HETATM    9  C2  UNL     1      -5.151  -4.897  29.848  1.00  0.00     0.375 A 
ATOM     10  H3  UNL     1      -7.049  -4.472  28.988  1.00  0.00     0.192 HD
HETATM   11  O1  UNL     1      -5.245  -4.492  31.027  1.00  0.00    -0.243 OA
BRANCH   5  12
HETATM   12  N1  UNL     1      -3.509  -6.323  27.215  1.00  0.00    -0.231 N 
ATOM     13  H12 UNL     1      -2.519  -6.096  27.116  1.00  0.00     0.174 HD
ATOM     14  H11 UNL     1      -3.701  -7.065  26.542  1.00  0.00     0.174 HD
ENDBRANCH   5  12
ENDBRANCH   1   4
BRANCH   3  15
HETATM   15  C4  UNL     1      -0.850  -4.934  30.958  1.00  0.00    -0.019 A 
HETATM   16  C5  UNL     1       0.144  -3.969  31.030  1.00  0.00     0.015 A 
HETATM   17  C6  UNL     1       1.296  -4.210  31.709  1.00  0.00     0.037 A 
HETATM   18  C7  UNL     1       1.559  -5.398  32.360  1.00  0.00     0.102 A 
HETATM   19  C8  UNL     1       0.566  -6.352  32.283  1.00  0.00     0.037 A 
HETATM   20  C9  UNL     1      -0.612  -6.134  31.601  1.00  0.00     0.015 A 
BRANCH  18  21
HETATM   21  N6  UNL     1       2.778  -5.606  33.058  1.00  0.00    -0.116 N 
HETATM   22  O2  UNL     1       3.794  -6.004  32.492  1.00  0.00    -0.532 OA
HETATM   23  O3  UNL     1       2.832  -5.357  34.405  1.00  0.00    -0.532 OA
ENDBRANCH  18  21
ENDBRANCH   3  15
TORSDOF 4
ENDMDL
MODEL 3
REMARK VINA RESULT: -7.087402684      4.055      6.316
REMARK  4 active torsions:
REMARK  status: ('A' for Active; 'I' for Inactive)
REMARK    1  A    between atoms: N1_1  and  C1_4 
REMARK    2  A    between atoms: N4_11  and  N5_12 
REMARK    3  A    between atoms: C3_14  and  C4_15 
REMARK    4  A    between atoms: C7_18  and  N6_19 
ROOT
HETATM    1  N5  UNL     1       1.772  -5.740  33.394  1.00  0.00    -0.286 N 
ATOM      2  H5  UNL     1       1.982  -4.829  33.800  1.00  0.00     0.187 HD
HETATM    3  C3  UNL     1       2.323  -6.794  33.862  1.00  0.00     0.119 C 
ENDROOT
BRANCH   1   4
HETATM    4  N4  UNL     1       0.883  -5.843  32.327  1.00  0.00    -0.030 N 
HETATM    5  C1  UNL     1      -0.412  -6.190  32.383  1.00  0.00     0.716 A 
HETATM    6  N2  UNL     1      -0.866  -6.154  31.118  1.00  0.00    -0.127 N 
HETATM    7  N3  UNL     1       0.095  -5.801  30.297  1.00  0.00    -0.235 N 
ATOM      8  H2  UNL     1      -1.822  -6.371  30.837  1.00  0.00     0.206 HD
HETATM    9  C2  UNL     1       1.205  -5.602  31.049  1.00  0.00     0.375 A 
ATOM     10  H3  UNL     1       0.020  -5.696  29.286  1.00  0.00     0.192 HD
HETATM   11  O1  UNL     1       2.337  -5.256  30.646  1.00  0.00    -0.243 OA
BRANCH   5  12
HETATM   12  N1  UNL     1      -1.059  -6.490  33.446  1.00  0.00    -0.231 N 
ATOM     13  H12 UNL     1      -0.647  -6.688  34.358  1.00  0.00     0.174 HD
ATOM     14  H11 UNL     1      -2.069  -6.580  33.563  1.00  0.00     0.174 HD
ENDBRANCH   5  12
ENDBRANCH   1   4
BRANCH   3  15
HETATM   15  C4  UNL     1       3.247  -6.685  34.973  1.00  0.00    -0.019 A 
HETATM   16  C5  UNL     1       3.662  -5.454  35.460  1.00  0.00     0.015 A 
HETATM   17  C6  UNL     1       4.529  -5.378  36.503  1.00  0.00     0.037 A 
HETATM   18  C7  UNL     1       5.050  -6.486  37.139  1.00  0.00     0.102 A 
HETATM   19  C8  UNL     1       4.633  -7.706  36.649  1.00  0.00     0.037 A 
HETATM   20  C9  UNL     1       3.754  -7.812  35.593  1.00  0.00     0.015 A 
BRANCH  18  21
HETATM   21  N6  UNL     1       5.955  -6.359  38.226  1.00  0.00    -0.116 N 
HETATM   22  O2  UNL     1       5.688  -5.688  39.222  1.00  0.00    -0.532 OA
HETATM   23  O3  UNL     1       7.165  -7.000  38.172  1.00  0.00    -0.532 OA
ENDBRANCH  18  21
ENDBRANCH   3  15
TORSDOF 4
ENDMDL
MODEL 4
REMARK VINA RESULT: -7.052814946      1.081      1.245
REMARK  4 active torsions:
REMARK  status: ('A' for Active; 'I' for Inactive)
REMARK    1  A    between atoms: N1_1  and  C1_4 
REMARK    2  A    between atoms: N4_11  and  N5_12 
REMARK    3  A    between atoms: C3_14  and  C4_15 
REMARK    4  A    between atoms: C7_18  and  N6_19 
ROOT
HETATM    1  N5  UNL     1      -2.202  -6.098  30.272  1.00  0.00    -0.286 N 
ATOM      2  H5  UNL     1      -2.070  -7.029  30.668  1.00  0.00     0.187 HD
HETATM    3  C3  UNL     1      -1.407  -5.148  30.586  1.00  0.00     0.119 C 
ENDROOT
BRANCH   1   4
HETATM    4  N4  UNL     1      -3.250  -5.856  29.388  1.00  0.00    -0.030 N 
HETATM    5  C1  UNL     1      -3.290  -6.154  28.080  1.00  0.00     0.716 A 
HETATM    6  N2  UNL     1      -4.490  -5.740  27.637  1.00  0.00    -0.127 N 
HETATM    7  N3  UNL     1      -5.179  -5.204  28.617  1.00  0.00    -0.235 N 
ATOM      8  H2  UNL     1      -4.817  -5.829  26.675  1.00  0.00     0.206 HD
HETATM    9  C2  UNL     1      -4.406  -5.271  29.728  1.00  0.00     0.375 A 
ATOM     10  H3  UNL     1      -6.118  -4.811  28.554  1.00  0.00     0.192 HD
HETATM   11  O1  UNL     1      -4.697  -4.867  30.876  1.00  0.00    -0.243 OA
BRANCH   5  12
HETATM   12  N1  UNL     1      -2.356  -6.721  27.415  1.00  0.00    -0.231 N 
ATOM     13  H12 UNL     1      -1.940  -6.368  26.553  1.00  0.00     0.174 HD
ATOM     14  H11 UNL     1      -1.878  -7.598  27.623  1.00  0.00     0.174 HD
ENDBRANCH   5  12
ENDBRANCH   1   4
BRANCH   3  15
HETATM   15  C4  UNL     1      -0.316  -5.402  31.507  1.00  0.00    -0.019 A 
HETATM   16  C5  UNL     1      -0.528  -5.985  32.747  1.00  0.00     0.015 A 
HETATM   17  C6  UNL     1       0.510  -6.214  33.593  1.00  0.00     0.037 A 
HETATM   18  C7  UNL     1       1.818  -5.893  33.292  1.00  0.00     0.102 A 
HETATM   19  C8  UNL     1       2.021  -5.314  32.056  1.00  0.00     0.037 A 
HETATM   20  C9  UNL     1       0.985  -5.071  31.180  1.00  0.00     0.015 A 
BRANCH  18  21
HETATM   21  N6  UNL     1       2.874  -6.150  34.207  1.00  0.00    -0.116 N 
HETATM   22  O2  UNL     1       3.750  -5.320  34.442  1.00  0.00    -0.532 OA
HETATM   23  O3  UNL     1       2.924  -7.359  34.851  1.00  0.00    -0.532 OA
ENDBRANCH  18  21
ENDBRANCH   3  15
TORSDOF 4
ENDMDL
MODEL 5
REMARK VINA RESULT: -7.024155012      1.088      1.551
REMARK  4 active torsions:
REMARK  status: ('A' for Active; 'I' for Inactive)
REMARK    1  A    between atoms: N1_1  and  C1_4 
REMARK    2  A    between atoms: N4_11  and  N5_12 
REMARK    3  A    between atoms: C3_14  and  C4_15 
REMARK    4  A    between atoms: C7_18  and  N6_19 
ROOT
HETATM    1  N5  UNL     1      -2.212  -6.079  30.298  1.00  0.00    -0.286 N 
ATOM      2  H5  UNL     1      -2.117  -6.995  30.737  1.00  0.00     0.187 HD
HETATM    3  C3  UNL     1      -1.379  -5.148  30.568  1.00  0.00     0.119 C 
ENDROOT
BRANCH   1   4
HETATM    4  N4  UNL     1      -3.250  -5.837  29.402  1.00  0.00    -0.030 N 
HETATM    5  C1  UNL     1      -3.276  -6.137  28.094  1.00  0.00     0.716 A 
HETATM    6  N2  UNL     1      -4.470  -5.721  27.637  1.00  0.00    -0.127 N 
HETATM    7  N3  UNL     1      -5.169  -5.183  28.608  1.00  0.00    -0.235 N 
ATOM      8  H2  UNL     1      -4.786  -5.812  26.672  1.00  0.00     0.206 HD
HETATM    9  C2  UNL     1      -4.409  -5.250  29.728  1.00  0.00     0.375 A 
ATOM     10  H3  UNL     1      -6.107  -4.789  28.534  1.00  0.00     0.192 HD
HETATM   11  O1  UNL     1      -4.712  -4.843  30.871  1.00  0.00    -0.243 OA
BRANCH   5  12
HETATM   12  N1  UNL     1      -2.335  -6.707  27.440  1.00  0.00    -0.231 N 
ATOM     13  H12 UNL     1      -2.247  -7.709  27.276  1.00  0.00     0.174 HD
ATOM     14  H11 UNL     1      -1.534  -6.271  26.983  1.00  0.00     0.174 HD
ENDBRANCH   5  12
ENDBRANCH   1   4
BRANCH   3  15
HETATM   15  C4  UNL     1      -0.300  -5.403  31.502  1.00  0.00    -0.019 A 
HETATM   16  C5  UNL     1       1.021  -5.117  31.188  1.00  0.00     0.015 A 
HETATM   17  C6  UNL     1       2.015  -5.365  32.080  1.00  0.00     0.037 A 
HETATM   18  C7  UNL     1       1.795  -5.904  33.331  1.00  0.00     0.102 A 
HETATM   19  C8  UNL     1       0.479  -6.185  33.636  1.00  0.00     0.037 A 
HETATM   20  C9  UNL     1      -0.548  -5.943  32.749  1.00  0.00     0.015 A 
BRANCH  18  21
HETATM   21  N6  UNL     1       2.865  -6.146  34.232  1.00  0.00    -0.116 N 
HETATM   22  O2  UNL     1       3.764  -5.325  34.412  1.00  0.00    -0.532 OA
HETATM   23  O3  UNL     1       2.906  -7.327  34.926  1.00  0.00    -0.532 OA
ENDBRANCH  18  21
ENDBRANCH   3  15
TORSDOF 4
ENDMDL
