MODEL 1
REMARK VINA RESULT: -7.009014217      0.000      0.000
REMARK  5 active torsions:
REMARK  status: ('A' for Active; 'I' for Inactive)
REMARK    1  A    between atoms: O1_2  and  N1_3 
REMARK    2  A    between atoms: C2_5  and  C3_6 
REMARK    3  A    between atoms: C4_7  and  N2_8 
REMARK    4  A    between atoms: N2_8  and  C5_10 
REMARK    5  A    between atoms: C10_16  and  N4_17 
ROOT
HETATM    1  C3  UNL     1       1.475  -6.086  32.810  1.00  0.00     0.094 A 
HETATM    2  C4  UNL     1       0.175  -5.687  32.446  1.00  0.00     0.137 A 
HETATM    3  N3  UNL     1       0.045  -4.784  31.468  1.00  0.00    -0.172 N 
HETATM    4  C9  UNL     1      -1.213  -4.235  30.996  1.00  0.00     0.177 C 
HETATM    5  C10 UNL     1       1.139  -4.255  30.824  1.00  0.00     0.682 A 
HETATM    6  N5  UNL     1       2.393  -4.608  31.139  1.00  0.00    -0.155 N 
ATOM      7  H5  UNL     1       3.200  -4.211  30.658  1.00  0.00     0.187 HD
HETATM    8  C11 UNL     1       2.528  -5.499  32.106  1.00  0.00     0.275 A 
HETATM    9  O2  UNL     1       3.709  -5.847  32.422  1.00  0.00    -0.267 OA
ENDROOT
BRANCH   2  10
HETATM   10  N2  UNL     1      -0.888  -6.244  33.154  1.00  0.00    -0.366 N 
ATOM     11  H2  UNL     1      -0.595  -6.590  34.068  1.00  0.00     0.162 HD
BRANCH  10  12
HETATM   12  C5  UNL     1      -2.277  -6.455  32.929  1.00  0.00     0.028 A 
HETATM   13  C6  UNL     1      -2.656  -7.391  31.764  1.00  0.00     0.038 C 
HETATM   14  C7  UNL     1      -3.378  -5.699  33.546  1.00  0.00     0.033 A 
HETATM   15  C8  UNL     1      -2.998  -6.950  34.229  1.00  0.00     0.033 A 
ENDBRANCH  10  12
ENDBRANCH   2  10
BRANCH   1  16
HETATM   16  C2  UNL     1       1.761  -7.067  33.842  1.00  0.00     0.135 C 
HETATM   17  N1  UNL     1       2.694  -6.774  34.707  1.00  0.00    -0.277 N 
ATOM     18  H1  UNL     1       3.175  -5.878  34.621  1.00  0.00     0.193 HD
BRANCH  17  19
HETATM   19  O1  UNL     1       3.055  -7.615  35.727  1.00  0.00    -0.286 OA
HETATM   20  C1  UNL     1       4.273  -7.463  36.402  1.00  0.00     0.237 C 
ENDBRANCH  17  19
ENDBRANCH   1  16
BRANCH   5  21
HETATM   21  N4  UNL     1       1.005  -3.390  29.880  1.00  0.00    -0.234 N 
ATOM     22  H42 UNL     1       0.938  -2.412  30.163  1.00  0.00     0.174 HD
ATOM     23  H41 UNL     1       0.971  -3.675  28.901  1.00  0.00     0.174 HD
ENDBRANCH   5  21
TORSDOF 5
ENDMDL
MODEL 2
REMARK VINA RESULT: -6.366496852      2.928      3.961
REMARK  5 active torsions:
REMARK  status: ('A' for Active; 'I' for Inactive)
REMARK    1  A    between atoms: O1_2  and  N1_3 
REMARK    2  A    between atoms: C2_5  and  C3_6 
REMARK    3  A    between atoms: C4_7  and  N2_8 
REMARK    4  A    between atoms: N2_8  and  C5_10 
REMARK    5  A    between atoms: C10_16  and  N4_17 
ROOT
HETATM    1  C3  UNL     1      -1.880  -6.092  31.429  1.00  0.00     0.094 A 
HETATM    2  C4  UNL     1      -2.679  -7.162  30.981  1.00  0.00     0.137 A 
HETATM    3  N3  UNL     1      -3.160  -7.108  29.733  1.00  0.00    -0.172 N 
HETATM    4  C9  UNL     1      -4.027  -8.100  29.126  1.00  0.00     0.177 C 
HETATM    5  C10 UNL     1      -2.887  -6.049  28.900  1.00  0.00     0.682 A 
HETATM    6  N5  UNL     1      -2.131  -5.012  29.287  1.00  0.00    -0.155 N 
ATOM      7  H5  UNL     1      -1.933  -4.229  28.664  1.00  0.00     0.187 HD
HETATM    8  C11 UNL     1      -1.655  -5.058  30.519  1.00  0.00     0.275 A 
HETATM    9  O2  UNL     1      -0.935  -4.084  30.907  1.00  0.00    -0.267 OA
ENDROOT
BRANCH   2  10
HETATM   10  N2  UNL     1      -2.935  -8.192  31.884  1.00  0.00    -0.366 N 
ATOM     11  H2  UNL     1      -2.098  -8.738  32.083  1.00  0.00     0.162 HD
BRANCH  10  12
HETATM   12  C5  UNL     1      -4.067  -8.676  32.598  1.00  0.00     0.028 A 
HETATM   13  C6  UNL     1      -4.216 -10.207  32.704  1.00  0.00     0.038 C 
HETATM   14  C7  UNL     1      -5.215  -7.874  33.046  1.00  0.00     0.033 A 
HETATM   15  C8  UNL     1      -4.139  -8.061  34.038  1.00  0.00     0.033 A 
ENDBRANCH  10  12
ENDBRANCH   2  10
BRANCH   1  16
HETATM   16  C2  UNL     1      -1.283  -6.028  32.751  1.00  0.00     0.135 C 
HETATM   17  N1  UNL     1      -0.027  -6.367  32.860  1.00  0.00    -0.277 N 
ATOM     18  H1  UNL     1       0.474  -6.659  32.020  1.00  0.00     0.193 HD
BRANCH  17  19
HETATM   19  O1  UNL     1       0.649  -6.347  34.052  1.00  0.00    -0.286 OA
HETATM   20  C1  UNL     1       1.841  -5.628  34.203  1.00  0.00     0.237 C 
ENDBRANCH  17  19
ENDBRANCH   1  16
BRANCH   5  21
HETATM   21  N4  UNL     1      -3.349  -6.007  27.699  1.00  0.00    -0.234 N 
ATOM     22  H42 UNL     1      -4.363  -6.050  27.599  1.00  0.00     0.174 HD
ATOM     23  H41 UNL     1      -2.726  -5.933  26.895  1.00  0.00     0.174 HD
ENDBRANCH   5  21
TORSDOF 5
ENDMDL
MODEL 3
REMARK VINA RESULT: -6.289733303      2.534      4.699
REMARK  5 active torsions:
REMARK  status: ('A' for Active; 'I' for Inactive)
REMARK    1  A    between atoms: O1_2  and  N1_3 
REMARK    2  A    between atoms: C2_5  and  C3_6 
REMARK    3  A    between atoms: C4_7  and  N2_8 
REMARK    4  A    between atoms: N2_8  and  C5_10 
REMARK    5  A    between atoms: C10_16  and  N4_17 
ROOT
HETATM    1  C3  UNL     1      -0.176  -5.079  31.311  1.00  0.00     0.094 A 
HETATM    2  C4  UNL     1      -0.076  -6.080  32.295  1.00  0.00     0.137 A 
HETATM    3  N3  UNL     1       1.112  -6.271  32.880  1.00  0.00    -0.172 N 
HETATM    4  C9  UNL     1       1.400  -7.279  33.882  1.00  0.00     0.177 C 
HETATM    5  C10 UNL     1       2.211  -5.516  32.543  1.00  0.00     0.682 A 
HETATM    6  N5  UNL     1       2.159  -4.553  31.612  1.00  0.00    -0.155 N 
ATOM      7  H5  UNL     1       2.978  -3.998  31.366  1.00  0.00     0.187 HD
HETATM    8  C11 UNL     1       0.988  -4.362  31.029  1.00  0.00     0.275 A 
HETATM    9  O2  UNL     1       0.916  -3.454  30.142  1.00  0.00    -0.267 OA
ENDROOT
BRANCH   2  10
HETATM   10  N2  UNL     1      -1.222  -6.823  32.572  1.00  0.00    -0.366 N 
ATOM     11  H2  UNL     1      -1.188  -7.747  32.142  1.00  0.00     0.162 HD
BRANCH  10  12
HETATM   12  C5  UNL     1      -2.428  -6.622  33.300  1.00  0.00     0.028 A 
HETATM   13  C6  UNL     1      -2.514  -5.345  34.160  1.00  0.00     0.038 C 
HETATM   14  C7  UNL     1      -3.499  -7.612  33.490  1.00  0.00     0.033 A 
HETATM   15  C8  UNL     1      -3.680  -6.682  32.360  1.00  0.00     0.033 A 
ENDBRANCH  10  12
ENDBRANCH   2  10
BRANCH   1  16
HETATM   16  C2  UNL     1      -1.405  -4.756  30.607  1.00  0.00     0.135 C 
HETATM   17  N1  UNL     1      -1.723  -5.499  29.582  1.00  0.00    -0.277 N 
ATOM     18  H1  UNL     1      -1.101  -6.265  29.323  1.00  0.00     0.193 HD
BRANCH  17  19
HETATM   19  O1  UNL     1      -2.856  -5.295  28.837  1.00  0.00    -0.286 OA
HETATM   20  C1  UNL     1      -3.306  -6.250  27.917  1.00  0.00     0.237 C 
ENDBRANCH  17  19
ENDBRANCH   1  16
BRANCH   5  21
HETATM   21  N4  UNL     1       3.350  -5.702  33.114  1.00  0.00    -0.234 N 
ATOM     22  H42 UNL     1       4.178  -5.473  32.565  1.00  0.00     0.174 HD
ATOM     23  H41 UNL     1       3.412  -6.058  34.068  1.00  0.00     0.174 HD
ENDBRANCH   5  21
TORSDOF 5
ENDMDL
MODEL 4
REMARK VINA RESULT: -6.236788148      2.692      4.833
REMARK  5 active torsions:
REMARK  status: ('A' for Active; 'I' for Inactive)
REMARK    1  A    between atoms: O1_2  and  N1_3 
REMARK    2  A    between atoms: C2_5  and  C3_6 
REMARK    3  A    between atoms: C4_7  and  N2_8 
REMARK    4  A    between atoms: N2_8  and  C5_10 
REMARK    5  A    between atoms: C10_16  and  N4_17 
ROOT
HETATM    1  C3  UNL     1      -1.195  -5.781  32.486  1.00  0.00     0.094 A 
HETATM    2  C4  UNL     1       0.204  -5.751  32.635  1.00  0.00     0.137 A 
HETATM    3  N3  UNL     1       0.911  -4.999  31.784  1.00  0.00    -0.172 N 
HETATM    4  C9  UNL     1       2.357  -4.884  31.770  1.00  0.00     0.177 C 
HETATM    5  C10 UNL     1       0.303  -4.268  30.790  1.00  0.00     0.682 A 
HETATM    6  N5  UNL     1      -1.026  -4.268  30.615  1.00  0.00    -0.155 N 
ATOM      7  H5  UNL     1      -1.470  -3.724  29.875  1.00  0.00     0.187 HD
HETATM    8  C11 UNL     1      -1.729  -5.011  31.452  1.00  0.00     0.275 A 
HETATM    9  O2  UNL     1      -2.992  -5.026  31.302  1.00  0.00    -0.267 OA
ENDROOT
BRANCH   2  10
HETATM   10  N2  UNL     1       0.757  -6.532  33.648  1.00  0.00    -0.366 N 
ATOM     11  H2  UNL     1       0.188  -6.516  34.493  1.00  0.00     0.162 HD
BRANCH  10  12
HETATM   12  C5  UNL     1       1.914  -7.347  33.804  1.00  0.00     0.028 A 
HETATM   13  C6  UNL     1       2.375  -8.140  32.565  1.00  0.00     0.038 C 
HETATM   14  C7  UNL     1       2.572  -7.679  35.077  1.00  0.00     0.033 A 
HETATM   15  C8  UNL     1       3.125  -6.519  34.354  1.00  0.00     0.033 A 
ENDBRANCH  10  12
ENDBRANCH   2  10
BRANCH   1  16
HETATM   16  C2  UNL     1      -2.084  -6.541  33.347  1.00  0.00     0.135 C 
HETATM   17  N1  UNL     1      -2.856  -7.428  32.781  1.00  0.00    -0.277 N 
ATOM     18  H1  UNL     1      -2.800  -7.547  31.769  1.00  0.00     0.193 HD
BRANCH  17  19
HETATM   19  O1  UNL     1      -3.737  -8.207  33.484  1.00  0.00    -0.286 OA
HETATM   20  C1  UNL     1      -4.353  -9.321  32.901  1.00  0.00     0.237 C 
ENDBRANCH  17  19
ENDBRANCH   1  16
BRANCH   5  21
HETATM   21  N4  UNL     1       0.990  -3.542  29.978  1.00  0.00    -0.234 N 
ATOM     22  H42 UNL     1       1.748  -4.009  29.480  1.00  0.00     0.174 HD
ATOM     23  H41 UNL     1       0.780  -2.553  29.845  1.00  0.00     0.174 HD
ENDBRANCH   5  21
TORSDOF 5
ENDMDL
MODEL 5
REMARK VINA RESULT: -6.191773893      3.074      5.496
REMARK  5 active torsions:
REMARK  status: ('A' for Active; 'I' for Inactive)
REMARK    1  A    between atoms: O1_2  and  N1_3 
REMARK    2  A    between atoms: C2_5  and  C3_6 
REMARK    3  A    between atoms: C4_7  and  N2_8 
REMARK    4  A    between atoms: N2_8  and  C5_10 
REMARK    5  A    between atoms: C10_16  and  N4_17 
ROOT
HETATM    1  C3  UNL     1      -1.936  -6.226  31.826  1.00  0.00     0.094 A 
HETATM    2  C4  UNL     1      -3.181  -6.663  31.334  1.00  0.00     0.137 A 
HETATM    3  N3  UNL     1      -4.036  -7.225  32.197  1.00  0.00    -0.172 N 
HETATM    4  C9  UNL     1      -5.339  -7.762  31.854  1.00  0.00     0.177 C 
HETATM    5  C10 UNL     1      -3.723  -7.376  33.528  1.00  0.00     0.682 A 
HETATM    6  N5  UNL     1      -2.550  -6.975  34.036  1.00  0.00    -0.155 N 
ATOM      7  H5  UNL     1      -2.324  -7.090  35.024  1.00  0.00     0.187 HD
HETATM    8  C11 UNL     1      -1.701  -6.420  33.188  1.00  0.00     0.275 A 
HETATM    9  O2  UNL     1      -0.581  -6.032  33.650  1.00  0.00    -0.267 OA
ENDROOT
BRANCH   2  10
HETATM   10  N2  UNL     1      -3.424  -6.500  29.972  1.00  0.00    -0.366 N 
ATOM     11  H2  UNL     1      -3.805  -5.578  29.762  1.00  0.00     0.162 HD
BRANCH  10  12
HETATM   12  C5  UNL     1      -3.278  -7.292  28.799  1.00  0.00     0.028 A 
HETATM   13  C6  UNL     1      -3.656  -8.782  28.917  1.00  0.00     0.038 C 
HETATM   14  C7  UNL     1      -2.595  -6.886  27.561  1.00  0.00     0.033 A 
HETATM   15  C8  UNL     1      -4.053  -6.669  27.588  1.00  0.00     0.033 A 
ENDBRANCH  10  12
ENDBRANCH   2  10
BRANCH   1  16
HETATM   16  C2  UNL     1      -0.922  -5.587  31.007  1.00  0.00     0.135 C 
HETATM   17  N1  UNL     1      -0.553  -4.380  31.341  1.00  0.00    -0.277 N 
ATOM     18  H1  UNL     1      -0.988  -3.945  32.154  1.00  0.00     0.193 HD
BRANCH  17  19
HETATM   19  O1  UNL     1       0.394  -3.672  30.648  1.00  0.00    -0.286 OA
HETATM   20  C1  UNL     1       1.744  -4.042  30.671  1.00  0.00     0.237 C 
ENDBRANCH  17  19
ENDBRANCH   1  16
BRANCH   5  21
HETATM   21  N4  UNL     1      -4.553  -7.914  34.352  1.00  0.00    -0.234 N 
ATOM     22  H42 UNL     1      -5.369  -8.371  33.945  1.00  0.00     0.174 HD
ATOM     23  H41 UNL     1      -4.395  -7.882  35.359  1.00  0.00     0.174 HD
ENDBRANCH   5  21
TORSDOF 5
ENDMDL
