MODEL 1
REMARK VINA RESULT: -7.858564040      0.000      0.000
REMARK  4 active torsions:
REMARK  status: ('A' for Active; 'I' for Inactive)
REMARK       I    between atoms: C1_4  and  N3_6 
REMARK    1  A    between atoms: N3_6  and  N4_7 
REMARK    2  A    between atoms: N3_6  and  N5_11 
REMARK    3  A    between atoms: N4_7  and  O1_9 
REMARK    4  A    between atoms: C2_13  and  C3_14 
ROOT
HETATM    1  N5  UNL     1      -1.963  -6.179  29.655  1.00  0.00    -0.286 N 
ATOM      2  H5  UNL     1      -1.402  -7.029  29.597  1.00  0.00     0.188 HD
HETATM    3  C2  UNL     1      -1.569  -5.188  30.385  1.00  0.00     0.120 C 
ENDROOT
BRANCH   3   4
HETATM    4  C3  UNL     1      -0.318  -5.282  31.133  1.00  0.00    -0.017 A 
HETATM    5  C4  UNL     1       0.790  -4.551  30.690  1.00  0.00     0.015 A 
HETATM    6  C5  UNL     1       1.982  -4.638  31.400  1.00  0.00     0.033 A 
HETATM    7  C6  UNL     1       2.079  -5.431  32.526  1.00  0.00     0.068 A 
HETATM    8  C7  UNL     1       0.979  -6.144  32.949  1.00  0.00     0.097 A 
HETATM    9  N6  UNL     1       3.275  -5.552  33.285  1.00  0.00    -0.323 N 
HETATM   10  C8  UNL     1      -0.236  -6.083  32.264  1.00  0.00     0.052 A 
HETATM   11  O2  UNL     1       1.056  -6.944  34.074  1.00  0.00    -0.340 OA
HETATM   12  C9  UNL     1       2.302  -7.463  34.526  1.00  0.00     0.278 C 
HETATM   13  C10 UNL     1       3.319  -6.383  34.438  1.00  0.00     0.246 C 
HETATM   14  O3  UNL     1       4.194  -6.209  35.352  1.00  0.00    -0.271 OA
ATOM     15  H6  UNL     1       4.108  -5.038  33.000  1.00  0.00     0.169 HD
ENDBRANCH   3   4
BRANCH   1  16
HETATM   16  N3  UNL     1      -3.158  -6.077  28.947  1.00  0.00    -0.146 N 
HETATM   17  C1  UNL     1      -4.364  -5.948  29.683  1.00  0.00     0.225 C 
HETATM   18  N1  UNL     1      -4.748  -4.794  30.063  1.00  0.00    -0.371 N 
HETATM   19  N2  UNL     1      -5.115  -7.108  29.980  1.00  0.00    -0.060 NA
ATOM     20  H12 UNL     1      -5.615  -4.702  30.592  1.00  0.00     0.158 HD
ATOM     21  H11 UNL     1      -4.205  -3.957  29.849  1.00  0.00     0.158 HD
BRANCH  16  22
HETATM   22  N4  UNL     1      -3.120  -6.107  27.544  1.00  0.00    -0.186 N 
ATOM     23  H4  UNL     1      -3.772  -5.528  27.015  1.00  0.00     0.218 HD
BRANCH  22  24
HETATM   24  O1  UNL     1      -2.294  -6.835  26.922  1.00  0.00    -0.273 OA
ATOM     25  H1  UNL     1      -2.156  -6.740  25.987  1.00  0.00     0.246 HD
ENDBRANCH  22  24
ENDBRANCH  16  22
ENDBRANCH   1  16
TORSDOF 4
ENDMDL
MODEL 2
REMARK VINA RESULT: -7.602004461      2.280      7.234
REMARK  4 active torsions:
REMARK  status: ('A' for Active; 'I' for Inactive)
REMARK       I    between atoms: C1_4  and  N3_6 
REMARK    1  A    between atoms: N3_6  and  N4_7 
REMARK    2  A    between atoms: N3_6  and  N5_11 
REMARK    3  A    between atoms: N4_7  and  O1_9 
REMARK    4  A    between atoms: C2_13  and  C3_14 
ROOT
HETATM    1  N5  UNL     1       1.228  -7.123  32.613  1.00  0.00    -0.286 N 
ATOM      2  H5  UNL     1       0.625  -7.940  32.719  1.00  0.00     0.188 HD
HETATM    3  C2  UNL     1       0.734  -5.998  32.212  1.00  0.00     0.120 C 
ENDROOT
BRANCH   3   4
HETATM    4  C3  UNL     1      -0.691  -5.891  31.908  1.00  0.00    -0.017 A 
HETATM    5  C4  UNL     1      -1.607  -5.865  32.966  1.00  0.00     0.015 A 
HETATM    6  C5  UNL     1      -2.963  -5.762  32.680  1.00  0.00     0.033 A 
HETATM    7  C6  UNL     1      -3.408  -5.687  31.376  1.00  0.00     0.068 A 
HETATM    8  C7  UNL     1      -2.494  -5.715  30.346  1.00  0.00     0.097 A 
HETATM    9  N6  UNL     1      -4.784  -5.582  31.033  1.00  0.00    -0.323 N 
HETATM   10  C8  UNL     1      -1.123  -5.816  30.591  1.00  0.00     0.052 A 
HETATM   11  O2  UNL     1      -2.919  -5.641  29.032  1.00  0.00    -0.340 OA
HETATM   12  C9  UNL     1      -4.236  -6.036  28.660  1.00  0.00     0.278 C 
HETATM   13  C10 UNL     1      -5.188  -5.507  29.672  1.00  0.00     0.246 C 
HETATM   14  O3  UNL     1      -6.315  -5.010  29.338  1.00  0.00    -0.271 OA
ATOM     15  H6  UNL     1      -5.488  -5.559  31.771  1.00  0.00     0.169 HD
ENDBRANCH   3   4
BRANCH   1  16
HETATM   16  N3  UNL     1       2.588  -7.213  32.898  1.00  0.00    -0.146 N 
HETATM   17  C1  UNL     1       3.029  -6.819  34.188  1.00  0.00     0.225 C 
HETATM   18  N1  UNL     1       2.999  -7.659  35.145  1.00  0.00    -0.371 N 
HETATM   19  N2  UNL     1       3.493  -5.498  34.382  1.00  0.00    -0.060 NA
ATOM     20  H12 UNL     1       3.316  -7.376  36.072  1.00  0.00     0.158 HD
ATOM     21  H11 UNL     1       2.664  -8.612  35.005  1.00  0.00     0.158 HD
BRANCH  16  22
HETATM   22  N4  UNL     1       3.460  -7.684  31.905  1.00  0.00    -0.186 N 
ATOM     23  H4  UNL     1       3.826  -8.633  31.972  1.00  0.00     0.218 HD
BRANCH  22  24
HETATM   24  O1  UNL     1       3.801  -6.957  30.927  1.00  0.00    -0.273 OA
ATOM     25  H1  UNL     1       4.568  -7.157  30.405  1.00  0.00     0.246 HD
ENDBRANCH  22  24
ENDBRANCH  16  22
ENDBRANCH   1  16
TORSDOF 4
ENDMDL
MODEL 3
REMARK VINA RESULT: -7.458627815      1.359      1.828
REMARK  4 active torsions:
REMARK  status: ('A' for Active; 'I' for Inactive)
REMARK       I    between atoms: C1_4  and  N3_6 
REMARK    1  A    between atoms: N3_6  and  N4_7 
REMARK    2  A    between atoms: N3_6  and  N5_11 
REMARK    3  A    between atoms: N4_7  and  O1_9 
REMARK    4  A    between atoms: C2_13  and  C3_14 
ROOT
HETATM    1  N5  UNL     1      -1.883  -6.510  29.193  1.00  0.00    -0.286 N 
ATOM      2  H5  UNL     1      -1.022  -6.886  28.796  1.00  0.00     0.188 HD
HETATM    3  C2  UNL     1      -1.860  -5.895  30.330  1.00  0.00     0.120 C 
ENDROOT
BRANCH   3   4
HETATM    4  C3  UNL     1      -0.600  -5.736  31.051  1.00  0.00    -0.017 A 
HETATM    5  C4  UNL     1       0.360  -4.851  30.548  1.00  0.00     0.015 A 
HETATM    6  C5  UNL     1       1.559  -4.697  31.233  1.00  0.00     0.033 A 
HETATM    7  C6  UNL     1       1.808  -5.404  32.392  1.00  0.00     0.068 A 
HETATM    8  C7  UNL     1       0.853  -6.271  32.874  1.00  0.00     0.097 A 
HETATM    9  N6  UNL     1       3.019  -5.281  33.127  1.00  0.00    -0.323 N 
HETATM   10  C8  UNL     1      -0.365  -6.453  32.216  1.00  0.00     0.052 A 
HETATM   11  O2  UNL     1       1.084  -6.988  34.034  1.00  0.00    -0.340 OA
HETATM   12  C9  UNL     1       2.407  -7.264  34.480  1.00  0.00     0.278 C 
HETATM   13  C10 UNL     1       3.223  -6.033  34.316  1.00  0.00     0.246 C 
HETATM   14  O3  UNL     1       4.069  -5.665  35.200  1.00  0.00    -0.271 OA
ATOM     15  H6  UNL     1       3.748  -4.648  32.798  1.00  0.00     0.169 HD
ENDBRANCH   3   4
BRANCH   1  16
HETATM   16  N3  UNL     1      -3.091  -6.655  28.516  1.00  0.00    -0.146 N 
HETATM   17  C1  UNL     1      -3.269  -7.804  27.703  1.00  0.00     0.225 C 
HETATM   18  N1  UNL     1      -3.688  -8.886  28.227  1.00  0.00    -0.371 N 
HETATM   19  N2  UNL     1      -2.976  -7.721  26.322  1.00  0.00    -0.060 NA
ATOM     20  H12 UNL     1      -3.816  -9.712  27.642  1.00  0.00     0.158 HD
ATOM     21  H11 UNL     1      -3.899  -8.947  29.223  1.00  0.00     0.158 HD
BRANCH  16  22
HETATM   22  N4  UNL     1      -4.075  -5.666  28.664  1.00  0.00    -0.186 N 
ATOM     23  H4  UNL     1      -4.053  -5.060  29.484  1.00  0.00     0.218 HD
BRANCH  22  24
HETATM   24  O1  UNL     1      -4.988  -5.509  27.803  1.00  0.00    -0.273 OA
ATOM     25  H1  UNL     1      -5.325  -6.239  27.299  1.00  0.00     0.246 HD
ENDBRANCH  22  24
ENDBRANCH  16  22
ENDBRANCH   1  16
TORSDOF 4
ENDMDL
MODEL 4
REMARK VINA RESULT: -7.439261660      1.472      1.928
REMARK  4 active torsions:
REMARK  status: ('A' for Active; 'I' for Inactive)
REMARK       I    between atoms: C1_4  and  N3_6 
REMARK    1  A    between atoms: N3_6  and  N4_7 
REMARK    2  A    between atoms: N3_6  and  N5_11 
REMARK    3  A    between atoms: N4_7  and  O1_9 
REMARK    4  A    between atoms: C2_13  and  C3_14 
ROOT
HETATM    1  N5  UNL     1      -2.946  -5.756  30.758  1.00  0.00    -0.286 N 
ATOM      2  H5  UNL     1      -2.790  -6.505  31.432  1.00  0.00     0.188 HD
HETATM    3  C2  UNL     1      -2.003  -4.914  30.491  1.00  0.00     0.120 C 
ENDROOT
BRANCH   3   4
HETATM    4  C3  UNL     1      -0.707  -5.031  31.156  1.00  0.00    -0.017 A 
HETATM    5  C4  UNL     1       0.361  -4.254  30.695  1.00  0.00     0.015 A 
HETATM    6  C5  UNL     1       1.594  -4.363  31.327  1.00  0.00     0.033 A 
HETATM    7  C6  UNL     1       1.771  -5.223  32.392  1.00  0.00     0.068 A 
HETATM    8  C7  UNL     1       0.709  -5.981  32.833  1.00  0.00     0.097 A 
HETATM    9  N6  UNL     1       3.012  -5.369  33.069  1.00  0.00    -0.323 N 
HETATM   10  C8  UNL     1      -0.546  -5.900  32.226  1.00  0.00     0.052 A 
HETATM   11  O2  UNL     1       0.866  -6.849  33.898  1.00  0.00    -0.340 OA
HETATM   12  C9  UNL     1       2.145  -7.372  34.241  1.00  0.00     0.278 C 
HETATM   13  C10 UNL     1       3.139  -6.270  34.162  1.00  0.00     0.246 C 
HETATM   14  O3  UNL     1       4.065  -6.137  35.031  1.00  0.00    -0.271 OA
ATOM     15  H6  UNL     1       3.819  -4.823  32.768  1.00  0.00     0.169 HD
ENDBRANCH   3   4
BRANCH   1  16
HETATM   16  N3  UNL     1      -4.177  -5.633  30.117  1.00  0.00    -0.146 N 
HETATM   17  C1  UNL     1      -4.400  -6.397  28.943  1.00  0.00     0.225 C 
HETATM   18  N1  UNL     1      -4.822  -7.595  29.043  1.00  0.00    -0.371 N 
HETATM   19  N2  UNL     1      -4.149  -5.808  27.682  1.00  0.00    -0.060 NA
ATOM     20  H12 UNL     1      -4.982  -8.143  28.198  1.00  0.00     0.158 HD
ATOM     21  H11 UNL     1      -5.003  -8.019  29.952  1.00  0.00     0.158 HD
BRANCH  16  22
HETATM   22  N4  UNL     1      -5.138  -4.765  30.657  1.00  0.00    -0.186 N 
ATOM     23  H4  UNL     1      -5.785  -5.113  31.364  1.00  0.00     0.218 HD
BRANCH  22  24
HETATM   24  O1  UNL     1      -5.220  -3.558  30.285  1.00  0.00    -0.273 OA
ATOM     25  H1  UNL     1      -5.988  -3.033  30.472  1.00  0.00     0.246 HD
ENDBRANCH  22  24
ENDBRANCH  16  22
ENDBRANCH   1  16
TORSDOF 4
ENDMDL
MODEL 5
REMARK VINA RESULT: -7.343132665      2.273      3.362
REMARK  4 active torsions:
REMARK  status: ('A' for Active; 'I' for Inactive)
REMARK       I    between atoms: C1_4  and  N3_6 
REMARK    1  A    between atoms: N3_6  and  N4_7 
REMARK    2  A    between atoms: N3_6  and  N5_11 
REMARK    3  A    between atoms: N4_7  and  O1_9 
REMARK    4  A    between atoms: C2_13  and  C3_14 
ROOT
HETATM    1  N5  UNL     1      -3.388  -7.094  28.199  1.00  0.00    -0.286 N 
ATOM      2  H5  UNL     1      -2.823  -7.921  28.397  1.00  0.00     0.188 HD
HETATM    3  C2  UNL     1      -3.384  -6.093  29.017  1.00  0.00     0.120 C 
ENDROOT
BRANCH   3   4
HETATM    4  C3  UNL     1      -2.570  -6.141  30.229  1.00  0.00    -0.017 A 
HETATM    5  C4  UNL     1      -3.176  -6.508  31.435  1.00  0.00     0.015 A 
HETATM    6  C5  UNL     1      -2.403  -6.555  32.590  1.00  0.00     0.033 A 
HETATM    7  C6  UNL     1      -1.058  -6.247  32.555  1.00  0.00     0.068 A 
HETATM    8  C7  UNL     1      -0.477  -5.887  31.359  1.00  0.00     0.097 A 
HETATM    9  N6  UNL     1      -0.228  -6.280  33.708  1.00  0.00    -0.323 N 
HETATM   10  C8  UNL     1      -1.218  -5.828  30.177  1.00  0.00     0.052 A 
HETATM   11  O2  UNL     1       0.868  -5.574  31.303  1.00  0.00    -0.340 OA
HETATM   12  C9  UNL     1       1.569  -5.120  32.457  1.00  0.00     0.278 C 
HETATM   13  C10 UNL     1       1.153  -5.953  33.616  1.00  0.00     0.246 C 
HETATM   14  O3  UNL     1       1.993  -6.356  34.489  1.00  0.00    -0.271 OA
ATOM     15  H6  UNL     1      -0.626  -6.542  34.610  1.00  0.00     0.169 HD
ENDBRANCH   3   4
BRANCH   1  16
HETATM   16  N3  UNL     1      -4.169  -7.036  27.047  1.00  0.00    -0.146 N 
HETATM   17  C1  UNL     1      -4.565  -8.258  26.445  1.00  0.00     0.225 C 
HETATM   18  N1  UNL     1      -5.613  -8.852  26.858  1.00  0.00    -0.371 N 
HETATM   19  N2  UNL     1      -3.784  -8.790  25.393  1.00  0.00    -0.060 NA
ATOM     20  H12 UNL     1      -5.898  -9.730  26.424  1.00  0.00     0.158 HD
ATOM     21  H11 UNL     1      -6.177  -8.468  27.617  1.00  0.00     0.158 HD
BRANCH  16  22
HETATM   22  N4  UNL     1      -4.529  -5.781  26.535  1.00  0.00    -0.186 N 
ATOM     23  H4  UNL     1      -4.564  -4.977  27.162  1.00  0.00     0.218 HD
BRANCH  22  24
HETATM   24  O1  UNL     1      -4.810  -5.623  25.311  1.00  0.00    -0.273 OA
ATOM     25  H1  UNL     1      -5.524  -5.062  25.036  1.00  0.00     0.246 HD
ENDBRANCH  22  24
ENDBRANCH  16  22
ENDBRANCH   1  16
TORSDOF 4
ENDMDL
