MODEL 1
REMARK VINA RESULT: -7.559445443      0.000      0.000
REMARK  3 active torsions:
REMARK  status: ('A' for Active; 'I' for Inactive)
REMARK    1  A    between atoms: C4_11  and  N4_12 
REMARK    2  A    between atoms: N5_14  and  C5_16 
REMARK    3  A    between atoms: N6_21  and  O3_22 
ROOT
HETATM    1  N4  UNL     1      -0.463  -5.302  31.196  1.00  0.00    -0.291 N 
ATOM      2  H4  UNL     1      -0.638  -4.392  30.769  1.00  0.00     0.187 HD
HETATM    3  N5  UNL     1      -1.226  -6.289  30.982  1.00  0.00    -0.283 N 
ATOM      4  H5  UNL     1      -1.038  -7.194  31.415  1.00  0.00     0.188 HD
ENDROOT
BRANCH   1   5
HETATM    5  C4  UNL     1       0.648  -5.515  32.054  1.00  0.00     0.158 A 
HETATM    6  C1  UNL     1       1.932  -5.258  31.656  1.00  0.00     0.154 A 
HETATM    7  N1  UNL     1       2.190  -4.762  30.345  1.00  0.00    -0.080 NA
HETATM    8  N2  UNL     1       2.943  -5.481  32.518  1.00  0.00    -0.295 N 
HETATM    9  C2  UNL     1       2.762  -5.945  33.759  1.00  0.00     0.328 A 
ATOM     10  H2  UNL     1       3.895  -5.285  32.208  1.00  0.00     0.172 HD
HETATM   11  O1  UNL     1       3.704  -6.156  34.573  1.00  0.00    -0.247 OA
HETATM   12  N3  UNL     1       1.510  -6.203  34.168  1.00  0.00    -0.273 N 
HETATM   13  C3  UNL     1       0.469  -5.998  33.346  1.00  0.00     0.281 A 
ATOM     14  H3  UNL     1       1.349  -6.558  35.111  1.00  0.00     0.173 HD
HETATM   15  O2  UNL     1      -0.694  -6.245  33.747  1.00  0.00    -0.265 OA
ENDBRANCH   1   5
BRANCH   3  16
HETATM   16  C5  UNL     1      -2.342  -6.116  30.134  1.00  0.00     0.146 A 
HETATM   17  C6  UNL     1      -2.260  -6.476  28.807  1.00  0.00     0.052 A 
HETATM   18  C7  UNL     1      -3.345  -6.309  27.974  1.00  0.00     0.005 A 
HETATM   19  C8  UNL     1      -4.521  -5.778  28.474  1.00  0.00     0.020 A 
HETATM   20  C9  UNL     1      -4.559  -5.431  29.808  1.00  0.00     0.125 A 
HETATM   21  N6  UNL     1      -3.490  -5.600  30.611  1.00  0.00    -0.218 N 
BRANCH  21  22
HETATM   22  O3  UNL     1      -3.611  -5.224  31.949  1.00  0.00    -0.282 OA
ATOM     23  H3  UNL     1      -4.243  -5.644  32.522  1.00  0.00     0.245 HD
ENDBRANCH  21  22
ENDBRANCH   3  16
TORSDOF 3
ENDMDL
MODEL 2
REMARK VINA RESULT: -7.544054643      1.304      1.961
REMARK  3 active torsions:
REMARK  status: ('A' for Active; 'I' for Inactive)
REMARK    1  A    between atoms: C4_11  and  N4_12 
REMARK    2  A    between atoms: N5_14  and  C5_16 
REMARK    3  A    between atoms: N6_21  and  O3_22 
ROOT
HETATM    1  N4  UNL     1      -0.844  -5.173  31.047  1.00  0.00    -0.291 N 
ATOM      2  H4  UNL     1      -1.146  -4.244  30.755  1.00  0.00     0.187 HD
HETATM    3  N5  UNL     1      -1.450  -6.216  30.664  1.00  0.00    -0.283 N 
ATOM      4  H5  UNL     1      -1.136  -7.139  30.964  1.00  0.00     0.188 HD
ENDROOT
BRANCH   1   5
HETATM    5  C4  UNL     1       0.277  -5.352  31.900  1.00  0.00     0.158 A 
HETATM    6  C1  UNL     1       0.152  -5.856  33.167  1.00  0.00     0.154 A 
HETATM    7  N1  UNL     1      -1.132  -6.217  33.670  1.00  0.00    -0.080 NA
HETATM    8  N2  UNL     1       1.254  -6.002  33.926  1.00  0.00    -0.295 N 
HETATM    9  C2  UNL     1       2.483  -5.680  33.508  1.00  0.00     0.328 A 
ATOM     10  H2  UNL     1       1.146  -6.379  34.869  1.00  0.00     0.172 HD
HETATM   11  O1  UNL     1       3.521  -5.814  34.214  1.00  0.00    -0.247 OA
HETATM   12  N3  UNL     1       2.627  -5.185  32.270  1.00  0.00    -0.273 N 
HETATM   13  C3  UNL     1       1.559  -5.020  31.473  1.00  0.00     0.281 A 
ATOM     14  H3  UNL     1       3.555  -4.933  31.930  1.00  0.00     0.173 HD
HETATM   15  O2  UNL     1       1.714  -4.556  30.318  1.00  0.00    -0.265 OA
ENDBRANCH   1   5
BRANCH   3  16
HETATM   16  C5  UNL     1      -2.571  -6.079  29.815  1.00  0.00     0.146 A 
HETATM   17  C6  UNL     1      -2.494  -6.493  28.503  1.00  0.00     0.052 A 
HETATM   18  C7  UNL     1      -3.584  -6.360  27.669  1.00  0.00     0.005 A 
HETATM   19  C8  UNL     1      -4.757  -5.810  28.152  1.00  0.00     0.020 A 
HETATM   20  C9  UNL     1      -4.790  -5.409  29.471  1.00  0.00     0.125 A 
HETATM   21  N6  UNL     1      -3.717  -5.544  30.276  1.00  0.00    -0.218 N 
BRANCH  21  22
HETATM   22  O3  UNL     1      -3.833  -5.114  31.598  1.00  0.00    -0.282 OA
ATOM     23  H3  UNL     1      -3.997  -4.201  31.805  1.00  0.00     0.245 HD
ENDBRANCH  21  22
ENDBRANCH   3  16
TORSDOF 3
ENDMDL
MODEL 3
REMARK VINA RESULT: -7.504955565      2.167      6.808
REMARK  3 active torsions:
REMARK  status: ('A' for Active; 'I' for Inactive)
REMARK    1  A    between atoms: C4_11  and  N4_12 
REMARK    2  A    between atoms: N5_14  and  C5_16 
REMARK    3  A    between atoms: N6_21  and  O3_22 
ROOT
HETATM    1  N4  UNL     1       0.151  -6.565  33.298  1.00  0.00    -0.291 N 
ATOM      2  H4  UNL     1       0.054  -7.390  33.890  1.00  0.00     0.187 HD
HETATM    3  N5  UNL     1       1.191  -5.845  33.334  1.00  0.00    -0.283 N 
ATOM      4  H5  UNL     1       1.275  -5.023  32.736  1.00  0.00     0.188 HD
ENDROOT
BRANCH   1   5
HETATM    5  C4  UNL     1      -0.875  -6.175  32.397  1.00  0.00     0.158 A 
HETATM    6  C1  UNL     1      -2.169  -5.996  32.805  1.00  0.00     0.154 A 
HETATM    7  N1  UNL     1      -2.525  -6.203  34.170  1.00  0.00    -0.080 NA
HETATM    8  N2  UNL     1      -3.097  -5.625  31.902  1.00  0.00    -0.295 N 
HETATM    9  C2  UNL     1      -2.822  -5.416  30.609  1.00  0.00     0.328 A 
ATOM     10  H2  UNL     1      -4.058  -5.495  32.220  1.00  0.00     0.172 HD
HETATM   11  O1  UNL     1      -3.685  -5.068  29.757  1.00  0.00    -0.247 OA
HETATM   12  N3  UNL     1      -1.559  -5.586  30.190  1.00  0.00    -0.273 N 
HETATM   13  C3  UNL     1      -0.598  -5.956  31.052  1.00  0.00     0.281 A 
ATOM     14  H3  UNL     1      -1.327  -5.433  29.208  1.00  0.00     0.173 HD
HETATM   15  O2  UNL     1       0.577  -6.110  30.640  1.00  0.00    -0.265 OA
ENDBRANCH   1   5
BRANCH   3  16
HETATM   16  C5  UNL     1       2.234  -6.200  34.218  1.00  0.00     0.146 A 
HETATM   17  C6  UNL     1       2.794  -5.247  35.041  1.00  0.00     0.052 A 
HETATM   18  C7  UNL     1       3.813  -5.588  35.905  1.00  0.00     0.005 A 
HETATM   19  C8  UNL     1       4.274  -6.891  35.944  1.00  0.00     0.020 A 
HETATM   20  C9  UNL     1       3.686  -7.812  35.104  1.00  0.00     0.125 A 
HETATM   21  N6  UNL     1       2.691  -7.466  34.264  1.00  0.00    -0.218 N 
BRANCH  21  22
HETATM   22  O3  UNL     1       2.150  -8.459  33.446  1.00  0.00    -0.282 OA
ATOM     23  H3  UNL     1       2.364  -9.375  33.579  1.00  0.00     0.245 HD
ENDBRANCH  21  22
ENDBRANCH   3  16
TORSDOF 3
ENDMDL
MODEL 4
REMARK VINA RESULT: -7.393282762      1.950      6.618
REMARK  3 active torsions:
REMARK  status: ('A' for Active; 'I' for Inactive)
REMARK    1  A    between atoms: C4_11  and  N4_12 
REMARK    2  A    between atoms: N5_14  and  C5_16 
REMARK    3  A    between atoms: N6_21  and  O3_22 
ROOT
HETATM    1  N4  UNL     1       0.391  -6.538  33.459  1.00  0.00    -0.291 N 
ATOM      2  H4  UNL     1       0.294  -7.398  33.996  1.00  0.00     0.187 HD
HETATM    3  N5  UNL     1       1.418  -5.805  33.565  1.00  0.00    -0.283 N 
ATOM      4  H5  UNL     1       1.501  -4.946  33.021  1.00  0.00     0.188 HD
ENDROOT
BRANCH   1   5
HETATM    5  C4  UNL     1      -0.619  -6.109  32.558  1.00  0.00     0.158 A 
HETATM    6  C1  UNL     1      -0.361  -5.879  31.234  1.00  0.00     0.154 A 
HETATM    7  N1  UNL     1       0.954  -6.066  30.718  1.00  0.00    -0.080 NA
HETATM    8  N2  UNL     1      -1.363  -5.475  30.430  1.00  0.00    -0.295 N 
HETATM    9  C2  UNL     1      -2.616  -5.283  30.858  1.00  0.00     0.328 A 
ATOM     10  H2  UNL     1      -1.157  -5.307  29.445  1.00  0.00     0.172 HD
HETATM   11  O1  UNL     1      -3.561  -4.905  30.111  1.00  0.00    -0.247 OA
HETATM   12  N3  UNL     1      -2.890  -5.503  32.153  1.00  0.00    -0.273 N 
HETATM   13  C3  UNL     1      -1.925  -5.907  32.994  1.00  0.00     0.281 A 
ATOM     14  H3  UNL     1      -3.839  -5.363  32.500  1.00  0.00     0.173 HD
HETATM   15  O2  UNL     1      -2.201  -6.108  34.201  1.00  0.00    -0.265 OA
ENDBRANCH   1   5
BRANCH   3  16
HETATM   16  C5  UNL     1       2.445  -6.197  34.452  1.00  0.00     0.146 A 
HETATM   17  C6  UNL     1       3.103  -5.249  35.205  1.00  0.00     0.052 A 
HETATM   18  C7  UNL     1       4.108  -5.626  36.071  1.00  0.00     0.005 A 
HETATM   19  C8  UNL     1       4.454  -6.960  36.183  1.00  0.00     0.020 A 
HETATM   20  C9  UNL     1       3.770  -7.875  35.411  1.00  0.00     0.125 A 
HETATM   21  N6  UNL     1       2.790  -7.493  34.568  1.00  0.00    -0.218 N 
BRANCH  21  22
HETATM   22  O3  UNL     1       2.147  -8.481  33.822  1.00  0.00    -0.282 OA
ATOM     23  H3  UNL     1       1.635  -9.161  34.245  1.00  0.00     0.245 HD
ENDBRANCH  21  22
ENDBRANCH   3  16
TORSDOF 3
ENDMDL
MODEL 5
REMARK VINA RESULT: -7.143883144      1.968      2.662
REMARK  3 active torsions:
REMARK  status: ('A' for Active; 'I' for Inactive)
REMARK    1  A    between atoms: C4_11  and  N4_12 
REMARK    2  A    between atoms: N5_14  and  C5_16 
REMARK    3  A    between atoms: N6_21  and  O3_22 
ROOT
HETATM    1  N4  UNL     1      -1.439  -4.930  31.093  1.00  0.00    -0.291 N 
ATOM      2  H4  UNL     1      -2.013  -4.102  31.250  1.00  0.00     0.187 HD
HETATM    3  N5  UNL     1      -1.785  -5.826  30.269  1.00  0.00    -0.283 N 
ATOM      4  H5  UNL     1      -1.201  -6.649  30.121  1.00  0.00     0.188 HD
ENDROOT
BRANCH   1   5
HETATM    5  C4  UNL     1      -0.218  -5.127  31.789  1.00  0.00     0.158 A 
HETATM    6  C1  UNL     1      -0.156  -5.833  32.961  1.00  0.00     0.154 A 
HETATM    7  N1  UNL     1      -1.340  -6.395  33.521  1.00  0.00    -0.080 NA
HETATM    8  N2  UNL     1       1.034  -5.986  33.573  1.00  0.00    -0.295 N 
HETATM    9  C2  UNL     1       2.177  -5.481  33.095  1.00  0.00     0.328 A 
ATOM     10  H2  UNL     1       1.065  -6.514  34.446  1.00  0.00     0.172 HD
HETATM   11  O1  UNL     1       3.296  -5.620  33.662  1.00  0.00    -0.247 OA
HETATM   12  N3  UNL     1       2.138  -4.787  31.947  1.00  0.00    -0.273 N 
HETATM   13  C3  UNL     1       0.976  -4.606  31.299  1.00  0.00     0.281 A 
ATOM     14  H3  UNL     1       2.997  -4.393  31.565  1.00  0.00     0.173 HD
HETATM   15  O2  UNL     1       0.960  -3.954  30.228  1.00  0.00    -0.265 OA
ENDBRANCH   1   5
BRANCH   3  16
HETATM   16  C5  UNL     1      -2.994  -5.665  29.557  1.00  0.00     0.146 A 
HETATM   17  C6  UNL     1      -4.092  -5.115  30.181  1.00  0.00     0.052 A 
HETATM   18  C7  UNL     1      -5.276  -4.957  29.492  1.00  0.00     0.005 A 
HETATM   19  C8  UNL     1      -5.359  -5.353  28.169  1.00  0.00     0.020 A 
HETATM   20  C9  UNL     1      -4.237  -5.899  27.584  1.00  0.00     0.125 A 
HETATM   21  N6  UNL     1      -3.086  -6.048  28.269  1.00  0.00    -0.218 N 
BRANCH  21  22
HETATM   22  O3  UNL     1      -1.996  -6.609  27.604  1.00  0.00    -0.282 OA
ATOM     23  H3  UNL     1      -1.978  -6.671  26.656  1.00  0.00     0.245 HD
ENDBRANCH  21  22
ENDBRANCH   3  16
TORSDOF 3
ENDMDL
