MODEL 1
REMARK VINA RESULT: -7.280257865      0.000      0.000
REMARK  9 active torsions:
REMARK  status: ('A' for Active; 'I' for Inactive)
REMARK    1  A    between atoms: O1_2  and  C2_3 
REMARK    2  A    between atoms: C3_4  and  O2_5 
REMARK    3  A    between atoms: C4_7  and  C5_8 
REMARK    4  A    between atoms: C12_19  and  C13_20 
REMARK    5  A    between atoms: C13_20  and  N3_21 
REMARK    6  A    between atoms: C13_20  and  N5_25 
REMARK    7  A    between atoms: N5_25  and  C15_27 
REMARK    8  A    between atoms: C15_27  and  N6_28 
REMARK    9  A    between atoms: C15_27  and  O3_32 
ROOT
HETATM    1  C2  UNL     1      42.227  15.043  -0.521  1.00  0.00     0.118 A 
HETATM    2  C3  UNL     1      41.903  14.003   0.368  1.00  0.00     0.127 A 
HETATM    3  C4  UNL     1      40.698  13.338   0.316  1.00  0.00     0.069 A 
HETATM    4  N2  UNL     1      39.829  13.726  -0.631  1.00  0.00    -0.363 N 
ATOM      5  H2  UNL     1      38.926  13.254  -0.697  1.00  0.00     0.165 HD
HETATM    6  C11 UNL     1      40.110  14.721  -1.498  1.00  0.00     0.106 A 
HETATM    7  C12 UNL     1      41.334  15.413  -1.462  1.00  0.00     0.059 A 
ENDROOT
BRANCH   7   8
HETATM    8  C13 UNL     1      41.527  16.402  -2.300  1.00  0.00     0.119 C 
BRANCH   8   9
HETATM    9  N3  UNL     1      41.384  17.733  -1.903  1.00  0.00    -0.340 N 
HETATM   10  C14 UNL     1      42.267  18.649  -2.031  1.00  0.00     0.191 C 
HETATM   11  N4  UNL     1      42.024  19.969  -1.598  1.00  0.00    -0.097 NA
ATOM     12  H3  UNL     1      40.498  17.998  -1.474  1.00  0.00     0.167 HD
ENDBRANCH   8   9
BRANCH   8  13
HETATM   13  N5  UNL     1      41.900  16.148  -3.669  1.00  0.00    -0.327 N 
ATOM     14  H5  UNL     1      42.840  15.800  -3.859  1.00  0.00     0.165 HD
BRANCH  13  15
HETATM   15  C15 UNL     1      41.022  16.358  -4.769  1.00  0.00     0.425 C 
BRANCH  15  16
HETATM   16  N6  UNL     1      40.145  15.193  -4.963  1.00  0.00    -0.035 N 
ATOM     17  H63 UNL     1      40.489  14.581  -5.703  1.00  0.00     0.279 HD
ATOM     18  H62 UNL     1      40.205  14.540  -4.182  1.00  0.00     0.279 HD
ATOM     19  H61 UNL     1      39.184  15.490  -5.134  1.00  0.00     0.279 HD
ENDBRANCH  15  16
BRANCH  15  20
HETATM   20  O3  UNL     1      40.184  17.447  -4.612  1.00  0.00    -0.355 OA
ATOM     21  H3  UNL     1      40.638  18.281  -4.618  1.00  0.00     0.213 HD
ENDBRANCH  15  20
ENDBRANCH  13  15
ENDBRANCH   8  13
ENDBRANCH   7   8
BRANCH   1  22
HETATM   22  O1  UNL     1      43.461  15.645  -0.393  1.00  0.00    -0.352 OA
HETATM   23  C1  UNL     1      43.616  16.600   0.675  1.00  0.00     0.210 C 
ENDBRANCH   1  22
BRANCH   2  24
HETATM   24  O2  UNL     1      42.808  13.624   1.332  1.00  0.00    -0.356 OA
ATOM     25  H2  UNL     1      43.142  12.735   1.341  1.00  0.00     0.218 HD
ENDBRANCH   2  24
BRANCH   3  26
HETATM   26  C5  UNL     1      40.400  12.360   1.156  1.00  0.00     0.045 C 
HETATM   27  C6  UNL     1      40.226  10.986   0.765  1.00  0.00    -0.018 A 
HETATM   28  C7  UNL     1      39.205  10.568  -0.049  1.00  0.00     0.014 A 
HETATM   29  C10 UNL     1      41.116  10.036   1.219  1.00  0.00     0.099 A 
HETATM   30  C8  UNL     1      39.131   9.225  -0.363  1.00  0.00     0.018 A 
HETATM   31  C9  UNL     1      40.050   8.327   0.121  1.00  0.00     0.087 A 
HETATM   32  N1  UNL     1      41.037   8.733   0.910  1.00  0.00    -0.374 N 
ATOM     33  H1  UNL     1      41.721   8.069   1.272  1.00  0.00     0.164 HD
ENDBRANCH   3  26
TORSDOF 9
ENDMDL
MODEL 2
REMARK VINA RESULT: -7.062542944      2.300      7.194
REMARK  9 active torsions:
REMARK  status: ('A' for Active; 'I' for Inactive)
REMARK    1  A    between atoms: O1_2  and  C2_3 
REMARK    2  A    between atoms: C3_4  and  O2_5 
REMARK    3  A    between atoms: C4_7  and  C5_8 
REMARK    4  A    between atoms: C12_19  and  C13_20 
REMARK    5  A    between atoms: C13_20  and  N3_21 
REMARK    6  A    between atoms: C13_20  and  N5_25 
REMARK    7  A    between atoms: N5_25  and  C15_27 
REMARK    8  A    between atoms: C15_27  and  N6_28 
REMARK    9  A    between atoms: C15_27  and  O3_32 
ROOT
HETATM    1  C2  UNL     1      41.332  13.529  -0.118  1.00  0.00     0.118 A 
HETATM    2  C3  UNL     1      41.318  14.931  -0.218  1.00  0.00     0.127 A 
HETATM    3  C4  UNL     1      40.832  15.585  -1.329  1.00  0.00     0.069 A 
HETATM    4  N2  UNL     1      40.364  14.822  -2.329  1.00  0.00    -0.363 N 
ATOM      5  H2  UNL     1      39.998  15.275  -3.167  1.00  0.00     0.165 HD
HETATM    6  C11 UNL     1      40.365  13.475  -2.264  1.00  0.00     0.106 A 
HETATM    7  C12 UNL     1      40.857  12.786  -1.140  1.00  0.00     0.059 A 
ENDROOT
BRANCH   7   8
HETATM    8  C13 UNL     1      40.874  11.476  -1.158  1.00  0.00     0.119 C 
BRANCH   8   9
HETATM    9  N3  UNL     1      39.717  10.733  -1.397  1.00  0.00    -0.340 N 
HETATM   10  C14 UNL     1      38.672  10.720  -0.660  1.00  0.00     0.191 C 
HETATM   11  N4  UNL     1      37.549   9.934  -0.991  1.00  0.00    -0.097 NA
ATOM     12  H3  UNL     1      39.703  10.150  -2.234  1.00  0.00     0.167 HD
ENDBRANCH   8   9
BRANCH   8  13
HETATM   13  N5  UNL     1      42.100  10.751  -0.934  1.00  0.00    -0.327 N 
ATOM     14  H5  UNL     1      42.955  11.097  -1.371  1.00  0.00     0.165 HD
BRANCH  13  15
HETATM   15  C15 UNL     1      42.177   9.577  -0.133  1.00  0.00     0.425 C 
BRANCH  15  16
HETATM   16  N6  UNL     1      41.696   9.846   1.230  1.00  0.00    -0.035 N 
ATOM     17  H63 UNL     1      41.791  10.831   1.477  1.00  0.00     0.279 HD
ATOM     18  H62 UNL     1      40.681   9.768   1.296  1.00  0.00     0.279 HD
ATOM     19  H61 UNL     1      42.166   9.241   1.904  1.00  0.00     0.279 HD
ENDBRANCH  15  16
BRANCH  15  20
HETATM   20  O3  UNL     1      41.413   8.527  -0.610  1.00  0.00    -0.355 OA
ATOM     21  H3  UNL     1      41.461   7.746  -0.073  1.00  0.00     0.213 HD
ENDBRANCH  15  20
ENDBRANCH  13  15
ENDBRANCH   8  13
ENDBRANCH   7   8
BRANCH   1  22
HETATM   22  O1  UNL     1      41.833  12.965   1.037  1.00  0.00    -0.352 OA
HETATM   23  C1  UNL     1      43.256  13.059   1.246  1.00  0.00     0.210 C 
ENDBRANCH   1  22
BRANCH   2  24
HETATM   24  O2  UNL     1      41.805  15.692   0.819  1.00  0.00    -0.356 OA
ATOM     25  H2  UNL     1      41.240  16.329   1.241  1.00  0.00     0.218 HD
ENDBRANCH   2  24
BRANCH   3  26
HETATM   26  C5  UNL     1      40.822  16.905  -1.415  1.00  0.00     0.045 C 
HETATM   27  C6  UNL     1      41.354  17.644  -2.530  1.00  0.00    -0.018 A 
HETATM   28  C7  UNL     1      42.689  17.654  -2.846  1.00  0.00     0.014 A 
HETATM   29  C10 UNL     1      40.500  18.377  -3.325  1.00  0.00     0.099 A 
HETATM   30  C8  UNL     1      43.093  18.397  -3.939  1.00  0.00     0.018 A 
HETATM   31  C9  UNL     1      42.191  19.107  -4.692  1.00  0.00     0.087 A 
HETATM   32  N1  UNL     1      40.900  19.097  -4.385  1.00  0.00    -0.374 N 
ATOM     33  H1  UNL     1      40.227  19.623  -4.941  1.00  0.00     0.164 HD
ENDBRANCH   3  26
TORSDOF 9
ENDMDL
MODEL 3
REMARK VINA RESULT: -7.001207687      1.720      2.416
REMARK  9 active torsions:
REMARK  status: ('A' for Active; 'I' for Inactive)
REMARK    1  A    between atoms: O1_2  and  C2_3 
REMARK    2  A    between atoms: C3_4  and  O2_5 
REMARK    3  A    between atoms: C4_7  and  C5_8 
REMARK    4  A    between atoms: C12_19  and  C13_20 
REMARK    5  A    between atoms: C13_20  and  N3_21 
REMARK    6  A    between atoms: C13_20  and  N5_25 
REMARK    7  A    between atoms: N5_25  and  C15_27 
REMARK    8  A    between atoms: C15_27  and  N6_28 
REMARK    9  A    between atoms: C15_27  and  O3_32 
ROOT
HETATM    1  C2  UNL     1      41.100  14.357   0.078  1.00  0.00     0.118 A 
HETATM    2  C3  UNL     1      40.538  13.215   0.675  1.00  0.00     0.127 A 
HETATM    3  C4  UNL     1      40.000  12.185  -0.067  1.00  0.00     0.069 A 
HETATM    4  N2  UNL     1      40.032  12.316  -1.403  1.00  0.00    -0.363 N 
ATOM      5  H2  UNL     1      39.641  11.572  -1.981  1.00  0.00     0.165 HD
HETATM    6  C11 UNL     1      40.564  13.400  -2.004  1.00  0.00     0.106 A 
HETATM    7  C12 UNL     1      41.118  14.462  -1.267  1.00  0.00     0.059 A 
ENDROOT
BRANCH   7   8
HETATM    8  C13 UNL     1      41.574  15.509  -1.909  1.00  0.00     0.119 C 
BRANCH   8   9
HETATM    9  N3  UNL     1      42.640  15.408  -2.805  1.00  0.00    -0.340 N 
HETATM   10  C14 UNL     1      43.677  16.156  -2.820  1.00  0.00     0.191 C 
HETATM   11  N4  UNL     1      44.704  15.970  -3.769  1.00  0.00    -0.097 NA
ATOM     12  H3  UNL     1      42.587  14.673  -3.510  1.00  0.00     0.167 HD
ENDBRANCH   8   9
BRANCH   8  13
HETATM   13  N5  UNL     1      40.984  16.810  -1.715  1.00  0.00    -0.327 N 
ATOM     14  H5  UNL     1      41.161  17.296  -0.836  1.00  0.00     0.165 HD
BRANCH  13  15
HETATM   15  C15 UNL     1      40.167  17.449  -2.689  1.00  0.00     0.425 C 
BRANCH  15  16
HETATM   16  N6  UNL     1      40.862  18.607  -3.271  1.00  0.00    -0.035 N 
ATOM     17  H63 UNL     1      40.696  18.683  -4.274  1.00  0.00     0.279 HD
ATOM     18  H62 UNL     1      40.439  19.488  -2.978  1.00  0.00     0.279 HD
ATOM     19  H61 UNL     1      41.858  18.576  -3.054  1.00  0.00     0.279 HD
ENDBRANCH  15  16
BRANCH  15  20
HETATM   20  O3  UNL     1      39.826  16.632  -3.752  1.00  0.00    -0.355 OA
ATOM     21  H3  UNL     1      39.800  17.083  -4.587  1.00  0.00     0.213 HD
ENDBRANCH  15  20
ENDBRANCH  13  15
ENDBRANCH   8  13
ENDBRANCH   7   8
BRANCH   1  22
HETATM   22  O1  UNL     1      41.619  15.332   0.905  1.00  0.00    -0.352 OA
HETATM   23  C1  UNL     1      43.018  15.231   1.238  1.00  0.00     0.210 C 
ENDBRANCH   1  22
BRANCH   2  24
HETATM   24  O2  UNL     1      40.514  13.104   2.046  1.00  0.00    -0.356 OA
ATOM     25  H2  UNL     1      41.140  13.592   2.568  1.00  0.00     0.218 HD
ENDBRANCH   2  24
BRANCH   3  26
HETATM   26  C5  UNL     1      39.472  11.114   0.502  1.00  0.00     0.045 C 
HETATM   27  C6  UNL     1      38.796  10.068  -0.220  1.00  0.00    -0.018 A 
HETATM   28  C7  UNL     1      37.615  10.269  -0.887  1.00  0.00     0.014 A 
HETATM   29  C10 UNL     1      39.346   8.805  -0.254  1.00  0.00     0.099 A 
HETATM   30  C8  UNL     1      37.051   9.196  -1.549  1.00  0.00     0.018 A 
HETATM   31  C9  UNL     1      37.649   7.961  -1.546  1.00  0.00     0.087 A 
HETATM   32  N1  UNL     1      38.792   7.767  -0.899  1.00  0.00    -0.374 N 
ATOM     33  H1  UNL     1      39.239   6.851  -0.894  1.00  0.00     0.164 HD
ENDBRANCH   3  26
TORSDOF 9
ENDMDL
MODEL 4
REMARK VINA RESULT: -7.000974087      2.546      6.944
REMARK  9 active torsions:
REMARK  status: ('A' for Active; 'I' for Inactive)
REMARK    1  A    between atoms: O1_2  and  C2_3 
REMARK    2  A    between atoms: C3_4  and  O2_5 
REMARK    3  A    between atoms: C4_7  and  C5_8 
REMARK    4  A    between atoms: C12_19  and  C13_20 
REMARK    5  A    between atoms: C13_20  and  N3_21 
REMARK    6  A    between atoms: C13_20  and  N5_25 
REMARK    7  A    between atoms: N5_25  and  C15_27 
REMARK    8  A    between atoms: C15_27  and  N6_28 
REMARK    9  A    between atoms: C15_27  and  O3_32 
ROOT
HETATM    1  C2  UNL     1      41.310  13.596   0.093  1.00  0.00     0.118 A 
HETATM    2  C3  UNL     1      41.360  14.992  -0.063  1.00  0.00     0.127 A 
HETATM    3  C4  UNL     1      40.808  15.633  -1.151  1.00  0.00     0.069 A 
HETATM    4  N2  UNL     1      40.210  14.860  -2.073  1.00  0.00    -0.363 N 
ATOM      5  H2  UNL     1      39.791  15.303  -2.891  1.00  0.00     0.165 HD
HETATM    6  C11 UNL     1      40.146  13.519  -1.952  1.00  0.00     0.106 A 
HETATM    7  C12 UNL     1      40.703  12.845  -0.851  1.00  0.00     0.059 A 
ENDROOT
BRANCH   7   8
HETATM    8  C13 UNL     1      40.651  11.536  -0.816  1.00  0.00     0.119 C 
BRANCH   8   9
HETATM    9  N3  UNL     1      41.304  10.754  -1.771  1.00  0.00    -0.340 N 
HETATM   10  C14 UNL     1      42.559  10.761  -2.011  1.00  0.00     0.191 C 
HETATM   11  N4  UNL     1      43.124   9.929  -2.998  1.00  0.00    -0.097 NA
ATOM     12  H3  UNL     1      40.728  10.121  -2.326  1.00  0.00     0.167 HD
ENDBRANCH   8   9
BRANCH   8  13
HETATM   13  N5  UNL     1      39.916  10.853   0.219  1.00  0.00    -0.327 N 
ATOM     14  H5  UNL     1      40.347  10.760   1.139  1.00  0.00     0.165 HD
BRANCH  13  15
HETATM   15  C15 UNL     1      38.618  10.303   0.021  1.00  0.00     0.425 C 
BRANCH  15  16
HETATM   16  N6  UNL     1      37.587  11.192   0.577  1.00  0.00    -0.035 N 
ATOM     17  H63 UNL     1      37.459  11.042   1.578  1.00  0.00     0.279 HD
ATOM     18  H62 UNL     1      37.900  12.163   0.606  1.00  0.00     0.279 HD
ATOM     19  H61 UNL     1      36.711  11.093   0.064  1.00  0.00     0.279 HD
ENDBRANCH  15  16
BRANCH  15  20
HETATM   20  O3  UNL     1      38.290  10.119  -1.310  1.00  0.00    -0.355 OA
ATOM     21  H3  UNL     1      37.561  10.654  -1.600  1.00  0.00     0.213 HD
ENDBRANCH  15  20
ENDBRANCH  13  15
ENDBRANCH   8  13
ENDBRANCH   7   8
BRANCH   1  22
HETATM   22  O1  UNL     1      41.887  13.048   1.219  1.00  0.00    -0.352 OA
HETATM   23  C1  UNL     1      43.293  12.737   1.150  1.00  0.00     0.210 C 
ENDBRANCH   1  22
BRANCH   2  24
HETATM   24  O2  UNL     1      41.980  15.762   0.893  1.00  0.00    -0.356 OA
ATOM     25  H2  UNL     1      41.828  16.700   0.914  1.00  0.00     0.218 HD
ENDBRANCH   2  24
BRANCH   3  26
HETATM   26  C5  UNL     1      40.859  16.947  -1.291  1.00  0.00     0.045 C 
HETATM   27  C6  UNL     1      41.358  17.614  -2.465  1.00  0.00    -0.018 A 
HETATM   28  C7  UNL     1      42.669  17.542  -2.860  1.00  0.00     0.014 A 
HETATM   29  C10 UNL     1      40.494  18.361  -3.236  1.00  0.00     0.099 A 
HETATM   30  C8  UNL     1      43.041  18.221  -4.005  1.00  0.00     0.018 A 
HETATM   31  C9  UNL     1      42.132  18.948  -4.731  1.00  0.00     0.087 A 
HETATM   32  N1  UNL     1      40.863  19.018  -4.346  1.00  0.00    -0.374 N 
ATOM     33  H1  UNL     1      40.185  19.558  -4.883  1.00  0.00     0.164 HD
ENDBRANCH   3  26
TORSDOF 9
ENDMDL
MODEL 5
REMARK VINA RESULT: -6.952574177      1.268      2.295
REMARK  9 active torsions:
REMARK  status: ('A' for Active; 'I' for Inactive)
REMARK    1  A    between atoms: O1_2  and  C2_3 
REMARK    2  A    between atoms: C3_4  and  O2_5 
REMARK    3  A    between atoms: C4_7  and  C5_8 
REMARK    4  A    between atoms: C12_19  and  C13_20 
REMARK    5  A    between atoms: C13_20  and  N3_21 
REMARK    6  A    between atoms: C13_20  and  N5_25 
REMARK    7  A    between atoms: N5_25  and  C15_27 
REMARK    8  A    between atoms: C15_27  and  N6_28 
REMARK    9  A    between atoms: C15_27  and  O3_32 
ROOT
HETATM    1  C2  UNL     1      41.877  15.362  -0.633  1.00  0.00     0.118 A 
HETATM    2  C3  UNL     1      41.711  14.336   0.313  1.00  0.00     0.127 A 
HETATM    3  C4  UNL     1      40.656  13.452   0.265  1.00  0.00     0.069 A 
HETATM    4  N2  UNL     1      39.776  13.610  -0.737  1.00  0.00    -0.363 N 
ATOM      5  H2  UNL     1      38.982  12.971  -0.802  1.00  0.00     0.165 HD
HETATM    6  C11 UNL     1      39.907  14.584  -1.661  1.00  0.00     0.106 A 
HETATM    7  C12 UNL     1      40.976  15.497  -1.629  1.00  0.00     0.059 A 
ENDROOT
BRANCH   7   8
HETATM    8  C13 UNL     1      41.021  16.451  -2.527  1.00  0.00     0.119 C 
BRANCH   8   9
HETATM    9  N3  UNL     1      41.176  16.169  -3.885  1.00  0.00    -0.340 N 
HETATM   10  C14 UNL     1      42.164  15.550  -4.412  1.00  0.00     0.191 C 
HETATM   11  N4  UNL     1      42.226  15.312  -5.800  1.00  0.00    -0.097 NA
ATOM     12  H3  UNL     1      40.437  16.484  -4.513  1.00  0.00     0.167 HD
ENDBRANCH   8   9
BRANCH   8  13
HETATM   13  N5  UNL     1      40.906  17.835  -2.140  1.00  0.00    -0.327 N 
ATOM     14  H5  UNL     1      40.079  18.125  -1.618  1.00  0.00     0.165 HD
BRANCH  13  15
HETATM   15  C15 UNL     1      41.889  18.816  -2.450  1.00  0.00     0.425 C 
BRANCH  15  16
HETATM   16  N6  UNL     1      41.599  19.451  -3.745  1.00  0.00    -0.035 N 
ATOM     17  H63 UNL     1      41.331  18.764  -4.450  1.00  0.00     0.279 HD
ATOM     18  H62 UNL     1      40.733  19.989  -3.717  1.00  0.00     0.279 HD
ATOM     19  H61 UNL     1      42.388  20.020  -4.052  1.00  0.00     0.279 HD
ENDBRANCH  15  16
BRANCH  15  20
HETATM   20  O3  UNL     1      41.961  19.843  -1.526  1.00  0.00    -0.355 OA
ATOM     21  H3  UNL     1      41.123  20.251  -1.343  1.00  0.00     0.213 HD
ENDBRANCH  15  20
ENDBRANCH  13  15
ENDBRANCH   8  13
ENDBRANCH   7   8
BRANCH   1  22
HETATM   22  O1  UNL     1      42.969  16.194  -0.504  1.00  0.00    -0.352 OA
HETATM   23  C1  UNL     1      44.168  15.817  -1.211  1.00  0.00     0.210 C 
ENDBRANCH   1  22
BRANCH   2  24
HETATM   24  O2  UNL     1      42.624  14.197   1.333  1.00  0.00    -0.356 OA
ATOM     25  H2  UNL     1      43.212  13.451   1.339  1.00  0.00     0.218 HD
ENDBRANCH   2  24
BRANCH   3  26
HETATM   26  C5  UNL     1      40.506  12.490   1.160  1.00  0.00     0.045 C 
HETATM   27  C6  UNL     1      40.357  11.097   0.829  1.00  0.00    -0.018 A 
HETATM   28  C7  UNL     1      39.271  10.606   0.151  1.00  0.00     0.014 A 
HETATM   29  C10 UNL     1      41.339  10.205   1.201  1.00  0.00     0.099 A 
HETATM   30  C8  UNL     1      39.228   9.251  -0.116  1.00  0.00     0.018 A 
HETATM   31  C9  UNL     1      40.240   8.413   0.281  1.00  0.00     0.087 A 
HETATM   32  N1  UNL     1      41.291   8.890   0.938  1.00  0.00    -0.374 N 
ATOM     33  H1  UNL     1      42.045   8.271   1.235  1.00  0.00     0.164 HD
ENDBRANCH   3  26
TORSDOF 9
ENDMDL
