MODEL 1
REMARK VINA RESULT: -6.954413881      0.000      0.000
REMARK  6 active torsions:
REMARK  status: ('A' for Active; 'I' for Inactive)
REMARK    1  A    between atoms: C2_3  and  N2_4 
REMARK    2  A    between atoms: C2_3  and  N3_8 
REMARK    3  A    between atoms: C2_3  and  C12_29 
REMARK       I    between atoms: N3_8  and  C3_10 
REMARK    4  A    between atoms: C3_10  and  C4_12 
REMARK    5  A    between atoms: C5_13  and  N4_14 
REMARK    6  A    between atoms: C11_25  and  N7_26 
ROOT
HETATM    1  N1  UNL     1      41.622  19.216  -2.677  1.00  0.00    -0.192 NA
HETATM    2  C1  UNL     1      41.265  18.121  -2.802  1.00  0.00     0.131 C 
HETATM    3  C2  UNL     1      40.809  16.718  -2.937  1.00  0.00     0.364 C 
ENDROOT
BRANCH   3   4
HETATM    4  N2  UNL     1      39.412  16.637  -2.609  1.00  0.00    -0.030 N 
ATOM      5  H23 UNL     1      39.258  16.406  -1.628  1.00  0.00     0.279 HD
ATOM      6  H22 UNL     1      38.961  17.552  -2.615  1.00  0.00     0.279 HD
ATOM      7  H21 UNL     1      38.955  15.977  -3.238  1.00  0.00     0.279 HD
ENDBRANCH   3   4
BRANCH   3   8
HETATM    8  N3  UNL     1      41.656  15.854  -2.133  1.00  0.00    -0.305 N 
HETATM    9  C3  UNL     1      41.623  15.889  -0.729  1.00  0.00     0.262 C 
HETATM   10  O1  UNL     1      40.799  16.760  -0.240  1.00  0.00    -0.267 OA
ATOM     11  H3  UNL     1      42.291  15.206  -2.600  1.00  0.00     0.166 HD
BRANCH   9  12
HETATM   12  C4  UNL     1      42.374  15.102   0.205  1.00  0.00     0.119 A 
HETATM   13  C5  UNL     1      42.079  13.759   0.305  1.00  0.00     0.124 A 
HETATM   14  N5  UNL     1      42.816  12.978   1.141  1.00  0.00    -0.338 N 
HETATM   15  C10 UNL     1      43.820  13.491   1.868  1.00  0.00     0.183 A 
ATOM     16  H5  UNL     1      42.602  11.984   1.217  1.00  0.00     0.168 HD
HETATM   17  N6  UNL     1      44.095  14.793   1.763  1.00  0.00    -0.338 N 
HETATM   18  C11 UNL     1      43.397  15.646   0.939  1.00  0.00     0.119 A 
ATOM     19  H6  UNL     1      44.859  15.173   2.321  1.00  0.00     0.168 HD
BRANCH  13  20
HETATM   20  N4  UNL     1      41.008  13.211  -0.407  1.00  0.00    -0.362 N 
HETATM   21  C6  UNL     1      39.662  13.384   0.167  1.00  0.00     0.150 C 
HETATM   22  C7  UNL     1      39.241  11.935   0.490  1.00  0.00     0.187 C 
HETATM   23  O2  UNL     1      39.227  11.265  -0.718  1.00  0.00    -0.388 OA
HETATM   24  C8  UNL     1      40.455  11.094  -1.308  1.00  0.00     0.187 C 
HETATM   25  C9  UNL     1      41.057  12.474  -1.634  1.00  0.00     0.150 C 
ENDBRANCH  13  20
BRANCH  18  26
HETATM   26  N7  UNL     1      43.773  16.840   0.865  1.00  0.00    -0.385 N 
ATOM     27  H72 UNL     1      43.223  17.486   0.298  1.00  0.00     0.157 HD
ATOM     28  H71 UNL     1      44.566  17.232   1.371  1.00  0.00     0.157 HD
ENDBRANCH  18  26
ENDBRANCH   9  12
ENDBRANCH   3   8
BRANCH   3  29
HETATM   29  C12 UNL     1      40.943  16.414  -4.392  1.00  0.00     0.303 C 
HETATM   30  N8  UNL     1      40.068  15.579  -5.089  1.00  0.00    -0.057 NA
HETATM   31  O3  UNL     1      41.892  16.940  -5.013  1.00  0.00    -0.271 OA
ENDBRANCH   3  29
TORSDOF 6
ENDMDL
MODEL 2
REMARK VINA RESULT: -6.612265126      1.415      2.197
REMARK  6 active torsions:
REMARK  status: ('A' for Active; 'I' for Inactive)
REMARK    1  A    between atoms: C2_3  and  N2_4 
REMARK    2  A    between atoms: C2_3  and  N3_8 
REMARK    3  A    between atoms: C2_3  and  C12_29 
REMARK       I    between atoms: N3_8  and  C3_10 
REMARK    4  A    between atoms: C3_10  and  C4_12 
REMARK    5  A    between atoms: C5_13  and  N4_14 
REMARK    6  A    between atoms: C11_25  and  N7_26 
ROOT
HETATM    1  N1  UNL     1      39.891  14.961  -4.368  1.00  0.00    -0.192 NA
HETATM    2  C1  UNL     1      40.577  15.726  -3.833  1.00  0.00     0.131 C 
HETATM    3  C2  UNL     1      41.471  16.686  -3.142  1.00  0.00     0.364 C 
ENDROOT
BRANCH   3   4
HETATM    4  N2  UNL     1      42.586  16.995  -3.995  1.00  0.00    -0.030 N 
ATOM      5  H23 UNL     1      43.448  16.551  -3.679  1.00  0.00     0.279 HD
ATOM      6  H22 UNL     1      42.514  16.541  -4.905  1.00  0.00     0.279 HD
ATOM      7  H21 UNL     1      42.680  18.007  -4.074  1.00  0.00     0.279 HD
ENDBRANCH   3   4
BRANCH   3   8
HETATM    8  N3  UNL     1      41.848  16.150  -1.846  1.00  0.00    -0.305 N 
HETATM    9  C3  UNL     1      42.780  15.106  -1.722  1.00  0.00     0.262 C 
HETATM   10  O1  UNL     1      43.239  14.670  -2.851  1.00  0.00    -0.267 OA
ATOM     11  H3  UNL     1      41.424  16.541  -1.005  1.00  0.00     0.166 HD
BRANCH   9  12
HETATM   12  C4  UNL     1      43.268  14.478  -0.530  1.00  0.00     0.119 A 
HETATM   13  C5  UNL     1      42.548  13.422  -0.012  1.00  0.00     0.124 A 
HETATM   14  N5  UNL     1      43.021  12.771   1.086  1.00  0.00    -0.338 N 
HETATM   15  C10 UNL     1      44.171  13.138   1.671  1.00  0.00     0.183 A 
ATOM     16  H5  UNL     1      42.492  11.989   1.471  1.00  0.00     0.168 HD
HETATM   17  N6  UNL     1      44.858  14.161   1.160  1.00  0.00    -0.338 N 
HETATM   18  C11 UNL     1      44.447  14.868   0.053  1.00  0.00     0.119 A 
ATOM     19  H6  UNL     1      45.731  14.433   1.613  1.00  0.00     0.168 HD
BRANCH  13  20
HETATM   20  N4  UNL     1      41.324  13.051  -0.577  1.00  0.00    -0.362 N 
HETATM   21  C6  UNL     1      40.111  13.661  -0.005  1.00  0.00     0.150 C 
HETATM   22  C7  UNL     1      39.371  12.446   0.596  1.00  0.00     0.187 C 
HETATM   23  O2  UNL     1      39.100  11.603  -0.464  1.00  0.00    -0.388 OA
HETATM   24  C8  UNL     1      40.200  11.023  -1.048  1.00  0.00     0.187 C 
HETATM   25  C9  UNL     1      41.096  12.124  -1.644  1.00  0.00     0.150 C 
ENDBRANCH  13  20
BRANCH  18  26
HETATM   26  N7  UNL     1      45.195  15.774  -0.385  1.00  0.00    -0.385 N 
ATOM     27  H72 UNL     1      44.791  16.478  -1.004  1.00  0.00     0.157 HD
ATOM     28  H71 UNL     1      46.176  15.891  -0.131  1.00  0.00     0.157 HD
ENDBRANCH  18  26
ENDBRANCH   9  12
ENDBRANCH   3   8
BRANCH   3  29
HETATM   29  C12 UNL     1      40.658  17.929  -3.005  1.00  0.00     0.303 C 
HETATM   30  N8  UNL     1      41.206  19.213  -3.004  1.00  0.00    -0.057 NA
HETATM   31  O3  UNL     1      39.420  17.807  -2.885  1.00  0.00    -0.271 OA
ENDBRANCH   3  29
TORSDOF 6
ENDMDL
MODEL 3
REMARK VINA RESULT: -6.566230935      2.351      4.597
REMARK  6 active torsions:
REMARK  status: ('A' for Active; 'I' for Inactive)
REMARK    1  A    between atoms: C2_3  and  N2_4 
REMARK    2  A    between atoms: C2_3  and  N3_8 
REMARK    3  A    between atoms: C2_3  and  C12_29 
REMARK       I    between atoms: N3_8  and  C3_10 
REMARK    4  A    between atoms: C3_10  and  C4_12 
REMARK    5  A    between atoms: C5_13  and  N4_14 
REMARK    6  A    between atoms: C11_25  and  N7_26 
ROOT
HETATM    1  N1  UNL     1      39.919  14.856  -4.218  1.00  0.00    -0.192 NA
HETATM    2  C1  UNL     1      40.519  15.096  -3.257  1.00  0.00     0.131 C 
HETATM    3  C2  UNL     1      41.295  15.381  -2.027  1.00  0.00     0.364 C 
ENDROOT
BRANCH   3   4
HETATM    4  N2  UNL     1      42.669  15.618  -2.376  1.00  0.00    -0.030 N 
ATOM      5  H23 UNL     1      43.102  16.328  -1.784  1.00  0.00     0.279 HD
ATOM      6  H22 UNL     1      43.273  14.834  -2.127  1.00  0.00     0.279 HD
ATOM      7  H21 UNL     1      42.730  15.853  -3.367  1.00  0.00     0.279 HD
ENDBRANCH   3   4
BRANCH   3   8
HETATM    8  N3  UNL     1      41.106  14.300  -1.075  1.00  0.00    -0.305 N 
HETATM    9  C3  UNL     1      41.581  13.002  -1.327  1.00  0.00     0.262 C 
HETATM   10  O1  UNL     1      42.169  12.868  -2.473  1.00  0.00    -0.267 OA
ATOM     11  H3  UNL     1      40.615  14.489  -0.201  1.00  0.00     0.166 HD
BRANCH   9  12
HETATM   12  C4  UNL     1      41.492  11.838  -0.496  1.00  0.00     0.119 A 
HETATM   13  C5  UNL     1      42.448  11.667   0.484  1.00  0.00     0.124 A 
HETATM   14  N5  UNL     1      42.353  10.600   1.324  1.00  0.00    -0.338 N 
HETATM   15  C10 UNL     1      41.350   9.716   1.216  1.00  0.00     0.183 A 
ATOM     16  H5  UNL     1      43.057  10.471   2.050  1.00  0.00     0.168 HD
HETATM   17  N6  UNL     1      40.432   9.893   0.264  1.00  0.00    -0.338 N 
HETATM   18  C11 UNL     1      40.458  10.946  -0.622  1.00  0.00     0.119 A 
ATOM     19  H6  UNL     1      39.674   9.214   0.189  1.00  0.00     0.168 HD
BRANCH  13  20
HETATM   20  N4  UNL     1      43.527  12.549   0.586  1.00  0.00    -0.362 N 
HETATM   21  C6  UNL     1      44.762  12.183  -0.131  1.00  0.00     0.150 C 
HETATM   22  C7  UNL     1      45.771  11.967   1.017  1.00  0.00     0.187 C 
HETATM   23  O2  UNL     1      45.868  13.180   1.671  1.00  0.00    -0.388 OA
HETATM   24  C8  UNL     1      44.736  13.579   2.339  1.00  0.00     0.187 C 
HETATM   25  C9  UNL     1      43.592  13.772   1.327  1.00  0.00     0.150 C 
ENDBRANCH  13  20
BRANCH  18  26
HETATM   26  N7  UNL     1      39.515  11.057  -1.441  1.00  0.00    -0.385 N 
ATOM     27  H72 UNL     1      39.330  11.976  -1.843  1.00  0.00     0.157 HD
ATOM     28  H71 UNL     1      38.943  10.283  -1.776  1.00  0.00     0.157 HD
ENDBRANCH  18  26
ENDBRANCH   9  12
ENDBRANCH   3   8
BRANCH   3  29
HETATM   29  C12 UNL     1      40.737  16.666  -1.515  1.00  0.00     0.303 C 
HETATM   30  N8  UNL     1      40.093  17.604  -2.323  1.00  0.00    -0.057 NA
HETATM   31  O3  UNL     1      40.857  16.909  -0.294  1.00  0.00    -0.271 OA
ENDBRANCH   3  29
TORSDOF 6
ENDMDL
MODEL 4
REMARK VINA RESULT: -6.552070868      3.237      5.176
REMARK  6 active torsions:
REMARK  status: ('A' for Active; 'I' for Inactive)
REMARK    1  A    between atoms: C2_3  and  N2_4 
REMARK    2  A    between atoms: C2_3  and  N3_8 
REMARK    3  A    between atoms: C2_3  and  C12_29 
REMARK       I    between atoms: N3_8  and  C3_10 
REMARK    4  A    between atoms: C3_10  and  C4_12 
REMARK    5  A    between atoms: C5_13  and  N4_14 
REMARK    6  A    between atoms: C11_25  and  N7_26 
ROOT
HETATM    1  N1  UNL     1      43.854  15.713  -2.789  1.00  0.00    -0.192 NA
HETATM    2  C1  UNL     1      43.617  15.249  -1.754  1.00  0.00     0.131 C 
HETATM    3  C2  UNL     1      43.321  14.634  -0.438  1.00  0.00     0.364 C 
ENDROOT
BRANCH   3   4
HETATM    4  N2  UNL     1      44.544  14.484   0.302  1.00  0.00    -0.030 N 
ATOM      5  H23 UNL     1      45.368  14.659  -0.273  1.00  0.00     0.279 HD
ATOM      6  H22 UNL     1      44.680  15.233   0.981  1.00  0.00     0.279 HD
ATOM      7  H21 UNL     1      44.565  13.561   0.735  1.00  0.00     0.279 HD
ENDBRANCH   3   4
BRANCH   3   8
HETATM    8  N3  UNL     1      42.594  13.393  -0.637  1.00  0.00    -0.305 N 
HETATM    9  C3  UNL     1      42.270  12.547   0.437  1.00  0.00     0.262 C 
HETATM   10  O1  UNL     1      42.694  12.965   1.586  1.00  0.00    -0.267 OA
ATOM     11  H3  UNL     1      42.311  13.129  -1.581  1.00  0.00     0.166 HD
BRANCH   9  12
HETATM   12  C4  UNL     1      41.552  11.307   0.415  1.00  0.00     0.119 A 
HETATM   13  C5  UNL     1      42.253  10.157   0.118  1.00  0.00     0.124 A 
HETATM   14  N5  UNL     1      41.607   8.959   0.149  1.00  0.00    -0.338 N 
HETATM   15  C10 UNL     1      40.305   8.878   0.461  1.00  0.00     0.183 A 
ATOM     16  H5  UNL     1      42.122   8.106  -0.070  1.00  0.00     0.168 HD
HETATM   17  N6  UNL     1      39.638   9.998   0.746  1.00  0.00    -0.338 N 
HETATM   18  C11 UNL     1      40.220  11.245   0.738  1.00  0.00     0.119 A 
ATOM     19  H6  UNL     1      38.648   9.926   0.981  1.00  0.00     0.168 HD
BRANCH  13  20
HETATM   20  N4  UNL     1      43.599  10.221  -0.255  1.00  0.00    -0.362 N 
HETATM   21  C6  UNL     1      43.898  10.169  -1.697  1.00  0.00     0.150 C 
HETATM   22  C7  UNL     1      44.677   8.844  -1.835  1.00  0.00     0.187 C 
HETATM   23  O2  UNL     1      45.810   8.986  -1.057  1.00  0.00    -0.388 OA
HETATM   24  C8  UNL     1      45.585   9.060   0.296  1.00  0.00     0.187 C 
HETATM   25  C9  UNL     1      44.743  10.312   0.602  1.00  0.00     0.150 C 
ENDBRANCH  13  20
BRANCH  18  26
HETATM   26  N7  UNL     1      39.523  12.229   1.081  1.00  0.00    -0.385 N 
ATOM     27  H72 UNL     1      39.472  12.465   2.072  1.00  0.00     0.157 HD
ATOM     28  H71 UNL     1      39.035  12.849   0.434  1.00  0.00     0.157 HD
ENDBRANCH  18  26
ENDBRANCH   9  12
ENDBRANCH   3   8
BRANCH   3  29
HETATM   29  C12 UNL     1      42.491  15.647   0.276  1.00  0.00     0.303 C 
HETATM   30  N8  UNL     1      41.200  16.003  -0.119  1.00  0.00    -0.057 NA
HETATM   31  O3  UNL     1      42.984  16.202   1.281  1.00  0.00    -0.271 OA
ENDBRANCH   3  29
TORSDOF 6
ENDMDL
MODEL 5
REMARK VINA RESULT: -6.552038952      3.056      5.107
REMARK  6 active torsions:
REMARK  status: ('A' for Active; 'I' for Inactive)
REMARK    1  A    between atoms: C2_3  and  N2_4 
REMARK    2  A    between atoms: C2_3  and  N3_8 
REMARK    3  A    between atoms: C2_3  and  C12_29 
REMARK       I    between atoms: N3_8  and  C3_10 
REMARK    4  A    between atoms: C3_10  and  C4_12 
REMARK    5  A    between atoms: C5_13  and  N4_14 
REMARK    6  A    between atoms: C11_25  and  N7_26 
ROOT
HETATM    1  N1  UNL     1      43.914  15.158  -2.193  1.00  0.00    -0.192 NA
HETATM    2  C1  UNL     1      43.083  14.858  -1.444  1.00  0.00     0.131 C 
HETATM    3  C2  UNL     1      42.032  14.452  -0.481  1.00  0.00     0.364 C 
ENDROOT
BRANCH   3   4
HETATM    4  N2  UNL     1      42.503  14.670   0.859  1.00  0.00    -0.030 N 
ATOM      5  H23 UNL     1      43.420  15.116   0.878  1.00  0.00     0.279 HD
ATOM      6  H22 UNL     1      41.977  15.400   1.340  1.00  0.00     0.279 HD
ATOM      7  H21 UNL     1      42.493  13.787   1.368  1.00  0.00     0.279 HD
ENDBRANCH   3   4
BRANCH   3   8
HETATM    8  N3  UNL     1      41.632  13.082  -0.752  1.00  0.00    -0.305 N 
HETATM    9  C3  UNL     1      41.173  12.232   0.269  1.00  0.00     0.262 C 
HETATM   10  O1  UNL     1      41.164  12.774   1.445  1.00  0.00    -0.267 OA
ATOM     11  H3  UNL     1      41.685  12.728  -1.707  1.00  0.00     0.166 HD
BRANCH   9  12
HETATM   12  C4  UNL     1      40.730  10.872   0.171  1.00  0.00     0.119 A 
HETATM   13  C5  UNL     1      41.667   9.906  -0.131  1.00  0.00     0.124 A 
HETATM   14  N5  UNL     1      41.283   8.600  -0.172  1.00  0.00    -0.338 N 
HETATM   15  C10 UNL     1      40.015   8.239   0.074  1.00  0.00     0.183 A 
ATOM     16  H5  UNL     1      41.973   7.883  -0.394  1.00  0.00     0.168 HD
HETATM   17  N6  UNL     1      39.119   9.184   0.364  1.00  0.00    -0.338 N 
HETATM   18  C11 UNL     1      39.428  10.524   0.427  1.00  0.00     0.119 A 
ATOM     19  H6  UNL     1      38.157   8.899   0.549  1.00  0.00     0.168 HD
BRANCH  13  20
HETATM   20  N4  UNL     1      42.984  10.262  -0.436  1.00  0.00    -0.362 N 
HETATM   21  C6  UNL     1      43.379  10.213  -1.854  1.00  0.00     0.150 C 
HETATM   22  C7  UNL     1      44.448   9.100  -1.871  1.00  0.00     0.187 C 
HETATM   23  O2  UNL     1      45.465   9.537  -1.044  1.00  0.00    -0.388 OA
HETATM   24  C8  UNL     1      45.143   9.621   0.288  1.00  0.00     0.187 C 
HETATM   25  C9  UNL     1      44.018  10.656   0.472  1.00  0.00     0.150 C 
ENDBRANCH  13  20
BRANCH  18  26
HETATM   26  N7  UNL     1      38.528  11.326   0.768  1.00  0.00    -0.385 N 
ATOM     27  H72 UNL     1      38.585  11.753   1.693  1.00  0.00     0.157 HD
ATOM     28  H71 UNL     1      37.760  11.627   0.169  1.00  0.00     0.157 HD
ENDBRANCH  18  26
ENDBRANCH   9  12
ENDBRANCH   3   8
BRANCH   3  29
HETATM   29  C12 UNL     1      40.911  15.406  -0.720  1.00  0.00     0.303 C 
HETATM   30  N8  UNL     1      39.761  15.082  -1.442  1.00  0.00    -0.057 NA
HETATM   31  O3  UNL     1      41.013  16.558  -0.243  1.00  0.00    -0.271 OA
ENDBRANCH   3  29
TORSDOF 6
ENDMDL
