MODEL 1
REMARK VINA RESULT: -6.665127457      0.000      0.000
REMARK  8 active torsions:
REMARK  status: ('A' for Active; 'I' for Inactive)
REMARK    1  A    between atoms: C2_2  and  C5_5 
REMARK    2  A    between atoms: C5_5  and  N1_6 
REMARK    3  A    between atoms: C5_5  and  C6_10 
REMARK    4  A    between atoms: C6_10  and  N2_11 
REMARK    5  A    between atoms: C6_10  and  C7_15 
REMARK       I    between atoms: C7_15  and  N3_17 
REMARK    6  A    between atoms: N3_17  and  C8_19 
REMARK    7  A    between atoms: C9_24  and  S1_25 
REMARK    8  A    between atoms: S1_25  and  N6_26 
ROOT
HETATM    1  C7  UNL     1      40.096  13.691  -1.741  1.00  0.00     0.256 C 
HETATM    2  O1  UNL     1      40.598  13.315  -2.822  1.00  0.00    -0.271 OA
HETATM    3  N3  UNL     1      39.717  15.013  -1.569  1.00  0.00    -0.304 N 
ATOM      4  H3  UNL     1      38.760  15.183  -1.260  1.00  0.00     0.171 HD
ENDROOT
BRANCH   1   5
HETATM    5  C6  UNL     1      39.915  12.704  -0.659  1.00  0.00     0.305 C 
BRANCH   5   6
HETATM    6  C5  UNL     1      39.659  11.304  -1.123  1.00  0.00     0.230 C 
BRANCH   6   7
HETATM    7  C2  UNL     1      38.692  10.510  -0.332  1.00  0.00    -0.021 C 
HETATM    8  C1  UNL     1      39.516   9.468   0.443  1.00  0.00     0.016 C 
HETATM    9  C3  UNL     1      37.754   9.682  -1.208  1.00  0.00     0.016 C 
HETATM   10  C4  UNL     1      37.889  11.252   0.681  1.00  0.00     0.016 C 
ENDBRANCH   6   7
BRANCH   6  11
HETATM   11  N1  UNL     1      40.903  10.625  -1.289  1.00  0.00    -0.072 N 
ATOM     12  H13 UNL     1      41.410  10.563  -0.407  1.00  0.00     0.274 HD
ATOM     13  H12 UNL     1      40.760   9.631  -1.465  1.00  0.00     0.274 HD
ATOM     14  H11 UNL     1      41.478  11.050  -2.017  1.00  0.00     0.274 HD
ENDBRANCH   6  11
ENDBRANCH   5   6
BRANCH   5  15
HETATM   15  N2  UNL     1      40.935  12.800   0.369  1.00  0.00    -0.064 N 
ATOM     16  H23 UNL     1      40.919  11.976   0.970  1.00  0.00     0.275 HD
ATOM     17  H22 UNL     1      41.865  12.697  -0.037  1.00  0.00     0.275 HD
ATOM     18  H21 UNL     1      40.878  13.653   0.924  1.00  0.00     0.275 HD
ENDBRANCH   5  15
ENDBRANCH   1   5
BRANCH   3  19
HETATM   19  C8  UNL     1      40.462  16.050  -1.762  1.00  0.00     0.168 A 
HETATM   20  N4  UNL     1      41.145  16.803  -0.897  1.00  0.00    -0.278 N 
HETATM   21  N5  UNL     1      41.816  17.786  -1.336  1.00  0.00    -0.281 N 
ATOM     22  H4  UNL     1      41.127  16.591   0.100  1.00  0.00     0.189 HD
HETATM   23  C9  UNL     1      41.839  18.064  -2.629  1.00  0.00     0.208 A 
ATOM     24  H5  UNL     1      42.342  18.368  -0.685  1.00  0.00     0.188 HD
HETATM   25  S2  UNL     1      40.825  16.819  -3.246  1.00  0.00    -0.020 SA
BRANCH  23  26
HETATM   26  S1  UNL     1      42.688  19.363  -3.476  1.00  0.00     0.280 S 
HETATM   27  O2  UNL     1      42.705  20.536  -2.505  1.00  0.00    -0.199 OA
HETATM   28  O3  UNL     1      44.066  18.976  -3.848  1.00  0.00    -0.199 OA
BRANCH  26  29
HETATM   29  N6  UNL     1      41.715  19.814  -4.812  1.00  0.00    -0.323 N 
ATOM     30  H62 UNL     1      40.701  19.718  -4.870  1.00  0.00     0.169 HD
ATOM     31  H61 UNL     1      42.340  20.191  -5.525  1.00  0.00     0.169 HD
ENDBRANCH  26  29
ENDBRANCH  23  26
ENDBRANCH   3  19
TORSDOF 8
ENDMDL
MODEL 2
REMARK VINA RESULT: -6.650053103      1.147      1.156
REMARK  8 active torsions:
REMARK  status: ('A' for Active; 'I' for Inactive)
REMARK    1  A    between atoms: C2_2  and  C5_5 
REMARK    2  A    between atoms: C5_5  and  N1_6 
REMARK    3  A    between atoms: C5_5  and  C6_10 
REMARK    4  A    between atoms: C6_10  and  N2_11 
REMARK    5  A    between atoms: C6_10  and  C7_15 
REMARK       I    between atoms: C7_15  and  N3_17 
REMARK    6  A    between atoms: N3_17  and  C8_19 
REMARK    7  A    between atoms: C9_24  and  S1_25 
REMARK    8  A    between atoms: S1_25  and  N6_26 
ROOT
HETATM    1  C7  UNL     1      40.745  13.213  -1.880  1.00  0.00     0.256 C 
HETATM    2  O1  UNL     1      41.738  12.954  -2.594  1.00  0.00    -0.271 OA
HETATM    3  N3  UNL     1      39.943  14.306  -2.167  1.00  0.00    -0.304 N 
ATOM      4  H3  UNL     1      38.943  14.133  -2.264  1.00  0.00     0.171 HD
ENDROOT
BRANCH   1   5
HETATM    5  C6  UNL     1      40.445  12.335  -0.731  1.00  0.00     0.305 C 
BRANCH   5   6
HETATM    6  C5  UNL     1      39.984  10.959  -1.098  1.00  0.00     0.230 C 
BRANCH   6   7
HETATM    7  C2  UNL     1      38.884  10.390  -0.287  1.00  0.00    -0.021 C 
HETATM    8  C1  UNL     1      39.509   9.285   0.581  1.00  0.00     0.016 C 
HETATM    9  C3  UNL     1      37.840   9.668  -1.135  1.00  0.00     0.016 C 
HETATM   10  C4  UNL     1      38.194  11.323   0.649  1.00  0.00     0.016 C 
ENDBRANCH   6   7
BRANCH   6  11
HETATM   11  N1  UNL     1      41.109  10.084  -1.165  1.00  0.00    -0.072 N 
ATOM     12  H13 UNL     1      41.932  10.568  -1.523  1.00  0.00     0.274 HD
ATOM     13  H12 UNL     1      41.452   9.851  -0.233  1.00  0.00     0.274 HD
ATOM     14  H11 UNL     1      40.911   9.243  -1.707  1.00  0.00     0.274 HD
ENDBRANCH   6  11
ENDBRANCH   5   6
BRANCH   5  15
HETATM   15  N2  UNL     1      41.488  12.351   0.278  1.00  0.00    -0.064 N 
ATOM     16  H23 UNL     1      41.170  12.835   1.117  1.00  0.00     0.275 HD
ATOM     17  H22 UNL     1      41.630  11.417   0.663  1.00  0.00     0.275 HD
ATOM     18  H21 UNL     1      42.371  12.742  -0.052  1.00  0.00     0.275 HD
ENDBRANCH   5  15
ENDBRANCH   1   5
BRANCH   3  19
HETATM   19  C8  UNL     1      40.343  15.524  -2.323  1.00  0.00     0.168 A 
HETATM   20  N4  UNL     1      39.710  16.590  -2.816  1.00  0.00    -0.278 N 
HETATM   21  N5  UNL     1      40.324  17.699  -2.867  1.00  0.00    -0.281 N 
ATOM     22  H4  UNL     1      38.748  16.515  -3.147  1.00  0.00     0.189 HD
HETATM   23  C9  UNL     1      41.572  17.800  -2.440  1.00  0.00     0.208 A 
ATOM     24  H5  UNL     1      39.850  18.521  -3.241  1.00  0.00     0.188 HD
HETATM   25  S2  UNL     1      41.872  16.185  -1.932  1.00  0.00    -0.020 SA
BRANCH  23  26
HETATM   26  S1  UNL     1      42.629  19.217  -2.406  1.00  0.00     0.280 S 
HETATM   27  O2  UNL     1      42.073  20.111  -1.306  1.00  0.00    -0.199 OA
HETATM   28  O3  UNL     1      44.034  18.855  -2.122  1.00  0.00    -0.199 OA
BRANCH  26  29
HETATM   29  N6  UNL     1      42.417  20.040  -3.895  1.00  0.00    -0.323 N 
ATOM     30  H62 UNL     1      43.138  20.185  -4.602  1.00  0.00     0.169 HD
ATOM     31  H61 UNL     1      41.446  20.350  -3.931  1.00  0.00     0.169 HD
ENDBRANCH  26  29
ENDBRANCH  23  26
ENDBRANCH   3  19
TORSDOF 8
ENDMDL
MODEL 3
REMARK VINA RESULT: -6.591127447      2.337      3.039
REMARK  8 active torsions:
REMARK  status: ('A' for Active; 'I' for Inactive)
REMARK    1  A    between atoms: C2_2  and  C5_5 
REMARK    2  A    between atoms: C5_5  and  N1_6 
REMARK    3  A    between atoms: C5_5  and  C6_10 
REMARK    4  A    between atoms: C6_10  and  N2_11 
REMARK    5  A    between atoms: C6_10  and  C7_15 
REMARK       I    between atoms: C7_15  and  N3_17 
REMARK    6  A    between atoms: N3_17  and  C8_19 
REMARK    7  A    between atoms: C9_24  and  S1_25 
REMARK    8  A    between atoms: S1_25  and  N6_26 
ROOT
HETATM    1  C7  UNL     1      39.834  12.884  -0.066  1.00  0.00     0.256 C 
HETATM    2  O1  UNL     1      38.808  13.350   0.474  1.00  0.00    -0.271 OA
HETATM    3  N3  UNL     1      40.846  13.731  -0.493  1.00  0.00    -0.304 N 
ATOM      4  H3  UNL     1      41.788  13.531  -0.157  1.00  0.00     0.171 HD
ENDROOT
BRANCH   1   5
HETATM    5  C6  UNL     1      39.947  11.423  -0.240  1.00  0.00     0.305 C 
BRANCH   5   6
HETATM    6  C5  UNL     1      40.577  10.702   0.911  1.00  0.00     0.230 C 
BRANCH   6   7
HETATM    7  C2  UNL     1      42.057  10.643   0.927  1.00  0.00    -0.021 C 
HETATM    8  C1  UNL     1      42.434   9.415   1.772  1.00  0.00     0.016 C 
HETATM    9  C3  UNL     1      42.685  11.823   1.664  1.00  0.00     0.016 C 
HETATM   10  C4  UNL     1      42.733  10.472  -0.391  1.00  0.00     0.016 C 
ENDBRANCH   6   7
BRANCH   6  11
HETATM   11  N1  UNL     1      39.987   9.410   1.041  1.00  0.00    -0.072 N 
ATOM     12  H13 UNL     1      40.584   8.689   0.635  1.00  0.00     0.274 HD
ATOM     13  H12 UNL     1      39.993   9.097   2.011  1.00  0.00     0.274 HD
ATOM     14  H11 UNL     1      39.047   9.375   0.647  1.00  0.00     0.274 HD
ENDBRANCH   6  11
ENDBRANCH   5   6
BRANCH   5  15
HETATM   15  N2  UNL     1      38.716  10.813  -0.706  1.00  0.00    -0.064 N 
ATOM     16  H23 UNL     1      38.831  10.444  -1.650  1.00  0.00     0.275 HD
ATOM     17  H22 UNL     1      38.532   9.944  -0.205  1.00  0.00     0.275 HD
ATOM     18  H21 UNL     1      37.908  11.434  -0.658  1.00  0.00     0.275 HD
ENDBRANCH   5  15
ENDBRANCH   1   5
BRANCH   3  19
HETATM   19  C8  UNL     1      40.707  14.749  -1.275  1.00  0.00     0.168 A 
HETATM   20  N4  UNL     1      39.698  15.099  -2.075  1.00  0.00    -0.278 N 
HETATM   21  N5  UNL     1      39.796  16.164  -2.758  1.00  0.00    -0.281 N 
ATOM     22  H4  UNL     1      38.861  14.519  -2.138  1.00  0.00     0.189 HD
HETATM   23  C9  UNL     1      40.881  16.917  -2.680  1.00  0.00     0.208 A 
ATOM     24  H5  UNL     1      39.032  16.442  -3.372  1.00  0.00     0.188 HD
HETATM   25  S2  UNL     1      41.815  16.024  -1.545  1.00  0.00    -0.020 SA
BRANCH  23  26
HETATM   26  S1  UNL     1      41.253  18.428  -3.520  1.00  0.00     0.280 S 
HETATM   27  O2  UNL     1      40.013  18.749  -4.343  1.00  0.00    -0.199 OA
HETATM   28  O3  UNL     1      41.551  19.529  -2.578  1.00  0.00    -0.199 OA
BRANCH  26  29
HETATM   29  N6  UNL     1      42.527  18.096  -4.616  1.00  0.00    -0.323 N 
ATOM     30  H62 UNL     1      43.387  17.592  -4.394  1.00  0.00     0.169 HD
ATOM     31  H61 UNL     1      42.261  18.494  -5.516  1.00  0.00     0.169 HD
ENDBRANCH  26  29
ENDBRANCH  23  26
ENDBRANCH   3  19
TORSDOF 8
ENDMDL
MODEL 4
REMARK VINA RESULT: -6.568159501      3.291      7.920
REMARK  8 active torsions:
REMARK  status: ('A' for Active; 'I' for Inactive)
REMARK    1  A    between atoms: C2_2  and  C5_5 
REMARK    2  A    between atoms: C5_5  and  N1_6 
REMARK    3  A    between atoms: C5_5  and  C6_10 
REMARK    4  A    between atoms: C6_10  and  N2_11 
REMARK    5  A    between atoms: C6_10  and  C7_15 
REMARK       I    between atoms: C7_15  and  N3_17 
REMARK    6  A    between atoms: N3_17  and  C8_19 
REMARK    7  A    between atoms: C9_24  and  S1_25 
REMARK    8  A    between atoms: S1_25  and  N6_26 
ROOT
HETATM    1  C7  UNL     1      41.290  16.370  -1.323  1.00  0.00     0.256 C 
HETATM    2  O1  UNL     1      40.985  16.919  -0.243  1.00  0.00    -0.271 OA
HETATM    3  N3  UNL     1      40.810  15.105  -1.624  1.00  0.00    -0.304 N 
ATOM      4  H3  UNL     1      40.329  14.994  -2.517  1.00  0.00     0.171 HD
ENDROOT
BRANCH   1   5
HETATM    5  C6  UNL     1      42.168  17.090  -2.266  1.00  0.00     0.305 C 
BRANCH   5   6
HETATM    6  C5  UNL     1      41.564  18.321  -2.869  1.00  0.00     0.230 C 
BRANCH   6   7
HETATM    7  C2  UNL     1      41.654  18.450  -4.341  1.00  0.00    -0.021 C 
HETATM    8  C1  UNL     1      41.796  17.022  -4.894  1.00  0.00     0.016 C 
HETATM    9  C3  UNL     1      42.925  19.165  -4.793  1.00  0.00     0.016 C 
HETATM   10  C4  UNL     1      40.479  19.056  -5.031  1.00  0.00     0.016 C 
ENDBRANCH   6   7
BRANCH   6  11
HETATM   11  N1  UNL     1      42.066  19.474  -2.196  1.00  0.00    -0.072 N 
ATOM     12  H13 UNL     1      41.928  19.403  -1.188  1.00  0.00     0.274 HD
ATOM     13  H12 UNL     1      43.085  19.500  -2.219  1.00  0.00     0.274 HD
ATOM     14  H11 UNL     1      41.667  20.338  -2.563  1.00  0.00     0.274 HD
ENDBRANCH   6  11
ENDBRANCH   5   6
BRANCH   5  15
HETATM   15  N2  UNL     1      43.508  17.294  -1.747  1.00  0.00    -0.064 N 
ATOM     16  H23 UNL     1      43.586  18.208  -1.301  1.00  0.00     0.275 HD
ATOM     17  H22 UNL     1      43.675  16.696  -0.938  1.00  0.00     0.275 HD
ATOM     18  H21 UNL     1      44.240  17.169  -2.445  1.00  0.00     0.275 HD
ENDBRANCH   5  15
ENDBRANCH   1   5
BRANCH   3  19
HETATM   19  C8  UNL     1      40.913  14.054  -0.881  1.00  0.00     0.168 A 
HETATM   20  N4  UNL     1      41.173  13.934   0.422  1.00  0.00    -0.278 N 
HETATM   21  N5  UNL     1      41.224  12.774   0.934  1.00  0.00    -0.281 N 
ATOM     22  H4  UNL     1      41.329  14.761   0.998  1.00  0.00     0.189 HD
HETATM   23  C9  UNL     1      41.024  11.699   0.190  1.00  0.00     0.208 A 
ATOM     24  H5  UNL     1      41.421  12.670   1.929  1.00  0.00     0.188 HD
HETATM   25  S2  UNL     1      40.744  12.417  -1.348  1.00  0.00    -0.020 SA
BRANCH  23  26
HETATM   26  S1  UNL     1      41.042   9.995   0.662  1.00  0.00     0.280 S 
HETATM   27  O2  UNL     1      42.094   9.890   1.757  1.00  0.00    -0.199 OA
HETATM   28  O3  UNL     1      39.724   9.543   1.161  1.00  0.00    -0.199 OA
BRANCH  26  29
HETATM   29  N6  UNL     1      41.610   9.103  -0.686  1.00  0.00    -0.323 N 
ATOM     30  H62 UNL     1      41.050   8.475  -1.263  1.00  0.00     0.169 HD
ATOM     31  H61 UNL     1      42.601   9.321  -0.794  1.00  0.00     0.169 HD
ENDBRANCH  26  29
ENDBRANCH  23  26
ENDBRANCH   3  19
TORSDOF 8
ENDMDL
MODEL 5
REMARK VINA RESULT: -6.561142259      0.731      1.197
REMARK  8 active torsions:
REMARK  status: ('A' for Active; 'I' for Inactive)
REMARK    1  A    between atoms: C2_2  and  C5_5 
REMARK    2  A    between atoms: C5_5  and  N1_6 
REMARK    3  A    between atoms: C5_5  and  C6_10 
REMARK    4  A    between atoms: C6_10  and  N2_11 
REMARK    5  A    between atoms: C6_10  and  C7_15 
REMARK       I    between atoms: C7_15  and  N3_17 
REMARK    6  A    between atoms: N3_17  and  C8_19 
REMARK    7  A    between atoms: C9_24  and  S1_25 
REMARK    8  A    between atoms: S1_25  and  N6_26 
ROOT
HETATM    1  C7  UNL     1      40.135  13.940  -1.531  1.00  0.00     0.256 C 
HETATM    2  O1  UNL     1      39.830  13.679  -2.714  1.00  0.00    -0.271 OA
HETATM    3  N3  UNL     1      40.300  15.256  -1.126  1.00  0.00    -0.304 N 
ATOM      4  H3  UNL     1      39.764  15.560  -0.313  1.00  0.00     0.171 HD
ENDROOT
BRANCH   1   5
HETATM    5  C6  UNL     1      40.315  12.828  -0.578  1.00  0.00     0.305 C 
BRANCH   5   6
HETATM    6  C5  UNL     1      39.927  11.481  -1.107  1.00  0.00     0.230 C 
BRANCH   6   7
HETATM    7  C2  UNL     1      39.037  10.664  -0.251  1.00  0.00    -0.021 C 
HETATM    8  C1  UNL     1      38.302  11.648   0.675  1.00  0.00     0.016 C 
HETATM    9  C3  UNL     1      39.809   9.749   0.697  1.00  0.00     0.016 C 
HETATM   10  C4  UNL     1      37.984   9.872  -0.947  1.00  0.00     0.016 C 
ENDBRANCH   6   7
BRANCH   6  11
HETATM   11  N1  UNL     1      41.101  10.769  -1.496  1.00  0.00    -0.072 N 
ATOM     12  H13 UNL     1      41.076   9.806  -1.161  1.00  0.00     0.274 HD
ATOM     13  H12 UNL     1      41.109  10.592  -2.500  1.00  0.00     0.274 HD
ATOM     14  H11 UNL     1      41.954  11.242  -1.197  1.00  0.00     0.274 HD
ENDBRANCH   6  11
ENDBRANCH   5   6
BRANCH   5  15
HETATM   15  N2  UNL     1      41.611  12.846   0.074  1.00  0.00    -0.064 N 
ATOM     16  H23 UNL     1      42.085  11.951  -0.041  1.00  0.00     0.275 HD
ATOM     17  H22 UNL     1      42.260  13.449  -0.432  1.00  0.00     0.275 HD
ATOM     18  H21 UNL     1      41.570  13.108   1.059  1.00  0.00     0.275 HD
ENDBRANCH   5  15
ENDBRANCH   1   5
BRANCH   3  19
HETATM   19  C8  UNL     1      41.068  16.133  -1.681  1.00  0.00     0.168 A 
HETATM   20  N4  UNL     1      42.388  16.311  -1.596  1.00  0.00    -0.278 N 
HETATM   21  N5  UNL     1      42.923  17.259  -2.247  1.00  0.00    -0.281 N 
ATOM     22  H4  UNL     1      42.957  15.694  -1.017  1.00  0.00     0.189 HD
HETATM   23  C9  UNL     1      42.187  18.061  -2.999  1.00  0.00     0.208 A 
ATOM     24  H5  UNL     1      43.930  17.404  -2.191  1.00  0.00     0.188 HD
HETATM   25  S2  UNL     1      40.621  17.397  -2.744  1.00  0.00    -0.020 SA
BRANCH  23  26
HETATM   26  S1  UNL     1      42.691  19.436  -3.989  1.00  0.00     0.280 S 
HETATM   27  O2  UNL     1      42.909  20.581  -3.010  1.00  0.00    -0.199 OA
HETATM   28  O3  UNL     1      43.932  19.153  -4.742  1.00  0.00    -0.199 OA
BRANCH  26  29
HETATM   29  N6  UNL     1      41.361  19.855  -4.985  1.00  0.00    -0.323 N 
ATOM     30  H62 UNL     1      40.967  20.791  -5.089  1.00  0.00     0.169 HD
ATOM     31  H61 UNL     1      41.049  19.000  -5.444  1.00  0.00     0.169 HD
ENDBRANCH  26  29
ENDBRANCH  23  26
ENDBRANCH   3  19
TORSDOF 8
ENDMDL
