MODEL 1
REMARK VINA RESULT: -7.021470058      0.000      0.000
REMARK  6 active torsions:
REMARK  status: ('A' for Active; 'I' for Inactive)
REMARK       I    between atoms: C1_4  and  N3_6 
REMARK       I    between atoms: N3_6  and  C2_8 
REMARK    1  A    between atoms: C2_8  and  C3_10 
REMARK    2  A    between atoms: C4_14  and  C5_15 
REMARK    3  A    between atoms: C5_15  and  C6_16 
REMARK    4  A    between atoms: C6_16  and  N5_17 
REMARK    5  A    between atoms: C6_16  and  C7_21 
REMARK    6  A    between atoms: C7_21  and  N7_25 
ROOT
HETATM    1  C3  UNL     1      43.233  13.982   0.476  1.00  0.00     0.182 A 
HETATM    2  N4  UNL     1      44.448  14.143   1.013  1.00  0.00    -0.306 N 
ATOM      3  H4  UNL     1      44.933  15.010   1.242  1.00  0.00     0.176 HD
HETATM    4  S1  UNL     1      44.978  12.558   1.214  1.00  0.00     0.001 SA
HETATM    5  C4  UNL     1      43.607  11.758   0.597  1.00  0.00     0.071 A 
HETATM    6  N8  UNL     1      42.819  12.770   0.271  1.00  0.00    -0.334 N 
ATOM      7  H8  UNL     1      41.899  12.599  -0.137  1.00  0.00     0.168 HD
ENDROOT
BRANCH   5   8
HETATM    8  C5  UNL     1      43.310  10.286   0.438  1.00  0.00     0.107 C 
BRANCH   8   9
HETATM    9  C6  UNL     1      42.133  10.003   1.350  1.00  0.00     0.256 C 
BRANCH   9  10
HETATM   10  N5  UNL     1      42.554   9.053   2.332  1.00  0.00    -0.068 N 
ATOM     11  H53 UNL     1      43.014   8.240   1.923  1.00  0.00     0.275 HD
ATOM     12  H52 UNL     1      43.338   9.386   2.892  1.00  0.00     0.275 HD
ATOM     13  H51 UNL     1      41.743   8.804   2.897  1.00  0.00     0.275 HD
ENDBRANCH   9  10
BRANCH   9  14
HETATM   14  C7  UNL     1      40.925   9.614   0.623  1.00  0.00     0.104 C 
HETATM   15  N6  UNL     1      40.612   8.369   0.502  1.00  0.00    -0.387 N 
ATOM     16  H62 UNL     1      41.233   7.679   0.927  1.00  0.00     0.157 HD
ATOM     17  H61 UNL     1      39.769   8.098  -0.004  1.00  0.00     0.157 HD
BRANCH  14  18
HETATM   18  N7  UNL     1      40.062  10.572   0.033  1.00  0.00    -0.365 N 
HETATM   19  C8  UNL     1      40.347  11.118  -1.280  1.00  0.00     0.150 C 
HETATM   20  C9  UNL     1      39.606  12.413  -1.423  1.00  0.00     0.187 C 
HETATM   21  O2  UNL     1      39.632  13.132  -0.239  1.00  0.00    -0.388 OA
HETATM   22  C10 UNL     1      38.819  12.563   0.739  1.00  0.00     0.187 C 
HETATM   23  C11 UNL     1      38.867  11.052   0.698  1.00  0.00     0.150 C 
ENDBRANCH  14  18
ENDBRANCH   9  14
ENDBRANCH   8   9
ENDBRANCH   5   8
BRANCH   1  24
HETATM   24  C2  UNL     1      42.397  15.162   0.132  1.00  0.00     0.292 C 
HETATM   25  N3  UNL     1      41.583  15.161  -1.025  1.00  0.00    -0.295 N 
HETATM   26  C1  UNL     1      40.803  16.292  -1.325  1.00  0.00     0.188 C 
ATOM     27  H3  UNL     1      41.563  14.345  -1.637  1.00  0.00     0.171 HD
HETATM   28  N1  UNL     1      40.067  16.278  -2.382  1.00  0.00    -0.373 N 
HETATM   29  N2  UNL     1      40.780  17.463  -0.520  1.00  0.00    -0.064 NA
ATOM     30  H12 UNL     1      39.501  17.098  -2.599  1.00  0.00     0.158 HD
ATOM     31  H11 UNL     1      40.083  15.437  -2.960  1.00  0.00     0.158 HD
HETATM   32  O1  UNL     1      42.398  16.185   0.863  1.00  0.00    -0.264 OA
ENDBRANCH   1  24
TORSDOF 6
ENDMDL
MODEL 2
REMARK VINA RESULT: -6.951196478      2.100      2.620
REMARK  6 active torsions:
REMARK  status: ('A' for Active; 'I' for Inactive)
REMARK       I    between atoms: C1_4  and  N3_6 
REMARK       I    between atoms: N3_6  and  C2_8 
REMARK    1  A    between atoms: C2_8  and  C3_10 
REMARK    2  A    between atoms: C4_14  and  C5_15 
REMARK    3  A    between atoms: C5_15  and  C6_16 
REMARK    4  A    between atoms: C6_16  and  N5_17 
REMARK    5  A    between atoms: C6_16  and  C7_21 
REMARK    6  A    between atoms: C7_21  and  N7_25 
ROOT
HETATM    1  C3  UNL     1      42.076  14.463  -2.195  1.00  0.00     0.182 A 
HETATM    2  N4  UNL     1      43.371  14.629  -1.904  1.00  0.00    -0.306 N 
ATOM      3  H4  UNL     1      43.901  15.498  -1.829  1.00  0.00     0.176 HD
HETATM    4  S1  UNL     1      43.910  13.049  -1.691  1.00  0.00     0.001 SA
HETATM    5  C4  UNL     1      42.438  12.244  -1.987  1.00  0.00     0.071 A 
HETATM    6  N8  UNL     1      41.616  13.251  -2.234  1.00  0.00    -0.334 N 
ATOM      7  H8  UNL     1      40.635  13.076  -2.453  1.00  0.00     0.168 HD
ENDROOT
BRANCH   5   8
HETATM    8  C5  UNL     1      42.099  10.773  -1.984  1.00  0.00     0.107 C 
BRANCH   8   9
HETATM    9  C6  UNL     1      42.599  10.239  -0.657  1.00  0.00     0.256 C 
BRANCH   9  10
HETATM   10  N5  UNL     1      43.385   9.073  -0.918  1.00  0.00    -0.068 N 
ATOM     11  H53 UNL     1      43.444   8.851  -1.911  1.00  0.00     0.275 HD
ATOM     12  H52 UNL     1      44.380   9.223  -0.752  1.00  0.00     0.275 HD
ATOM     13  H51 UNL     1      43.005   8.306  -0.364  1.00  0.00     0.275 HD
ENDBRANCH   9  10
BRANCH   9  14
HETATM   14  C7  UNL     1      41.528  10.030   0.318  1.00  0.00     0.104 C 
HETATM   15  N6  UNL     1      41.255   8.842   0.738  1.00  0.00    -0.387 N 
ATOM     16  H62 UNL     1      41.807   8.068   0.367  1.00  0.00     0.157 HD
ATOM     17  H61 UNL     1      40.508   8.696   1.418  1.00  0.00     0.157 HD
BRANCH  14  18
HETATM   18  N7  UNL     1      40.762  11.105   0.833  1.00  0.00    -0.365 N 
HETATM   19  C8  UNL     1      39.346  11.215   0.538  1.00  0.00     0.150 C 
HETATM   20  C9  UNL     1      38.928  12.638   0.760  1.00  0.00     0.187 C 
HETATM   21  O2  UNL     1      39.904  13.516   0.317  1.00  0.00    -0.388 OA
HETATM   22  C10 UNL     1      41.021  13.522   1.149  1.00  0.00     0.187 C 
HETATM   23  C11 UNL     1      41.340  12.139   1.669  1.00  0.00     0.150 C 
ENDBRANCH  14  18
ENDBRANCH   9  14
ENDBRANCH   8   9
ENDBRANCH   5   8
BRANCH   1  24
HETATM   24  C2  UNL     1      41.205  15.638  -2.463  1.00  0.00     0.292 C 
HETATM   25  N3  UNL     1      41.766  16.901  -2.766  1.00  0.00    -0.295 N 
HETATM   26  C1  UNL     1      40.917  17.995  -3.015  1.00  0.00     0.188 C 
ATOM     27  H3  UNL     1      42.779  17.017  -2.804  1.00  0.00     0.171 HD
HETATM   28  N1  UNL     1      41.440  19.139  -3.289  1.00  0.00    -0.373 N 
HETATM   29  N2  UNL     1      39.498  17.908  -2.979  1.00  0.00    -0.064 NA
ATOM     30  H12 UNL     1      40.825  19.932  -3.470  1.00  0.00     0.158 HD
ATOM     31  H11 UNL     1      42.458  19.201  -3.315  1.00  0.00     0.158 HD
HETATM   32  O1  UNL     1      39.953  15.532  -2.424  1.00  0.00    -0.264 OA
ENDBRANCH   1  24
TORSDOF 6
ENDMDL
MODEL 3
REMARK VINA RESULT: -6.757544749      2.215      5.862
REMARK  6 active torsions:
REMARK  status: ('A' for Active; 'I' for Inactive)
REMARK       I    between atoms: C1_4  and  N3_6 
REMARK       I    between atoms: N3_6  and  C2_8 
REMARK    1  A    between atoms: C2_8  and  C3_10 
REMARK    2  A    between atoms: C4_14  and  C5_15 
REMARK    3  A    between atoms: C5_15  and  C6_16 
REMARK    4  A    between atoms: C6_16  and  N5_17 
REMARK    5  A    between atoms: C6_16  and  C7_21 
REMARK    6  A    between atoms: C7_21  and  N7_25 
ROOT
HETATM    1  C3  UNL     1      40.527  10.210   0.324  1.00  0.00     0.182 A 
HETATM    2  N4  UNL     1      41.069   9.108   0.855  1.00  0.00    -0.306 N 
ATOM      3  H4  UNL     1      40.746   8.143   0.786  1.00  0.00     0.176 HD
HETATM    4  S1  UNL     1      42.416   9.710   1.665  1.00  0.00     0.001 SA
HETATM    5  C4  UNL     1      42.218  11.358   1.282  1.00  0.00     0.071 A 
HETATM    6  N8  UNL     1      41.118  11.342   0.548  1.00  0.00    -0.334 N 
ATOM      7  H8  UNL     1      40.740  12.209   0.163  1.00  0.00     0.168 HD
ENDROOT
BRANCH   5   8
HETATM    8  C5  UNL     1      43.048  12.565   1.653  1.00  0.00     0.107 C 
BRANCH   8   9
HETATM    9  C6  UNL     1      43.080  13.438   0.414  1.00  0.00     0.256 C 
BRANCH   9  10
HETATM   10  N5  UNL     1      44.235  13.079  -0.349  1.00  0.00    -0.068 N 
ATOM     11  H53 UNL     1      45.098  13.138   0.190  1.00  0.00     0.275 HD
ATOM     12  H52 UNL     1      44.273  12.082  -0.561  1.00  0.00     0.275 HD
ATOM     13  H51 UNL     1      44.252  13.661  -1.186  1.00  0.00     0.275 HD
ENDBRANCH   9  10
BRANCH   9  14
HETATM   14  C7  UNL     1      42.985  14.866   0.718  1.00  0.00     0.104 C 
HETATM   15  N6  UNL     1      43.317  15.306   1.883  1.00  0.00    -0.387 N 
ATOM     16  H62 UNL     1      43.643  14.628   2.573  1.00  0.00     0.157 HD
ATOM     17  H61 UNL     1      43.251  16.302   2.095  1.00  0.00     0.157 HD
BRANCH  14  18
HETATM   18  N7  UNL     1      42.533  15.809  -0.240  1.00  0.00    -0.365 N 
HETATM   19  C8  UNL     1      42.921  17.203  -0.149  1.00  0.00     0.150 C 
HETATM   20  C9  UNL     1      41.938  18.018  -0.935  1.00  0.00     0.187 C 
HETATM   21  O2  UNL     1      40.649  17.537  -0.767  1.00  0.00    -0.388 OA
HETATM   22  C10 UNL     1      40.451  16.326  -1.426  1.00  0.00     0.187 C 
HETATM   23  C11 UNL     1      41.672  15.437  -1.346  1.00  0.00     0.150 C 
ENDBRANCH  14  18
ENDBRANCH   9  14
ENDBRANCH   8   9
ENDBRANCH   5   8
BRANCH   1  24
HETATM   24  C2  UNL     1      39.287  10.124  -0.493  1.00  0.00     0.292 C 
HETATM   25  N3  UNL     1      38.641   8.882  -0.699  1.00  0.00    -0.295 N 
HETATM   26  C1  UNL     1      37.470   8.831  -1.477  1.00  0.00     0.188 C 
ATOM     27  H3  UNL     1      39.022   8.030  -0.288  1.00  0.00     0.171 HD
HETATM   28  N1  UNL     1      36.892   7.695  -1.658  1.00  0.00    -0.373 N 
HETATM   29  N2  UNL     1      36.882   9.976  -2.082  1.00  0.00    -0.064 NA
ATOM     30  H12 UNL     1      36.043   7.659  -2.221  1.00  0.00     0.158 HD
ATOM     31  H11 UNL     1      37.314   6.874  -1.224  1.00  0.00     0.158 HD
HETATM   32  O1  UNL     1      38.790  11.153  -1.016  1.00  0.00    -0.264 OA
ENDBRANCH   1  24
TORSDOF 6
ENDMDL
MODEL 4
REMARK VINA RESULT: -6.737799191      2.209      2.767
REMARK  6 active torsions:
REMARK  status: ('A' for Active; 'I' for Inactive)
REMARK       I    between atoms: C1_4  and  N3_6 
REMARK       I    between atoms: N3_6  and  C2_8 
REMARK    1  A    between atoms: C2_8  and  C3_10 
REMARK    2  A    between atoms: C4_14  and  C5_15 
REMARK    3  A    between atoms: C5_15  and  C6_16 
REMARK    4  A    between atoms: C6_16  and  N5_17 
REMARK    5  A    between atoms: C6_16  and  C7_21 
REMARK    6  A    between atoms: C7_21  and  N7_25 
ROOT
HETATM    1  C3  UNL     1      42.196  13.244  -2.883  1.00  0.00     0.182 A 
HETATM    2  N4  UNL     1      43.294  13.267  -3.646  1.00  0.00    -0.306 N 
ATOM      3  H4  UNL     1      43.636  14.015  -4.250  1.00  0.00     0.176 HD
HETATM    4  S1  UNL     1      43.974  11.753  -3.363  1.00  0.00     0.001 SA
HETATM    5  C4  UNL     1      42.809  11.159  -2.272  1.00  0.00     0.071 A 
HETATM    6  N8  UNL     1      41.962  12.172  -2.192  1.00  0.00    -0.334 N 
ATOM      7  H8  UNL     1      41.136  12.110  -1.597  1.00  0.00     0.168 HD
ENDROOT
BRANCH   5   8
HETATM    8  C5  UNL     1      42.714   9.835  -1.552  1.00  0.00     0.107 C 
BRANCH   8   9
HETATM    9  C6  UNL     1      42.874  10.155  -0.080  1.00  0.00     0.256 C 
BRANCH   9  10
HETATM   10  N5  UNL     1      43.917   9.327   0.442  1.00  0.00    -0.068 N 
ATOM     11  H53 UNL     1      44.797   9.439  -0.060  1.00  0.00     0.275 HD
ATOM     12  H52 UNL     1      44.242   9.633   1.359  1.00  0.00     0.275 HD
ATOM     13  H51 UNL     1      43.583   8.363   0.443  1.00  0.00     0.275 HD
ENDBRANCH   9  10
BRANCH   9  14
HETATM   14  C7  UNL     1      41.617  10.071   0.665  1.00  0.00     0.104 C 
HETATM   15  N6  UNL     1      41.160   8.925   1.039  1.00  0.00    -0.387 N 
ATOM     16  H62 UNL     1      41.702   8.094   0.798  1.00  0.00     0.157 HD
ATOM     17  H61 UNL     1      40.283   8.866   1.558  1.00  0.00     0.157 HD
BRANCH  14  18
HETATM   18  N7  UNL     1      40.864  11.224   1.000  1.00  0.00    -0.365 N 
HETATM   19  C8  UNL     1      39.459  11.320   0.652  1.00  0.00     0.150 C 
HETATM   20  C9  UNL     1      39.070  12.768   0.657  1.00  0.00     0.187 C 
HETATM   21  O2  UNL     1      40.079  13.554   0.122  1.00  0.00    -0.388 OA
HETATM   22  C10 UNL     1      41.174  13.656   0.977  1.00  0.00     0.187 C 
HETATM   23  C11 UNL     1      41.446  12.353   1.697  1.00  0.00     0.150 C 
ENDBRANCH  14  18
ENDBRANCH   9  14
ENDBRANCH   8   9
ENDBRANCH   5   8
BRANCH   1  24
HETATM   24  C2  UNL     1      41.284  14.418  -2.838  1.00  0.00     0.292 C 
HETATM   25  N3  UNL     1      41.552  15.511  -1.981  1.00  0.00    -0.295 N 
HETATM   26  C1  UNL     1      40.670  16.608  -1.959  1.00  0.00     0.188 C 
ATOM     27  H3  UNL     1      42.378  15.504  -1.383  1.00  0.00     0.171 HD
HETATM   28  N1  UNL     1      40.925  17.596  -1.175  1.00  0.00    -0.373 N 
HETATM   29  N2  UNL     1      39.500  16.687  -2.763  1.00  0.00    -0.064 NA
ATOM     30  H12 UNL     1      40.287  18.390  -1.160  1.00  0.00     0.158 HD
ATOM     31  H11 UNL     1      41.765  17.539  -0.598  1.00  0.00     0.158 HD
HETATM   32  O1  UNL     1      40.255  14.460  -3.560  1.00  0.00    -0.264 OA
ENDBRANCH   1  24
TORSDOF 6
ENDMDL
MODEL 5
REMARK VINA RESULT: -6.726078117      2.254      3.606
REMARK  6 active torsions:
REMARK  status: ('A' for Active; 'I' for Inactive)
REMARK       I    between atoms: C1_4  and  N3_6 
REMARK       I    between atoms: N3_6  and  C2_8 
REMARK    1  A    between atoms: C2_8  and  C3_10 
REMARK    2  A    between atoms: C4_14  and  C5_15 
REMARK    3  A    between atoms: C5_15  and  C6_16 
REMARK    4  A    between atoms: C6_16  and  N5_17 
REMARK    5  A    between atoms: C6_16  and  C7_21 
REMARK    6  A    between atoms: C7_21  and  N7_25 
ROOT
HETATM    1  C3  UNL     1      40.401  14.130  -0.887  1.00  0.00     0.182 A 
HETATM    2  N4  UNL     1      41.152  14.391   0.189  1.00  0.00    -0.306 N 
ATOM      3  H4  UNL     1      41.793  15.169   0.346  1.00  0.00     0.176 HD
HETATM    4  S1  UNL     1      40.775  13.116   1.222  1.00  0.00     0.001 SA
HETATM    5  C4  UNL     1      39.665  12.304   0.217  1.00  0.00     0.071 A 
HETATM    6  N8  UNL     1      39.654  13.071  -0.861  1.00  0.00    -0.334 N 
ATOM      7  H8  UNL     1      39.065  12.832  -1.659  1.00  0.00     0.168 HD
ENDROOT
BRANCH   5   8
HETATM    8  C5  UNL     1      38.872  11.038   0.441  1.00  0.00     0.107 C 
BRANCH   8   9
HETATM    9  C6  UNL     1      39.404  10.036  -0.564  1.00  0.00     0.256 C 
BRANCH   9  10
HETATM   10  N5  UNL     1      38.329   9.170  -0.935  1.00  0.00    -0.068 N 
ATOM     11  H53 UNL     1      38.521   8.191  -0.727  1.00  0.00     0.275 HD
ATOM     12  H52 UNL     1      37.510   9.280  -0.337  1.00  0.00     0.275 HD
ATOM     13  H51 UNL     1      38.121   9.330  -1.921  1.00  0.00     0.275 HD
ENDBRANCH   9  10
BRANCH   9  14
HETATM   14  C7  UNL     1      40.601   9.336  -0.097  1.00  0.00     0.104 C 
HETATM   15  N6  UNL     1      40.491   8.235   0.564  1.00  0.00    -0.387 N 
ATOM     16  H62 UNL     1      39.552   7.879   0.746  1.00  0.00     0.157 HD
ATOM     17  H61 UNL     1      41.326   7.746   0.889  1.00  0.00     0.157 HD
BRANCH  14  18
HETATM   18  N7  UNL     1      41.906   9.829  -0.350  1.00  0.00    -0.365 N 
HETATM   19  C8  UNL     1      42.845  10.032   0.736  1.00  0.00     0.150 C 
HETATM   20  C9  UNL     1      43.898  10.995   0.275  1.00  0.00     0.187 C 
HETATM   21  O2  UNL     1      43.343  12.003  -0.498  1.00  0.00    -0.388 OA
HETATM   22  C10 UNL     1      42.950  11.545  -1.754  1.00  0.00     0.187 C 
HETATM   23  C11 UNL     1      42.367  10.152  -1.685  1.00  0.00     0.150 C 
ENDBRANCH  14  18
ENDBRANCH   9  14
ENDBRANCH   8   9
ENDBRANCH   5   8
BRANCH   1  24
HETATM   24  C2  UNL     1      40.434  15.034  -2.068  1.00  0.00     0.292 C 
HETATM   25  N3  UNL     1      40.822  16.388  -1.932  1.00  0.00    -0.295 N 
HETATM   26  C1  UNL     1      40.844  17.220  -3.067  1.00  0.00     0.188 C 
ATOM     27  H3  UNL     1      41.085  16.758  -1.019  1.00  0.00     0.171 HD
HETATM   28  N1  UNL     1      41.198  18.449  -2.931  1.00  0.00    -0.373 N 
HETATM   29  N2  UNL     1      40.491  16.774  -4.370  1.00  0.00    -0.064 NA
ATOM     30  H12 UNL     1      41.214  19.052  -3.753  1.00  0.00     0.158 HD
ATOM     31  H11 UNL     1      41.452  18.769  -1.995  1.00  0.00     0.158 HD
HETATM   32  O1  UNL     1      40.117  14.612  -3.208  1.00  0.00    -0.264 OA
ENDBRANCH   1  24
TORSDOF 6
ENDMDL
