MODEL 1
REMARK VINA RESULT: -7.954362792      0.000      0.000
REMARK  10 active torsions:
REMARK  status: ('A' for Active; 'I' for Inactive)
REMARK    1  A    between atoms: C1_4  and  O1_5 
REMARK    2  A    between atoms: C1_4  and  N2_7 
REMARK    3  A    between atoms: N2_7  and  N3_9 
REMARK       I    between atoms: N3_9  and  C2_11 
REMARK    4  A    between atoms: C2_11  and  C3_13 
REMARK    5  A    between atoms: C3_13  and  C4_14 
REMARK    6  A    between atoms: C4_14  and  C5_15 
REMARK    7  A    between atoms: C5_15  and  O3_16 
REMARK    8  A    between atoms: N4_18  and  C6_20 
REMARK    9  A    between atoms: C7_25  and  S1_26 
REMARK   10  A    between atoms: S1_26  and  N7_27 
ROOT
HETATM    1  C5  UNL     1      41.503  12.217   0.609  1.00  0.00     0.117 C 
HETATM    2  N4  UNL     1      41.797  13.414   0.050  1.00  0.00    -0.320 N 
ATOM      3  H4  UNL     1      42.548  13.918   0.521  1.00  0.00     0.169 HD
ENDROOT
BRANCH   1   4
HETATM    4  C4  UNL     1      40.472  11.267   0.154  1.00  0.00     0.093 C 
BRANCH   4   5
HETATM    5  C3  UNL     1      39.127  11.738   0.700  1.00  0.00     0.112 C 
BRANCH   5   6
HETATM    6  C2  UNL     1      38.020  10.990   0.024  1.00  0.00     0.236 C 
HETATM    7  N3  UNL     1      38.289  10.335  -1.198  1.00  0.00    -0.267 N 
ATOM      8  H3  UNL     1      39.222  10.374  -1.610  1.00  0.00     0.190 HD
HETATM    9  O2  UNL     1      36.877  10.949   0.541  1.00  0.00    -0.272 OA
BRANCH   7  10
HETATM   10  N2  UNL     1      37.256   9.628  -1.842  1.00  0.00    -0.263 N 
ATOM     11  H2  UNL     1      36.565  10.121  -2.407  1.00  0.00     0.190 HD
BRANCH  10  12
HETATM   12  C1  UNL     1      37.191   8.219  -1.695  1.00  0.00     0.229 C 
HETATM   13  N1  UNL     1      38.213   7.571  -1.244  1.00  0.00    -0.364 N 
ATOM     14  H12 UNL     1      38.165   6.558  -1.138  1.00  0.00     0.159 HD
ATOM     15  H11 UNL     1      39.063   8.076  -0.995  1.00  0.00     0.159 HD
BRANCH  12  16
HETATM   16  O1  UNL     1      36.048   7.540  -2.029  1.00  0.00    -0.332 OA
ATOM     17  H1  UNL     1      35.224   8.009  -2.100  1.00  0.00     0.221 HD
ENDBRANCH  12  16
ENDBRANCH  10  12
ENDBRANCH   7  10
ENDBRANCH   5   6
ENDBRANCH   4   5
ENDBRANCH   1   4
BRANCH   1  18
HETATM   18  O3  UNL     1      42.212  11.888   1.654  1.00  0.00    -0.349 OA
ATOM     19  H3  UNL     1      43.159  11.896   1.565  1.00  0.00     0.219 HD
ENDBRANCH   1  18
BRANCH   2  20
HETATM   20  C6  UNL     1      41.315  14.028  -0.950  1.00  0.00     0.167 A 
HETATM   21  N5  UNL     1      40.313  14.879  -1.151  1.00  0.00    -0.278 N 
HETATM   22  N6  UNL     1      40.085  15.327  -2.319  1.00  0.00    -0.281 N 
ATOM     23  H5  UNL     1      39.727  15.172  -0.368  1.00  0.00     0.189 HD
HETATM   24  C7  UNL     1      40.830  14.961  -3.338  1.00  0.00     0.208 A 
ATOM     25  H6  UNL     1      39.314  15.979  -2.467  1.00  0.00     0.188 HD
HETATM   26  S2  UNL     1      41.932  13.907  -2.601  1.00  0.00    -0.020 SA
BRANCH  24  27
HETATM   27  S1  UNL     1      40.650  15.485  -5.012  1.00  0.00     0.280 S 
HETATM   28  O4  UNL     1      39.434  14.772  -5.550  1.00  0.00    -0.199 OA
HETATM   29  O5  UNL     1      40.503  16.965  -5.108  1.00  0.00    -0.199 OA
BRANCH  27  30
HETATM   30  N7  UNL     1      42.066  14.983  -5.886  1.00  0.00    -0.323 N 
ATOM     31  H72 UNL     1      42.225  14.049  -6.263  1.00  0.00     0.169 HD
ATOM     32  H71 UNL     1      42.696  15.783  -5.951  1.00  0.00     0.169 HD
ENDBRANCH  27  30
ENDBRANCH  24  27
ENDBRANCH   2  20
TORSDOF 10
ENDMDL
MODEL 2
REMARK VINA RESULT: -7.588180481      1.823      2.052
REMARK  10 active torsions:
REMARK  status: ('A' for Active; 'I' for Inactive)
REMARK    1  A    between atoms: C1_4  and  O1_5 
REMARK    2  A    between atoms: C1_4  and  N2_7 
REMARK    3  A    between atoms: N2_7  and  N3_9 
REMARK       I    between atoms: N3_9  and  C2_11 
REMARK    4  A    between atoms: C2_11  and  C3_13 
REMARK    5  A    between atoms: C3_13  and  C4_14 
REMARK    6  A    between atoms: C4_14  and  C5_15 
REMARK    7  A    between atoms: C5_15  and  O3_16 
REMARK    8  A    between atoms: N4_18  and  C6_20 
REMARK    9  A    between atoms: C7_25  and  S1_26 
REMARK   10  A    between atoms: S1_26  and  N7_27 
ROOT
HETATM    1  C5  UNL     1      41.016  12.416  -1.008  1.00  0.00     0.117 C 
HETATM    2  N4  UNL     1      41.478  13.089  -2.088  1.00  0.00    -0.320 N 
ATOM      3  H4  UNL     1      42.228  12.608  -2.585  1.00  0.00     0.169 HD
ENDROOT
BRANCH   1   4
HETATM    4  C4  UNL     1      39.944  12.853  -0.097  1.00  0.00     0.093 C 
BRANCH   4   5
HETATM    5  C3  UNL     1      39.522  11.650   0.743  1.00  0.00     0.112 C 
BRANCH   5   6
HETATM    6  C2  UNL     1      38.324  11.000   0.124  1.00  0.00     0.236 C 
HETATM    7  N3  UNL     1      38.488  10.279  -1.079  1.00  0.00    -0.267 N 
ATOM      8  H3  UNL     1      39.407  10.205  -1.515  1.00  0.00     0.190 HD
HETATM    9  O2  UNL     1      37.198  11.099   0.671  1.00  0.00    -0.272 OA
BRANCH   7  10
HETATM   10  N2  UNL     1      37.368   9.663  -1.670  1.00  0.00    -0.263 N 
ATOM     11  H2  UNL     1      36.637  10.225  -2.105  1.00  0.00     0.190 HD
BRANCH  10  12
HETATM   12  C1  UNL     1      37.272   8.248  -1.653  1.00  0.00     0.229 C 
HETATM   13  N1  UNL     1      38.291   7.538  -1.300  1.00  0.00    -0.364 N 
ATOM     14  H12 UNL     1      38.221   6.520  -1.288  1.00  0.00     0.159 HD
ATOM     15  H11 UNL     1      39.162   7.998  -1.035  1.00  0.00     0.159 HD
BRANCH  12  16
HETATM   16  O1  UNL     1      36.102   7.629  -2.010  1.00  0.00    -0.332 OA
ATOM     17  H1  UNL     1      35.524   7.289  -1.337  1.00  0.00     0.221 HD
ENDBRANCH  12  16
ENDBRANCH  10  12
ENDBRANCH   7  10
ENDBRANCH   5   6
ENDBRANCH   4   5
ENDBRANCH   1   4
BRANCH   1  18
HETATM   18  O3  UNL     1      41.588  11.269  -0.766  1.00  0.00    -0.349 OA
ATOM     19  H3  UNL     1      42.491  11.159  -1.040  1.00  0.00     0.219 HD
ENDBRANCH   1  18
BRANCH   2  20
HETATM   20  C6  UNL     1      41.156  14.205  -2.598  1.00  0.00     0.167 A 
HETATM   21  N5  UNL     1      40.142  14.659  -3.328  1.00  0.00    -0.278 N 
HETATM   22  N6  UNL     1      40.117  15.877  -3.692  1.00  0.00    -0.281 N 
ATOM     23  H5  UNL     1      39.384  14.031  -3.596  1.00  0.00     0.189 HD
HETATM   24  C7  UNL     1      41.084  16.701  -3.355  1.00  0.00     0.208 A 
ATOM     25  H6  UNL     1      39.336  16.220  -4.252  1.00  0.00     0.188 HD
HETATM   26  S2  UNL     1      42.106  15.688  -2.461  1.00  0.00    -0.020 SA
BRANCH  24  27
HETATM   27  S1  UNL     1      41.202  18.410  -3.774  1.00  0.00     0.280 S 
HETATM   28  O4  UNL     1      39.994  18.721  -4.622  1.00  0.00    -0.199 OA
HETATM   29  O5  UNL     1      41.253  19.268  -2.557  1.00  0.00    -0.199 OA
BRANCH  27  30
HETATM   30  N7  UNL     1      42.653  18.634  -4.705  1.00  0.00    -0.323 N 
ATOM     31  H72 UNL     1      42.751  19.266  -5.500  1.00  0.00     0.169 HD
ATOM     32  H71 UNL     1      43.374  18.027  -4.315  1.00  0.00     0.169 HD
ENDBRANCH  27  30
ENDBRANCH  24  27
ENDBRANCH   2  20
TORSDOF 10
ENDMDL
MODEL 3
REMARK VINA RESULT: -7.567944170      1.630      1.724
REMARK  10 active torsions:
REMARK  status: ('A' for Active; 'I' for Inactive)
REMARK    1  A    between atoms: C1_4  and  O1_5 
REMARK    2  A    between atoms: C1_4  and  N2_7 
REMARK    3  A    between atoms: N2_7  and  N3_9 
REMARK       I    between atoms: N3_9  and  C2_11 
REMARK    4  A    between atoms: C2_11  and  C3_13 
REMARK    5  A    between atoms: C3_13  and  C4_14 
REMARK    6  A    between atoms: C4_14  and  C5_15 
REMARK    7  A    between atoms: C5_15  and  O3_16 
REMARK    8  A    between atoms: N4_18  and  C6_20 
REMARK    9  A    between atoms: C7_25  and  S1_26 
REMARK   10  A    between atoms: S1_26  and  N7_27 
ROOT
HETATM    1  C5  UNL     1      41.411  12.406   0.701  1.00  0.00     0.117 C 
HETATM    2  N4  UNL     1      41.722  13.688   0.398  1.00  0.00    -0.320 N 
ATOM      3  H4  UNL     1      42.454  14.085   0.985  1.00  0.00     0.169 HD
ENDROOT
BRANCH   1   4
HETATM    4  C4  UNL     1      40.398  11.569   0.033  1.00  0.00     0.093 C 
BRANCH   4   5
HETATM    5  C3  UNL     1      39.076  11.749   0.774  1.00  0.00     0.112 C 
BRANCH   5   6
HETATM    6  C2  UNL     1      37.994  11.000   0.062  1.00  0.00     0.236 C 
HETATM    7  N3  UNL     1      38.304  10.347  -1.152  1.00  0.00    -0.267 N 
ATOM      8  H3  UNL     1      39.250  10.388  -1.532  1.00  0.00     0.190 HD
HETATM    9  O2  UNL     1      36.834  10.957   0.541  1.00  0.00    -0.272 OA
BRANCH   7  10
HETATM   10  N2  UNL     1      37.294   9.638  -1.830  1.00  0.00    -0.263 N 
ATOM     11  H2  UNL     1      36.617  10.132  -2.411  1.00  0.00     0.190 HD
BRANCH  10  12
HETATM   12  C1  UNL     1      37.231   8.228  -1.693  1.00  0.00     0.229 C 
HETATM   13  N1  UNL     1      38.262   7.577  -1.269  1.00  0.00    -0.364 N 
ATOM     14  H12 UNL     1      38.217   6.562  -1.170  1.00  0.00     0.159 HD
ATOM     15  H11 UNL     1      39.117   8.080  -1.033  1.00  0.00     0.159 HD
BRANCH  12  16
HETATM   16  O1  UNL     1      36.083   7.552  -2.011  1.00  0.00    -0.332 OA
ATOM     17  H1  UNL     1      35.836   7.442  -2.922  1.00  0.00     0.221 HD
ENDBRANCH  12  16
ENDBRANCH  10  12
ENDBRANCH   7  10
ENDBRANCH   5   6
ENDBRANCH   4   5
ENDBRANCH   1   4
BRANCH   1  18
HETATM   18  O3  UNL     1      42.084  11.875   1.685  1.00  0.00    -0.349 OA
ATOM     19  H3  UNL     1      42.651  11.139   1.486  1.00  0.00     0.219 HD
ENDBRANCH   1  18
BRANCH   2  20
HETATM   20  C6  UNL     1      41.274  14.489  -0.478  1.00  0.00     0.167 A 
HETATM   21  N5  UNL     1      40.267  14.481  -1.347  1.00  0.00    -0.278 N 
HETATM   22  N6  UNL     1      40.083  15.479  -2.114  1.00  0.00    -0.281 N 
ATOM     23  H5  UNL     1      39.642  13.676  -1.398  1.00  0.00     0.189 HD
HETATM   24  C7  UNL     1      40.877  16.525  -2.061  1.00  0.00     0.208 A 
ATOM     25  H6  UNL     1      39.309  15.467  -2.779  1.00  0.00     0.188 HD
HETATM   26  S2  UNL     1      41.965  16.073  -0.843  1.00  0.00    -0.020 SA
BRANCH  24  27
HETATM   27  S1  UNL     1      40.762  17.982  -3.047  1.00  0.00     0.280 S 
HETATM   28  O4  UNL     1      39.290  18.222  -3.275  1.00  0.00    -0.199 OA
HETATM   29  O5  UNL     1      41.410  19.146  -2.380  1.00  0.00    -0.199 OA
BRANCH  27  30
HETATM   30  N7  UNL     1      41.552  17.666  -4.564  1.00  0.00    -0.323 N 
ATOM     31  H72 UNL     1      41.259  16.967  -5.246  1.00  0.00     0.169 HD
ATOM     32  H71 UNL     1      42.348  18.299  -4.641  1.00  0.00     0.169 HD
ENDBRANCH  27  30
ENDBRANCH  24  27
ENDBRANCH   2  20
TORSDOF 10
ENDMDL
MODEL 4
REMARK VINA RESULT: -7.508051657      2.423      2.695
REMARK  10 active torsions:
REMARK  status: ('A' for Active; 'I' for Inactive)
REMARK    1  A    between atoms: C1_4  and  O1_5 
REMARK    2  A    between atoms: C1_4  and  N2_7 
REMARK    3  A    between atoms: N2_7  and  N3_9 
REMARK       I    between atoms: N3_9  and  C2_11 
REMARK    4  A    between atoms: C2_11  and  C3_13 
REMARK    5  A    between atoms: C3_13  and  C4_14 
REMARK    6  A    between atoms: C4_14  and  C5_15 
REMARK    7  A    between atoms: C5_15  and  O3_16 
REMARK    8  A    between atoms: N4_18  and  C6_20 
REMARK    9  A    between atoms: C7_25  and  S1_26 
REMARK   10  A    between atoms: S1_26  and  N7_27 
ROOT
HETATM    1  C5  UNL     1      41.132  12.594  -0.732  1.00  0.00     0.117 C 
HETATM    2  N4  UNL     1      42.061  13.502  -1.113  1.00  0.00    -0.320 N 
ATOM      3  H4  UNL     1      42.930  13.088  -1.448  1.00  0.00     0.169 HD
ENDROOT
BRANCH   1   4
HETATM    4  C4  UNL     1      39.786  12.885  -0.207  1.00  0.00     0.093 C 
BRANCH   4   5
HETATM    5  C3  UNL     1      39.374  11.727   0.698  1.00  0.00     0.112 C 
BRANCH   5   6
HETATM    6  C2  UNL     1      38.188  11.028   0.112  1.00  0.00     0.236 C 
HETATM    7  N3  UNL     1      38.344  10.324  -1.103  1.00  0.00    -0.267 N 
ATOM      8  H3  UNL     1      39.251  10.296  -1.569  1.00  0.00     0.190 HD
HETATM    9  O2  UNL     1      37.077  11.070   0.696  1.00  0.00    -0.272 OA
BRANCH   7  10
HETATM   10  N2  UNL     1      37.235   9.662  -1.663  1.00  0.00    -0.263 N 
ATOM     11  H2  UNL     1      36.465  10.195  -2.069  1.00  0.00     0.190 HD
BRANCH  10  12
HETATM   12  C1  UNL     1      37.202   8.245  -1.654  1.00  0.00     0.229 C 
HETATM   13  N1  UNL     1      38.258   7.579  -1.322  1.00  0.00    -0.364 N 
ATOM     14  H12 UNL     1      38.234   6.559  -1.316  1.00  0.00     0.159 HD
ATOM     15  H11 UNL     1      39.111   8.076  -1.067  1.00  0.00     0.159 HD
BRANCH  12  16
HETATM   16  O1  UNL     1      36.056   7.576  -1.997  1.00  0.00    -0.332 OA
ATOM     17  H1  UNL     1      35.799   7.517  -2.911  1.00  0.00     0.221 HD
ENDBRANCH  12  16
ENDBRANCH  10  12
ENDBRANCH   7  10
ENDBRANCH   5   6
ENDBRANCH   4   5
ENDBRANCH   1   4
BRANCH   1  18
HETATM   18  O3  UNL     1      41.481  11.341  -0.846  1.00  0.00    -0.349 OA
ATOM     19  H3  UNL     1      41.792  11.046  -1.694  1.00  0.00     0.219 HD
ENDBRANCH   1  18
BRANCH   2  20
HETATM   20  C6  UNL     1      42.054  14.770  -1.132  1.00  0.00     0.167 A 
HETATM   21  N5  UNL     1      41.883  15.734  -0.232  1.00  0.00    -0.278 N 
HETATM   22  N6  UNL     1      41.937  16.953  -0.590  1.00  0.00    -0.281 N 
ATOM     23  H5  UNL     1      41.709  15.496   0.744  1.00  0.00     0.189 HD
HETATM   24  C7  UNL     1      42.161  17.279  -1.843  1.00  0.00     0.208 A 
ATOM     25  H6  UNL     1      41.805  17.688   0.105  1.00  0.00     0.188 HD
HETATM   26  S2  UNL     1      42.306  15.758  -2.576  1.00  0.00    -0.020 SA
BRANCH  24  27
HETATM   27  S1  UNL     1      42.267  18.911  -2.502  1.00  0.00     0.280 S 
HETATM   28  O4  UNL     1      41.960  19.847  -1.360  1.00  0.00    -0.199 OA
HETATM   29  O5  UNL     1      43.613  19.179  -3.083  1.00  0.00    -0.199 OA
BRANCH  27  30
HETATM   30  N7  UNL     1      41.056  19.068  -3.740  1.00  0.00    -0.323 N 
ATOM     31  H72 UNL     1      41.025  19.808  -4.442  1.00  0.00     0.169 HD
ATOM     32  H71 UNL     1      40.397  18.297  -3.635  1.00  0.00     0.169 HD
ENDBRANCH  27  30
ENDBRANCH  24  27
ENDBRANCH   2  20
TORSDOF 10
ENDMDL
MODEL 5
REMARK VINA RESULT: -7.303242738      1.996      2.257
REMARK  10 active torsions:
REMARK  status: ('A' for Active; 'I' for Inactive)
REMARK    1  A    between atoms: C1_4  and  O1_5 
REMARK    2  A    between atoms: C1_4  and  N2_7 
REMARK    3  A    between atoms: N2_7  and  N3_9 
REMARK       I    between atoms: N3_9  and  C2_11 
REMARK    4  A    between atoms: C2_11  and  C3_13 
REMARK    5  A    between atoms: C3_13  and  C4_14 
REMARK    6  A    between atoms: C4_14  and  C5_15 
REMARK    7  A    between atoms: C5_15  and  O3_16 
REMARK    8  A    between atoms: N4_18  and  C6_20 
REMARK    9  A    between atoms: C7_25  and  S1_26 
REMARK   10  A    between atoms: S1_26  and  N7_27 
ROOT
HETATM    1  C5  UNL     1      40.993  10.459  -0.434  1.00  0.00     0.117 C 
HETATM    2  N4  UNL     1      41.507  11.349  -1.315  1.00  0.00    -0.320 N 
ATOM      3  H4  UNL     1      41.889  10.923  -2.158  1.00  0.00     0.169 HD
ENDROOT
BRANCH   1   4
HETATM    4  C4  UNL     1      40.373  10.771   0.866  1.00  0.00     0.093 C 
BRANCH   4   5
HETATM    5  C3  UNL     1      39.211  11.727   0.616  1.00  0.00     0.112 C 
BRANCH   5   6
HETATM    6  C2  UNL     1      38.060  10.976   0.022  1.00  0.00     0.236 C 
HETATM    7  N3  UNL     1      38.232  10.346  -1.230  1.00  0.00    -0.267 N 
ATOM      8  H3  UNL     1      39.126  10.406  -1.719  1.00  0.00     0.190 HD
HETATM    9  O2  UNL     1      36.965  10.910   0.634  1.00  0.00    -0.272 OA
BRANCH   7  10
HETATM   10  N2  UNL     1      37.157   9.637  -1.797  1.00  0.00    -0.263 N 
ATOM     11  H2  UNL     1      36.397  10.133  -2.263  1.00  0.00     0.190 HD
BRANCH  10  12
HETATM   12  C1  UNL     1      37.145   8.221  -1.713  1.00  0.00     0.229 C 
HETATM   13  N1  UNL     1      38.199   7.592  -1.311  1.00  0.00    -0.364 N 
ATOM     14  H12 UNL     1      38.190   6.574  -1.250  1.00  0.00     0.159 HD
ATOM     15  H11 UNL     1      39.035   8.116  -1.056  1.00  0.00     0.159 HD
BRANCH  12  16
HETATM   16  O1  UNL     1      36.021   7.516  -2.056  1.00  0.00    -0.332 OA
ATOM     17  H1  UNL     1      35.176   7.776  -1.707  1.00  0.00     0.221 HD
ENDBRANCH  12  16
ENDBRANCH  10  12
ENDBRANCH   7  10
ENDBRANCH   5   6
ENDBRANCH   4   5
ENDBRANCH   1   4
BRANCH   1  18
HETATM   18  O3  UNL     1      41.062   9.205  -0.788  1.00  0.00    -0.349 OA
ATOM     19  H3  UNL     1      41.249   9.013  -1.700  1.00  0.00     0.219 HD
ENDBRANCH   1  18
BRANCH   2  20
HETATM   20  C6  UNL     1      41.602  12.614  -1.289  1.00  0.00     0.167 A 
HETATM   21  N5  UNL     1      42.448  13.493  -0.759  1.00  0.00    -0.278 N 
HETATM   22  N6  UNL     1      42.253  14.739  -0.924  1.00  0.00    -0.281 N 
ATOM     23  H5  UNL     1      43.251  13.168  -0.221  1.00  0.00     0.189 HD
HETATM   24  C7  UNL     1      41.224  15.175  -1.614  1.00  0.00     0.208 A 
ATOM     25  H6  UNL     1      42.905  15.409  -0.514  1.00  0.00     0.188 HD
HETATM   26  S2  UNL     1      40.471  13.726  -2.066  1.00  0.00    -0.020 SA
BRANCH  24  27
HETATM   27  S1  UNL     1      40.812  16.859  -1.935  1.00  0.00     0.280 S 
HETATM   28  O4  UNL     1      39.584  16.834  -2.811  1.00  0.00    -0.199 OA
HETATM   29  O5  UNL     1      40.569  17.612  -0.673  1.00  0.00    -0.199 OA
BRANCH  27  30
HETATM   30  N7  UNL     1      42.139  17.580  -2.797  1.00  0.00    -0.323 N 
ATOM     31  H72 UNL     1      43.096  17.652  -2.451  1.00  0.00     0.169 HD
ATOM     32  H71 UNL     1      41.788  17.911  -3.696  1.00  0.00     0.169 HD
ENDBRANCH  27  30
ENDBRANCH  24  27
ENDBRANCH   2  20
TORSDOF 10
ENDMDL
