MODEL 1
REMARK VINA RESULT: -7.759809329      0.000      0.000
REMARK  7 active torsions:
REMARK  status: ('A' for Active; 'I' for Inactive)
REMARK    1  A    between atoms: C5_14  and  C6_15 
REMARK       I    between atoms: C6_15  and  N5_17 
REMARK    2  A    between atoms: N5_17  and  C7_19 
REMARK    3  A    between atoms: N10_27  and  C8_28 
REMARK    4  A    between atoms: C8_28  and  C9_29 
REMARK    5  A    between atoms: C9_29  and  N11_30 
REMARK    6  A    between atoms: C9_29  and  C10_34 
REMARK    7  A    between atoms: C10_34  and  C11_35 
ROOT
HETATM    1  N1  UNL     1      45.147   9.702   0.601  1.00  0.00    -0.383 N 
ATOM      2  H11 UNL     1      44.395   9.038   0.414  1.00  0.00     0.157 HD
ATOM      3  H12 UNL     1      46.075   9.322   0.785  1.00  0.00     0.157 HD
HETATM    4  C1  UNL     1      44.892  10.960   0.596  1.00  0.00     0.131 A 
HETATM    5  N2  UNL     1      45.878  11.833   0.841  1.00  0.00    -0.337 N 
ATOM      6  H2  UNL     1      46.822  11.493   1.030  1.00  0.00     0.168 HD
HETATM    7  C2  UNL     1      45.629  13.160   0.840  1.00  0.00     0.183 A 
HETATM    8  N3  UNL     1      44.380  13.646   0.591  1.00  0.00    -0.336 N 
ATOM      9  H3  UNL     1      44.224  14.655   0.595  1.00  0.00     0.168 HD
HETATM   10  C3  UNL     1      43.353  12.821   0.340  1.00  0.00     0.141 A 
HETATM   11  C4  UNL     1      43.627  11.479   0.345  1.00  0.00     0.122 A 
HETATM   12  N4  UNL     1      42.504  10.854   0.061  1.00  0.00    -0.332 N 
ATOM     13  H4  UNL     1      42.388   9.844  -0.008  1.00  0.00     0.168 HD
HETATM   14  C5  UNL     1      41.514  11.787  -0.127  1.00  0.00     0.180 A 
HETATM   15  N10 UNL     1      42.040  13.019   0.052  1.00  0.00    -0.311 N 
ENDROOT
BRANCH  14  16
HETATM   16  C6  UNL     1      40.178  11.372  -0.499  1.00  0.00     0.304 C 
HETATM   17  O1  UNL     1      39.633  11.759  -1.538  1.00  0.00    -0.263 OA
HETATM   18  N5  UNL     1      39.457  10.488   0.354  1.00  0.00    -0.150 N 
ATOM     19  H5  UNL     1      38.999  10.825   1.201  1.00  0.00     0.188 HD
BRANCH  18  20
HETATM   20  C7  UNL     1      39.408   9.248   0.015  1.00  0.00     0.713 A 
HETATM   21  N6  UNL     1      40.100   8.187   0.422  1.00  0.00    -0.113 N 
HETATM   22  N7  UNL     1      39.701   7.098  -0.214  1.00  0.00     0.009 NA
ATOM     23  H6  UNL     1      40.836   8.211   1.127  1.00  0.00     0.203 HD
HETATM   24  N8  UNL     1      38.740   7.497  -1.033  1.00  0.00    -0.212 N 
HETATM   25  N9  UNL     1      38.540   8.785  -0.919  1.00  0.00    -0.118 N 
ATOM     26  H8  UNL     1      38.226   6.884  -1.667  1.00  0.00     0.206 HD
ATOM     27  H9  UNL     1      37.857   9.338  -1.437  1.00  0.00     0.207 HD
ENDBRANCH  18  20
ENDBRANCH  14  16
BRANCH  15  28
HETATM   28  C8  UNL     1      41.370  14.288  -0.032  1.00  0.00     0.165 C 
BRANCH  28  29
HETATM   29  C9  UNL     1      41.063  14.823  -1.369  1.00  0.00     0.211 C 
BRANCH  29  30
HETATM   30  N11 UNL     1      39.674  14.878  -1.759  1.00  0.00    -0.073 N 
ATOM     31 3H11 UNL     1      39.473  14.113  -2.403  1.00  0.00     0.274 HD
ATOM     32 2H11 UNL     1      39.090  14.617  -0.965  1.00  0.00     0.274 HD
ATOM     33 1H11 UNL     1      39.333  15.753  -2.157  1.00  0.00     0.274 HD
ENDBRANCH  29  30
BRANCH  29  34
HETATM   34  C10 UNL     1      41.756  16.103  -1.770  1.00  0.00     0.147 C 
BRANCH  34  35
HETATM   35  C11 UNL     1      40.847  17.273  -1.480  1.00  0.00     0.174 C 
HETATM   36  O2  UNL     1      40.631  17.637  -0.293  1.00  0.00    -0.648 OA
HETATM   37  O3  UNL     1      40.266  17.928  -2.558  1.00  0.00    -0.648 OA
ENDBRANCH  34  35
ENDBRANCH  29  34
ENDBRANCH  28  29
ENDBRANCH  15  28
TORSDOF 7
ENDMDL
MODEL 2
REMARK VINA RESULT: -7.586534187      2.418      2.456
REMARK  7 active torsions:
REMARK  status: ('A' for Active; 'I' for Inactive)
REMARK    1  A    between atoms: C5_14  and  C6_15 
REMARK       I    between atoms: C6_15  and  N5_17 
REMARK    2  A    between atoms: N5_17  and  C7_19 
REMARK    3  A    between atoms: N10_27  and  C8_28 
REMARK    4  A    between atoms: C8_28  and  C9_29 
REMARK    5  A    between atoms: C9_29  and  N11_30 
REMARK    6  A    between atoms: C9_29  and  C10_34 
REMARK    7  A    between atoms: C10_34  and  C11_35 
ROOT
HETATM    1  N1  UNL     1      44.282   9.090  -4.028  1.00  0.00    -0.383 N 
ATOM      2  H11 UNL     1      43.522   8.524  -3.648  1.00  0.00     0.157 HD
ATOM      3  H12 UNL     1      44.983   8.614  -4.595  1.00  0.00     0.157 HD
HETATM    4  C1  UNL     1      44.316  10.348  -3.779  1.00  0.00     0.131 A 
HETATM    5  N2  UNL     1      45.312  11.092  -4.278  1.00  0.00    -0.337 N 
ATOM      6  H2  UNL     1      46.035  10.654  -4.850  1.00  0.00     0.168 HD
HETATM    7  C2  UNL     1      45.365  12.417  -4.026  1.00  0.00     0.183 A 
HETATM    8  N3  UNL     1      44.416  13.032  -3.266  1.00  0.00    -0.336 N 
ATOM      9  H3  UNL     1      44.482  14.036  -3.095  1.00  0.00     0.168 HD
HETATM   10  C3  UNL     1      43.396  12.340  -2.738  1.00  0.00     0.141 A 
HETATM   11  C4  UNL     1      43.360  10.997  -3.006  1.00  0.00     0.122 A 
HETATM   12  N4  UNL     1      42.284  10.515  -2.421  1.00  0.00    -0.332 N 
ATOM     13  H4  UNL     1      41.985   9.540  -2.439  1.00  0.00     0.168 HD
HETATM   14  C5  UNL     1      41.631  11.540  -1.781  1.00  0.00     0.180 A 
HETATM   15  N10 UNL     1      42.326  12.682  -1.974  1.00  0.00    -0.311 N 
ENDROOT
BRANCH  14  16
HETATM   16  C6  UNL     1      40.382  11.294  -1.091  1.00  0.00     0.304 C 
HETATM   17  O1  UNL     1      39.321  11.819  -1.442  1.00  0.00    -0.263 OA
HETATM   18  N5  UNL     1      40.365  10.420   0.033  1.00  0.00    -0.150 N 
ATOM     19  H5  UNL     1      40.686  10.730   0.951  1.00  0.00     0.188 HD
BRANCH  18  20
HETATM   20  C7  UNL     1      39.931   9.224  -0.155  1.00  0.00     0.713 A 
HETATM   21  N6  UNL     1      40.378   8.040   0.257  1.00  0.00    -0.113 N 
HETATM   22  N7  UNL     1      39.599   7.067  -0.186  1.00  0.00     0.009 NA
ATOM     23  H6  UNL     1      41.207   7.903   0.835  1.00  0.00     0.203 HD
HETATM   24  N8  UNL     1      38.648   7.664  -0.888  1.00  0.00    -0.212 N 
HETATM   25  N9  UNL     1      38.819   8.961  -0.888  1.00  0.00    -0.118 N 
ATOM     26  H8  UNL     1      37.887   7.179  -1.364  1.00  0.00     0.206 HD
ATOM     27  H9  UNL     1      38.227   9.648  -1.354  1.00  0.00     0.207 HD
ENDBRANCH  18  20
ENDBRANCH  14  16
BRANCH  15  28
HETATM   28  C8  UNL     1      42.022  13.997  -1.477  1.00  0.00     0.165 C 
BRANCH  28  29
HETATM   29  C9  UNL     1      41.085  14.830  -2.248  1.00  0.00     0.211 C 
BRANCH  29  30
HETATM   30  N11 UNL     1      39.692  14.786  -1.870  1.00  0.00    -0.073 N 
ATOM     31 3H11 UNL     1      39.612  14.901  -0.860  1.00  0.00     0.274 HD
ATOM     32 2H11 UNL     1      39.227  15.633  -2.197  1.00  0.00     0.274 HD
ATOM     33 1H11 UNL     1      39.153  13.970  -2.160  1.00  0.00     0.274 HD
ENDBRANCH  29  30
BRANCH  29  34
HETATM   34  C10 UNL     1      41.496  16.259  -2.512  1.00  0.00     0.147 C 
BRANCH  34  35
HETATM   35  C11 UNL     1      40.502  17.191  -1.863  1.00  0.00     0.174 C 
HETATM   36  O2  UNL     1      40.569  17.442  -0.630  1.00  0.00    -0.648 OA
HETATM   37  O3  UNL     1      39.522  17.758  -2.667  1.00  0.00    -0.648 OA
ENDBRANCH  34  35
ENDBRANCH  29  34
ENDBRANCH  28  29
ENDBRANCH  15  28
TORSDOF 7
ENDMDL
MODEL 3
REMARK VINA RESULT: -7.571209633      2.276      3.333
REMARK  7 active torsions:
REMARK  status: ('A' for Active; 'I' for Inactive)
REMARK    1  A    between atoms: C5_14  and  C6_15 
REMARK       I    between atoms: C6_15  and  N5_17 
REMARK    2  A    between atoms: N5_17  and  C7_19 
REMARK    3  A    between atoms: N10_27  and  C8_28 
REMARK    4  A    between atoms: C8_28  and  C9_29 
REMARK    5  A    between atoms: C9_29  and  N11_30 
REMARK    6  A    between atoms: C9_29  and  C10_34 
REMARK    7  A    between atoms: C10_34  and  C11_35 
ROOT
HETATM    1  N1  UNL     1      43.813   7.878  -3.330  1.00  0.00    -0.383 N 
ATOM      2  H11 UNL     1      42.965   7.329  -3.185  1.00  0.00     0.157 HD
ATOM      3  H12 UNL     1      44.449   7.573  -4.067  1.00  0.00     0.157 HD
HETATM    4  C1  UNL     1      44.034   8.904  -2.592  1.00  0.00     0.131 A 
HETATM    5  N2  UNL     1      45.147   9.625  -2.782  1.00  0.00    -0.337 N 
ATOM      6  H2  UNL     1      45.809   9.355  -3.509  1.00  0.00     0.168 HD
HETATM    7  C2  UNL     1      45.395  10.709  -2.015  1.00  0.00     0.183 A 
HETATM    8  N3  UNL     1      44.531  11.097  -1.035  1.00  0.00    -0.336 N 
ATOM      9  H3  UNL     1      44.746  11.921  -0.473  1.00  0.00     0.168 HD
HETATM   10  C3  UNL     1      43.402  10.414  -0.797  1.00  0.00     0.141 A 
HETATM   11  C4  UNL     1      43.167   9.318  -1.587  1.00  0.00     0.122 A 
HETATM   12  N4  UNL     1      42.014   8.810  -1.209  1.00  0.00    -0.332 N 
ATOM     13  H4  UNL     1      41.569   7.985  -1.612  1.00  0.00     0.168 HD
HETATM   14  C5  UNL     1      41.508   9.572  -0.185  1.00  0.00     0.180 A 
HETATM   15  N10 UNL     1      42.376  10.573   0.079  1.00  0.00    -0.311 N 
ENDROOT
BRANCH  14  16
HETATM   16  C6  UNL     1      40.217   9.259   0.391  1.00  0.00     0.304 C 
HETATM   17  O1  UNL     1      39.753   9.886   1.348  1.00  0.00    -0.263 OA
HETATM   18  N5  UNL     1      39.448   8.193  -0.156  1.00  0.00    -0.150 N 
ATOM     19  H5  UNL     1      39.660   7.219   0.064  1.00  0.00     0.188 HD
BRANCH  18  20
HETATM   20  C7  UNL     1      38.475   8.506  -0.937  1.00  0.00     0.713 A 
HETATM   21  N6  UNL     1      37.546   7.768  -1.540  1.00  0.00    -0.113 N 
HETATM   22  N7  UNL     1      36.740   8.530  -2.260  1.00  0.00     0.009 NA
ATOM     23  H6  UNL     1      37.467   6.754  -1.458  1.00  0.00     0.203 HD
HETATM   24  N8  UNL     1      37.182   9.768  -2.098  1.00  0.00    -0.212 N 
HETATM   25  N9  UNL     1      38.224   9.787  -1.308  1.00  0.00    -0.118 N 
ATOM     26  H8  UNL     1      36.766  10.593  -2.530  1.00  0.00     0.206 HD
ATOM     27  H9  UNL     1      38.751  10.612  -1.024  1.00  0.00     0.207 HD
ENDBRANCH  18  20
ENDBRANCH  14  16
BRANCH  15  28
HETATM   28  C8  UNL     1      42.264  11.600   1.078  1.00  0.00     0.165 C 
BRANCH  28  29
HETATM   29  C9  UNL     1      41.729  12.910   0.670  1.00  0.00     0.211 C 
BRANCH  29  30
HETATM   30  N11 UNL     1      42.329  13.542  -0.480  1.00  0.00    -0.073 N 
ATOM     31 3H11 UNL     1      43.185  14.019  -0.196  1.00  0.00     0.274 HD
ATOM     32 2H11 UNL     1      42.706  12.827  -1.101  1.00  0.00     0.274 HD
ATOM     33 1H11 UNL     1      41.748  14.185  -1.019  1.00  0.00     0.274 HD
ENDBRANCH  29  30
BRANCH  29  34
HETATM   34  C10 UNL     1      40.227  13.044   0.600  1.00  0.00     0.147 C 
BRANCH  34  35
HETATM   35  C11 UNL     1      39.815  13.291  -0.831  1.00  0.00     0.174 C 
HETATM   36  O2  UNL     1      39.790  12.345  -1.663  1.00  0.00    -0.648 OA
HETATM   37  O3  UNL     1      39.468  14.585  -1.193  1.00  0.00    -0.648 OA
ENDBRANCH  34  35
ENDBRANCH  29  34
ENDBRANCH  28  29
ENDBRANCH  15  28
TORSDOF 7
ENDMDL
MODEL 4
REMARK VINA RESULT: -7.556772062      2.795      4.349
REMARK  7 active torsions:
REMARK  status: ('A' for Active; 'I' for Inactive)
REMARK    1  A    between atoms: C5_14  and  C6_15 
REMARK       I    between atoms: C6_15  and  N5_17 
REMARK    2  A    between atoms: N5_17  and  C7_19 
REMARK    3  A    between atoms: N10_27  and  C8_28 
REMARK    4  A    between atoms: C8_28  and  C9_29 
REMARK    5  A    between atoms: C9_29  and  N11_30 
REMARK    6  A    between atoms: C9_29  and  C10_34 
REMARK    7  A    between atoms: C10_34  and  C11_35 
ROOT
HETATM    1  N1  UNL     1      39.675   9.120   0.836  1.00  0.00    -0.383 N 
ATOM      2  H11 UNL     1      40.327   8.457   0.413  1.00  0.00     0.157 HD
ATOM      3  H12 UNL     1      39.031   8.760   1.541  1.00  0.00     0.157 HD
HETATM    4  C1  UNL     1      39.698  10.349   0.468  1.00  0.00     0.131 A 
HETATM    5  N2  UNL     1      38.844  11.218   1.022  1.00  0.00    -0.337 N 
ATOM      6  H2  UNL     1      38.182  10.899   1.731  1.00  0.00     0.168 HD
HETATM    7  C2  UNL     1      38.853  12.516   0.647  1.00  0.00     0.183 A 
HETATM    8  N3  UNL     1      39.723  12.974  -0.297  1.00  0.00    -0.336 N 
ATOM      9  H3  UNL     1      39.706  13.960  -0.558  1.00  0.00     0.168 HD
HETATM   10  C3  UNL     1      40.600  12.150  -0.888  1.00  0.00     0.141 A 
HETATM   11  C4  UNL     1      40.576  10.838  -0.493  1.00  0.00     0.122 A 
HETATM   12  N4  UNL     1      41.515  10.213  -1.170  1.00  0.00    -0.332 N 
ATOM     13  H4  UNL     1      41.741   9.222  -1.094  1.00  0.00     0.168 HD
HETATM   14  C5  UNL     1      42.141  11.115  -1.995  1.00  0.00     0.180 A 
HETATM   15  N10 UNL     1      41.568  12.327  -1.825  1.00  0.00    -0.311 N 
ENDROOT
BRANCH  14  16
HETATM   16  C6  UNL     1      43.254  10.700  -2.823  1.00  0.00     0.304 C 
HETATM   17  O1  UNL     1      44.325  11.313  -2.844  1.00  0.00    -0.263 OA
HETATM   18  N5  UNL     1      43.118   9.547  -3.648  1.00  0.00    -0.150 N 
ATOM     19  H5  UNL     1      42.613   9.585  -4.534  1.00  0.00     0.188 HD
BRANCH  18  20
HETATM   20  C7  UNL     1      43.656   8.455  -3.232  1.00  0.00     0.713 A 
HETATM   21  N6  UNL     1      44.899   7.987  -3.318  1.00  0.00    -0.113 N 
HETATM   22  N7  UNL     1      44.992   6.802  -2.739  1.00  0.00     0.009 NA
ATOM     23  H6  UNL     1      45.673   8.476  -3.768  1.00  0.00     0.203 HD
HETATM   24  N8  UNL     1      43.779   6.531  -2.284  1.00  0.00    -0.212 N 
HETATM   25  N9  UNL     1      42.952   7.506  -2.565  1.00  0.00    -0.118 N 
ATOM     26  H8  UNL     1      43.523   5.680  -1.784  1.00  0.00     0.206 HD
ATOM     27  H9  UNL     1      41.961   7.545  -2.326  1.00  0.00     0.207 HD
ENDBRANCH  18  20
ENDBRANCH  14  16
BRANCH  15  28
HETATM   28  C8  UNL     1      41.892  13.559  -2.490  1.00  0.00     0.165 C 
BRANCH  28  29
HETATM   29  C9  UNL     1      42.751  14.524  -1.783  1.00  0.00     0.211 C 
BRANCH  29  30
HETATM   30  N11 UNL     1      44.176  14.417  -1.985  1.00  0.00    -0.073 N 
ATOM     31 3H11 UNL     1      44.480  15.139  -2.639  1.00  0.00     0.274 HD
ATOM     32 2H11 UNL     1      44.660  14.712  -1.137  1.00  0.00     0.274 HD
ATOM     33 1H11 UNL     1      44.541  13.514  -2.286  1.00  0.00     0.274 HD
ENDBRANCH  29  30
BRANCH  29  34
HETATM   34  C10 UNL     1      42.336  15.975  -1.835  1.00  0.00     0.147 C 
BRANCH  34  35
HETATM   35  C11 UNL     1      41.491  16.295  -0.625  1.00  0.00     0.174 C 
HETATM   36  O2  UNL     1      41.489  15.529   0.376  1.00  0.00    -0.648 OA
HETATM   37  O3  UNL     1      40.724  17.452  -0.655  1.00  0.00    -0.648 OA
ENDBRANCH  34  35
ENDBRANCH  29  34
ENDBRANCH  28  29
ENDBRANCH  15  28
TORSDOF 7
ENDMDL
MODEL 5
REMARK VINA RESULT: -7.542857520      3.018      4.546
REMARK  7 active torsions:
REMARK  status: ('A' for Active; 'I' for Inactive)
REMARK    1  A    between atoms: C5_14  and  C6_15 
REMARK       I    between atoms: C6_15  and  N5_17 
REMARK    2  A    between atoms: N5_17  and  C7_19 
REMARK    3  A    between atoms: N10_27  and  C8_28 
REMARK    4  A    between atoms: C8_28  and  C9_29 
REMARK    5  A    between atoms: C9_29  and  N11_30 
REMARK    6  A    between atoms: C9_29  and  C10_34 
REMARK    7  A    between atoms: C10_34  and  C11_35 
ROOT
HETATM    1  N1  UNL     1      39.489   8.867   0.593  1.00  0.00    -0.383 N 
ATOM      2  H11 UNL     1      40.125   8.222   0.122  1.00  0.00     0.157 HD
ATOM      3  H12 UNL     1      38.805   8.466   1.236  1.00  0.00     0.157 HD
HETATM    4  C1  UNL     1      39.579  10.125   0.358  1.00  0.00     0.131 A 
HETATM    5  N2  UNL     1      38.745  10.972   0.976  1.00  0.00    -0.337 N 
ATOM      6  H2  UNL     1      38.046  10.612   1.626  1.00  0.00     0.168 HD
HETATM    7  C2  UNL     1      38.825  12.299   0.741  1.00  0.00     0.183 A 
HETATM    8  N3  UNL     1      39.747  12.812  -0.122  1.00  0.00    -0.336 N 
ATOM      9  H3  UNL     1      39.784  13.820  -0.277  1.00  0.00     0.168 HD
HETATM   10  C3  UNL     1      40.608  12.014  -0.770  1.00  0.00     0.141 A 
HETATM   11  C4  UNL     1      40.511  10.670  -0.517  1.00  0.00     0.122 A 
HETATM   12  N4  UNL     1      41.445  10.075  -1.228  1.00  0.00    -0.332 N 
ATOM     13  H4  UNL     1      41.624   9.072  -1.252  1.00  0.00     0.168 HD
HETATM   14  C5  UNL     1      42.139  11.028  -1.933  1.00  0.00     0.180 A 
HETATM   15  N10 UNL     1      41.615  12.241  -1.653  1.00  0.00    -0.311 N 
ENDROOT
BRANCH  14  16
HETATM   16  C6  UNL     1      43.261  10.649  -2.767  1.00  0.00     0.304 C 
HETATM   17  O1  UNL     1      44.324  11.277  -2.767  1.00  0.00    -0.263 OA
HETATM   18  N5  UNL     1      43.144   9.515  -3.621  1.00  0.00    -0.150 N 
ATOM     19  H5  UNL     1      42.643   9.569  -4.508  1.00  0.00     0.188 HD
BRANCH  18  20
HETATM   20  C7  UNL     1      43.696   8.421  -3.231  1.00  0.00     0.713 A 
HETATM   21  N6  UNL     1      44.944   7.971  -3.327  1.00  0.00    -0.113 N 
HETATM   22  N7  UNL     1      45.052   6.773  -2.776  1.00  0.00     0.009 NA
ATOM     23  H6  UNL     1      45.712   8.479  -3.765  1.00  0.00     0.203 HD
HETATM   24  N8  UNL     1      43.841   6.477  -2.329  1.00  0.00    -0.212 N 
HETATM   25  N9  UNL     1      43.003   7.448  -2.587  1.00  0.00    -0.118 N 
ATOM     26  H8  UNL     1      43.596   5.611  -1.849  1.00  0.00     0.206 HD
ATOM     27  H9  UNL     1      42.011   7.469  -2.348  1.00  0.00     0.207 HD
ENDBRANCH  18  20
ENDBRANCH  14  16
BRANCH  15  28
HETATM   28  C8  UNL     1      42.017  13.520  -2.173  1.00  0.00     0.165 C 
BRANCH  28  29
HETATM   29  C9  UNL     1      41.071  14.246  -3.036  1.00  0.00     0.211 C 
BRANCH  29  30
HETATM   30  N11 UNL     1      40.171  15.177  -2.398  1.00  0.00    -0.073 N 
ATOM     31 3H11 UNL     1      39.575  14.675  -1.740  1.00  0.00     0.274 HD
ATOM     32 2H11 UNL     1      40.699  15.774  -1.761  1.00  0.00     0.274 HD
ATOM     33 1H11 UNL     1      39.590  15.758  -3.003  1.00  0.00     0.274 HD
ENDBRANCH  29  30
BRANCH  29  34
HETATM   34  C10 UNL     1      41.627  14.858  -4.299  1.00  0.00     0.147 C 
BRANCH  34  35
HETATM   35  C11 UNL     1      40.522  15.580  -5.031  1.00  0.00     0.174 C 
HETATM   36  O2  UNL     1      40.589  16.823  -5.228  1.00  0.00    -0.648 OA
HETATM   37  O3  UNL     1      39.441  14.831  -5.477  1.00  0.00    -0.648 OA
ENDBRANCH  34  35
ENDBRANCH  29  34
ENDBRANCH  28  29
ENDBRANCH  15  28
TORSDOF 7
ENDMDL
