MODEL 1
REMARK VINA RESULT: -7.481447320      0.000      0.000
REMARK  7 active torsions:
REMARK  status: ('A' for Active; 'I' for Inactive)
REMARK    1  A    between atoms: C7_7  and  C8_8 
REMARK    2  A    between atoms: N2_11  and  C9_12 
REMARK    3  A    between atoms: C9_12  and  O2_13 
REMARK    4  A    between atoms: C9_12  and  C10_15 
REMARK    5  A    between atoms: C10_15  and  C11_16 
REMARK    6  A    between atoms: C10_15  and  C12_19 
REMARK    7  A    between atoms: N4_21  and  N5_23 
ROOT
HETATM    1  C1  UNL     1      38.614  11.456   0.564  1.00  0.00     0.038 C 
HETATM    2  C2  UNL     1      39.873  11.987  -0.015  1.00  0.00     0.025 C 
HETATM    3  C3  UNL     1      40.593  10.980  -0.864  1.00  0.00     0.038 C 
HETATM    4  C4  UNL     1      40.760  12.427   1.197  1.00  0.00     0.042 C 
HETATM    5  C5  UNL     1      41.650  13.356   0.446  1.00  0.00     0.058 C 
HETATM    6  C6  UNL     1      42.225  14.526   1.153  1.00  0.00     0.047 C 
HETATM    7  C7  UNL     1      42.571  15.449  -0.104  1.00  0.00     0.178 C 
HETATM    8  N2  UNL     1      41.283  15.335  -0.775  1.00  0.00    -0.330 N 
HETATM    9  C13 UNL     1      40.724  14.037  -0.529  1.00  0.00     0.083 C 
HETATM   10  N6  UNL     1      39.724  13.220  -0.768  1.00  0.00    -0.371 N 
ATOM     11  H6  UNL     1      38.948  13.422  -1.398  1.00  0.00     0.161 HD
ENDROOT
BRANCH   8  12
HETATM   12  C9  UNL     1      40.608  16.358  -1.510  1.00  0.00     0.243 C 
BRANCH  12  13
HETATM   13  O2  UNL     1      40.477  17.514  -0.701  1.00  0.00    -0.375 OA
ATOM     14  H2  UNL     1      39.598  17.865  -0.789  1.00  0.00     0.212 HD
ENDBRANCH  12  13
BRANCH  12  15
HETATM   15  C10 UNL     1      41.075  16.757  -2.852  1.00  0.00     0.201 C 
BRANCH  15  16
HETATM   16  C11 UNL     1      40.753  18.139  -3.247  1.00  0.00     0.188 C 
HETATM   17  O3  UNL     1      41.232  19.161  -2.711  1.00  0.00    -0.647 OA
HETATM   18  O4  UNL     1      39.851  18.373  -4.293  1.00  0.00    -0.647 OA
ENDBRANCH  15  16
BRANCH  15  19
HETATM   19  C12 UNL     1      40.835  15.770  -3.933  1.00  0.00     0.126 C 
HETATM   20  N3  UNL     1      40.009  14.643  -3.704  1.00  0.00    -0.085 NA
HETATM   21  N4  UNL     1      41.383  15.910  -5.080  1.00  0.00    -0.297 N 
ATOM     22  H4  UNL     1      41.991  16.714  -5.243  1.00  0.00     0.187 HD
BRANCH  21  23
HETATM   23  N5  UNL     1      41.177  15.001  -6.112  1.00  0.00    -0.344 N 
ATOM     24  H52 UNL     1      40.810  14.081  -5.872  1.00  0.00     0.176 HD
ATOM     25  H51 UNL     1      41.382  15.231  -7.084  1.00  0.00     0.176 HD
ENDBRANCH  21  23
ENDBRANCH  15  19
ENDBRANCH  12  15
ENDBRANCH   8  12
BRANCH   7  26
HETATM   26  C8  UNL     1      43.709  14.839  -0.761  1.00  0.00     0.254 C 
HETATM   27  N1  UNL     1      44.850  14.514   0.018  1.00  0.00    -0.060 NA
HETATM   28  O1  UNL     1      43.765  14.572  -1.973  1.00  0.00    -0.275 OA
ENDBRANCH   7  26
TORSDOF 7
ENDMDL
MODEL 2
REMARK VINA RESULT: -7.479577853      2.396      3.982
REMARK  7 active torsions:
REMARK  status: ('A' for Active; 'I' for Inactive)
REMARK    1  A    between atoms: C7_7  and  C8_8 
REMARK    2  A    between atoms: N2_11  and  C9_12 
REMARK    3  A    between atoms: C9_12  and  O2_13 
REMARK    4  A    between atoms: C9_12  and  C10_15 
REMARK    5  A    between atoms: C10_15  and  C11_16 
REMARK    6  A    between atoms: C10_15  and  C12_19 
REMARK    7  A    between atoms: N4_21  and  N5_23 
ROOT
HETATM    1  C1  UNL     1      45.946  14.811   0.190  1.00  0.00     0.038 C 
HETATM    2  C2  UNL     1      44.502  14.468   0.219  1.00  0.00     0.025 C 
HETATM    3  C3  UNL     1      44.100  13.752   1.476  1.00  0.00     0.038 C 
HETATM    4  C4  UNL     1      44.239  13.573  -1.037  1.00  0.00     0.042 C 
HETATM    5  C5  UNL     1      42.767  13.789  -1.113  1.00  0.00     0.058 C 
HETATM    6  C6  UNL     1      42.103  13.742  -2.438  1.00  0.00     0.047 C 
HETATM    7  C7  UNL     1      40.770  14.554  -2.092  1.00  0.00     0.178 C 
HETATM    8  N2  UNL     1      41.411  15.686  -1.436  1.00  0.00    -0.330 N 
HETATM    9  C13 UNL     1      42.594  15.243  -0.756  1.00  0.00     0.083 C 
HETATM   10  N6  UNL     1      43.605  15.590   0.008  1.00  0.00    -0.371 N 
ATOM     11  H6  UNL     1      43.741  16.522   0.401  1.00  0.00     0.161 HD
ENDROOT
BRANCH   8  12
HETATM   12  C9  UNL     1      41.002  17.054  -1.497  1.00  0.00     0.243 C 
BRANCH  12  13
HETATM   13  O2  UNL     1      40.793  17.545  -0.184  1.00  0.00    -0.375 OA
ATOM     14  H2  UNL     1      41.045  18.460  -0.143  1.00  0.00     0.212 HD
ENDBRANCH  12  13
BRANCH  12  15
HETATM   15  C10 UNL     1      41.783  18.043  -2.265  1.00  0.00     0.201 C 
BRANCH  15  16
HETATM   16  C11 UNL     1      42.532  19.020  -1.456  1.00  0.00     0.188 C 
HETATM   17  O3  UNL     1      42.211  20.220  -1.316  1.00  0.00    -0.647 OA
HETATM   18  O4  UNL     1      43.692  18.623  -0.780  1.00  0.00    -0.647 OA
ENDBRANCH  15  16
BRANCH  15  19
HETATM   19  C12 UNL     1      41.082  18.656  -3.419  1.00  0.00     0.126 C 
HETATM   20  N3  UNL     1      39.740  18.310  -3.709  1.00  0.00    -0.085 NA
HETATM   21  N4  UNL     1      41.683  19.489  -4.181  1.00  0.00    -0.297 N 
ATOM     22  H4  UNL     1      42.654  19.729  -3.983  1.00  0.00     0.187 HD
BRANCH  21  23
HETATM   23  N5  UNL     1      41.051  20.079  -5.271  1.00  0.00    -0.344 N 
ATOM     24  H52 UNL     1      40.803  19.483  -6.060  1.00  0.00     0.176 HD
ATOM     25  H51 UNL     1      40.836  21.076  -5.297  1.00  0.00     0.176 HD
ENDBRANCH  21  23
ENDBRANCH  15  19
ENDBRANCH  12  15
ENDBRANCH   8  12
BRANCH   7  26
HETATM   26  C8  UNL     1      39.963  13.685  -1.261  1.00  0.00     0.254 C 
HETATM   27  N1  UNL     1      39.745  12.348  -1.686  1.00  0.00    -0.060 NA
HETATM   28  O1  UNL     1      39.439  14.023  -0.187  1.00  0.00    -0.275 OA
ENDBRANCH   7  26
TORSDOF 7
ENDMDL
MODEL 3
REMARK VINA RESULT: -7.359543781      0.843      1.090
REMARK  7 active torsions:
REMARK  status: ('A' for Active; 'I' for Inactive)
REMARK    1  A    between atoms: C7_7  and  C8_8 
REMARK    2  A    between atoms: N2_11  and  C9_12 
REMARK    3  A    between atoms: C9_12  and  O2_13 
REMARK    4  A    between atoms: C9_12  and  C10_15 
REMARK    5  A    between atoms: C10_15  and  C11_16 
REMARK    6  A    between atoms: C10_15  and  C12_19 
REMARK    7  A    between atoms: N4_21  and  N5_23 
ROOT
HETATM    1  C1  UNL     1      40.184  11.095   0.670  1.00  0.00     0.038 C 
HETATM    2  C2  UNL     1      41.259  11.945   0.098  1.00  0.00     0.025 C 
HETATM    3  C3  UNL     1      42.230  11.167  -0.742  1.00  0.00     0.038 C 
HETATM    4  C4  UNL     1      41.985  12.609   1.314  1.00  0.00     0.042 C 
HETATM    5  C5  UNL     1      42.598  13.742   0.566  1.00  0.00     0.058 C 
HETATM    6  C6  UNL     1      42.831  15.025   1.273  1.00  0.00     0.047 C 
HETATM    7  C7  UNL     1      42.927  16.005   0.013  1.00  0.00     0.178 C 
HETATM    8  N2  UNL     1      41.722  15.547  -0.666  1.00  0.00    -0.330 N 
HETATM    9  C13 UNL     1      41.531  14.147  -0.418  1.00  0.00     0.083 C 
HETATM   10  N6  UNL     1      40.790  13.090  -0.661  1.00  0.00    -0.371 N 
ATOM     11  H6  UNL     1      39.993  13.075  -1.298  1.00  0.00     0.161 HD
ENDROOT
BRANCH   8  12
HETATM   12  C9  UNL     1      40.803  16.349  -1.410  1.00  0.00     0.243 C 
BRANCH  12  13
HETATM   13  O2  UNL     1      40.459  17.498  -0.656  1.00  0.00    -0.375 OA
ATOM     14  H2  UNL     1      40.135  17.233   0.197  1.00  0.00     0.212 HD
ENDBRANCH  12  13
BRANCH  12  15
HETATM   15  C10 UNL     1      41.104  16.753  -2.797  1.00  0.00     0.201 C 
BRANCH  15  16
HETATM   16  C11 UNL     1      40.676  18.113  -3.165  1.00  0.00     0.188 C 
HETATM   17  O3  UNL     1      39.747  18.375  -3.960  1.00  0.00    -0.647 OA
HETATM   18  O4  UNL     1      41.327  19.223  -2.612  1.00  0.00    -0.647 OA
ENDBRANCH  15  16
BRANCH  15  19
HETATM   19  C12 UNL     1      40.798  15.743  -3.839  1.00  0.00     0.126 C 
HETATM   20  N3  UNL     1      40.016  14.604  -3.526  1.00  0.00    -0.085 NA
HETATM   21  N4  UNL     1      41.247  15.874  -5.029  1.00  0.00    -0.297 N 
ATOM     22  H4  UNL     1      41.823  16.686  -5.254  1.00  0.00     0.187 HD
BRANCH  21  23
HETATM   23  N5  UNL     1      40.977  14.943  -6.026  1.00  0.00    -0.344 N 
ATOM     24  H52 UNL     1      40.699  15.291  -6.943  1.00  0.00     0.176 HD
ATOM     25  H51 UNL     1      41.049  13.939  -5.862  1.00  0.00     0.176 HD
ENDBRANCH  21  23
ENDBRANCH  15  19
ENDBRANCH  12  15
ENDBRANCH   8  12
BRANCH   7  26
HETATM   26  C8  UNL     1      44.192  15.722  -0.632  1.00  0.00     0.254 C 
HETATM   27  N1  UNL     1      45.379  15.773   0.145  1.00  0.00    -0.060 NA
HETATM   28  O1  UNL     1      44.323  15.431  -1.833  1.00  0.00    -0.275 OA
ENDBRANCH   7  26
TORSDOF 7
ENDMDL
MODEL 4
REMARK VINA RESULT: -7.321819197      2.506      3.710
REMARK  7 active torsions:
REMARK  status: ('A' for Active; 'I' for Inactive)
REMARK    1  A    between atoms: C7_7  and  C8_8 
REMARK    2  A    between atoms: N2_11  and  C9_12 
REMARK    3  A    between atoms: C9_12  and  O2_13 
REMARK    4  A    between atoms: C9_12  and  C10_15 
REMARK    5  A    between atoms: C10_15  and  C11_16 
REMARK    6  A    between atoms: C10_15  and  C12_19 
REMARK    7  A    between atoms: N4_21  and  N5_23 
ROOT
HETATM    1  C1  UNL     1      41.424  11.924   0.858  1.00  0.00     0.038 C 
HETATM    2  C2  UNL     1      40.971  12.547  -0.411  1.00  0.00     0.025 C 
HETATM    3  C3  UNL     1      39.701  11.942  -0.936  1.00  0.00     0.038 C 
HETATM    4  C4  UNL     1      42.141  12.357  -1.433  1.00  0.00     0.042 C 
HETATM    5  C5  UNL     1      41.742  13.442  -2.373  1.00  0.00     0.058 C 
HETATM    6  C6  UNL     1      42.796  14.150  -3.139  1.00  0.00     0.047 C 
HETATM    7  C7  UNL     1      42.003  15.488  -3.502  1.00  0.00     0.178 C 
HETATM    8  N2  UNL     1      41.505  15.775  -2.164  1.00  0.00    -0.330 N 
HETATM    9  C13 UNL     1      41.255  14.545  -1.469  1.00  0.00     0.083 C 
HETATM   10  N6  UNL     1      40.820  13.990  -0.360  1.00  0.00    -0.371 N 
ATOM     11  H6  UNL     1      40.429  14.504   0.430  1.00  0.00     0.161 HD
ENDROOT
BRANCH   8  12
HETATM   12  C9  UNL     1      41.346  17.064  -1.568  1.00  0.00     0.243 C 
BRANCH  12  13
HETATM   13  O2  UNL     1      41.087  16.917  -0.183  1.00  0.00    -0.375 OA
ATOM     14  H2  UNL     1      40.156  17.019  -0.021  1.00  0.00     0.212 HD
ENDBRANCH  12  13
BRANCH  12  15
HETATM   15  C10 UNL     1      42.363  18.116  -1.761  1.00  0.00     0.201 C 
BRANCH  15  16
HETATM   16  C11 UNL     1      42.888  18.721  -0.525  1.00  0.00     0.188 C 
HETATM   17  O3  UNL     1      42.580  19.857  -0.104  1.00  0.00    -0.647 OA
HETATM   18  O4  UNL     1      43.798  18.011   0.268  1.00  0.00    -0.647 OA
ENDBRANCH  15  16
BRANCH  15  19
HETATM   19  C12 UNL     1      42.061  19.113  -2.816  1.00  0.00     0.126 C 
HETATM   20  N3  UNL     1      40.831  19.066  -3.516  1.00  0.00    -0.085 NA
HETATM   21  N4  UNL     1      42.910  20.019  -3.123  1.00  0.00    -0.297 N 
ATOM     22  H4  UNL     1      43.803  20.047  -2.630  1.00  0.00     0.187 HD
BRANCH  21  23
HETATM   23  N5  UNL     1      42.654  20.967  -4.108  1.00  0.00    -0.344 N 
ATOM     24  H52 UNL     1      41.764  21.462  -4.075  1.00  0.00     0.176 HD
ATOM     25  H51 UNL     1      43.325  21.173  -4.848  1.00  0.00     0.176 HD
ENDBRANCH  21  23
ENDBRANCH  15  19
ENDBRANCH  12  15
ENDBRANCH   8  12
BRANCH   7  26
HETATM   26  C8  UNL     1      41.021  15.125  -4.504  1.00  0.00     0.254 C 
HETATM   27  N1  UNL     1      41.472  14.788  -5.807  1.00  0.00    -0.060 NA
HETATM   28  O1  UNL     1      39.795  15.084  -4.309  1.00  0.00    -0.275 OA
ENDBRANCH   7  26
TORSDOF 7
ENDMDL
MODEL 5
REMARK VINA RESULT: -7.215648225      1.421      1.780
REMARK  7 active torsions:
REMARK  status: ('A' for Active; 'I' for Inactive)
REMARK    1  A    between atoms: C7_7  and  C8_8 
REMARK    2  A    between atoms: N2_11  and  C9_12 
REMARK    3  A    between atoms: C9_12  and  O2_13 
REMARK    4  A    between atoms: C9_12  and  C10_15 
REMARK    5  A    between atoms: C10_15  and  C11_16 
REMARK    6  A    between atoms: C10_15  and  C12_19 
REMARK    7  A    between atoms: N4_21  and  N5_23 
ROOT
HETATM    1  C1  UNL     1      38.667  11.979   0.562  1.00  0.00     0.038 C 
HETATM    2  C2  UNL     1      39.959  12.429  -0.014  1.00  0.00     0.025 C 
HETATM    3  C3  UNL     1      40.591  11.395  -0.901  1.00  0.00     0.038 C 
HETATM    4  C4  UNL     1      40.888  12.761   1.201  1.00  0.00     0.042 C 
HETATM    5  C5  UNL     1      41.841  13.641   0.470  1.00  0.00     0.058 C 
HETATM    6  C6  UNL     1      42.510  14.740   1.205  1.00  0.00     0.047 C 
HETATM    7  C7  UNL     1      42.918  15.672  -0.028  1.00  0.00     0.178 C 
HETATM    8  N2  UNL     1      41.619  15.679  -0.688  1.00  0.00    -0.330 N 
HETATM    9  C13 UNL     1      40.963  14.421  -0.475  1.00  0.00     0.083 C 
HETATM   10  N6  UNL     1      39.900  13.692  -0.728  1.00  0.00    -0.371 N 
ATOM     11  H6  UNL     1      39.137  13.973  -1.344  1.00  0.00     0.161 HD
ENDROOT
BRANCH   8  12
HETATM   12  C9  UNL     1      41.020  16.773  -1.385  1.00  0.00     0.243 C 
BRANCH  12  13
HETATM   13  O2  UNL     1      40.452  17.675  -0.451  1.00  0.00    -0.375 OA
ATOM     14  H2  UNL     1      41.037  17.776   0.290  1.00  0.00     0.212 HD
ENDBRANCH  12  13
BRANCH  12  15
HETATM   15  C10 UNL     1      41.783  17.536  -2.392  1.00  0.00     0.201 C 
BRANCH  15  16
HETATM   16  C11 UNL     1      42.559  18.673  -1.868  1.00  0.00     0.188 C 
HETATM   17  O3  UNL     1      43.800  18.675  -1.713  1.00  0.00    -0.647 OA
HETATM   18  O4  UNL     1      41.904  19.856  -1.503  1.00  0.00    -0.647 OA
ENDBRANCH  15  16
BRANCH  15  19
HETATM   19  C12 UNL     1      41.051  17.856  -3.641  1.00  0.00     0.126 C 
HETATM   20  N3  UNL     1      40.385  16.837  -4.363  1.00  0.00    -0.085 NA
HETATM   21  N4  UNL     1      41.026  19.051  -4.097  1.00  0.00    -0.297 N 
ATOM     22  H4  UNL     1      41.518  19.785  -3.586  1.00  0.00     0.187 HD
BRANCH  21  23
HETATM   23  N5  UNL     1      40.349  19.381  -5.266  1.00  0.00    -0.344 N 
ATOM     24  H52 UNL     1      39.333  19.450  -5.226  1.00  0.00     0.176 HD
ATOM     25  H51 UNL     1      40.838  19.552  -6.144  1.00  0.00     0.176 HD
ENDBRANCH  21  23
ENDBRANCH  15  19
ENDBRANCH  12  15
ENDBRANCH   8  12
BRANCH   7  26
HETATM   26  C8  UNL     1      43.999  14.996  -0.714  1.00  0.00     0.254 C 
HETATM   27  N1  UNL     1      45.127  14.577   0.039  1.00  0.00    -0.060 NA
HETATM   28  O1  UNL     1      44.017  14.748  -1.931  1.00  0.00    -0.275 OA
ENDBRANCH   7  26
TORSDOF 7
ENDMDL
