MODEL 1
REMARK VINA RESULT: -7.259522747      0.000      0.000
REMARK  10 active torsions:
REMARK  status: ('A' for Active; 'I' for Inactive)
REMARK    1  A    between atoms: C1_2  and  C2_3 
REMARK    2  A    between atoms: C1_2  and  C4_11 
REMARK    3  A    between atoms: C2_3  and  O2_4 
REMARK    4  A    between atoms: N1_6  and  C3_8 
REMARK    5  A    between atoms: N2_14  and  C7_15 
REMARK    6  A    between atoms: C7_15  and  C8_16 
REMARK    7  A    between atoms: C8_16  and  C9_17 
REMARK    8  A    between atoms: C8_16  and  N4_24 
REMARK    9  A    between atoms: C9_17  and  O3_18 
REMARK   10  A    between atoms: N3_20  and  O4_22 
ROOT
HETATM    1  C4  UNL     1      30.001  42.028  19.802  1.00  0.00     0.070 C 
HETATM    2  C5  UNL     1      29.820  41.825  21.250  1.00  0.00     0.057 C 
HETATM    3  C6  UNL     1      30.704  40.814  21.921  1.00  0.00     0.064 C 
HETATM    4  N2  UNL     1      31.784  40.348  21.166  1.00  0.00    -0.371 N 
HETATM    5  C13 UNL     1      31.547  40.157  19.771  1.00  0.00     0.128 C 
HETATM    6  C14 UNL     1      31.220  41.477  19.161  1.00  0.00     0.033 C 
ENDROOT
BRANCH   4   7
HETATM    7  C7  UNL     1      33.102  40.416  21.614  1.00  0.00     0.107 C 
BRANCH   7   8
HETATM    8  C8  UNL     1      33.743  41.701  21.908  1.00  0.00     0.336 C 
BRANCH   8   9
HETATM    9  C9  UNL     1      32.935  42.644  22.693  1.00  0.00     0.174 C 
HETATM   10  N3  UNL     1      32.536  43.783  22.222  1.00  0.00    -0.249 N 
ATOM     11  H3  UNL     1      31.975  44.420  22.788  1.00  0.00     0.196 HD
BRANCH   9  12
HETATM   12  O3  UNL     1      32.581  42.311  23.989  1.00  0.00    -0.346 OA
ATOM     13  H3  UNL     1      31.854  42.763  24.400  1.00  0.00     0.219 HD
ENDBRANCH   9  12
BRANCH  10  14
HETATM   14  O4  UNL     1      32.888  44.101  20.953  1.00  0.00    -0.288 OA
ATOM     15  H4  UNL     1      32.842  45.015  20.696  1.00  0.00     0.244 HD
ENDBRANCH  10  14
ENDBRANCH   8   9
BRANCH   8  16
HETATM   16  N4  UNL     1      35.032  41.653  22.515  1.00  0.00     0.106 N 
HETATM   17  C10 UNL     1      35.997  42.647  22.200  1.00  0.00     0.275 A 
HETATM   18  C11 UNL     1      36.995  41.504  21.974  1.00  0.00     0.060 A 
HETATM   19  C12 UNL     1      35.886  40.558  22.413  1.00  0.00     0.275 A 
ENDBRANCH   8  16
ENDBRANCH   7   8
ENDBRANCH   4   7
BRANCH   1  20
HETATM   20  C1  UNL     1      28.808  41.551  19.033  1.00  0.00     0.204 C 
HETATM   21  O1  UNL     1      27.916  40.869  19.552  1.00  0.00    -0.288 OA
BRANCH  20  22
HETATM   22  C2  UNL     1      28.723  41.918  17.628  1.00  0.00     0.189 C 
HETATM   23  N1  UNL     1      27.793  41.454  16.852  1.00  0.00    -0.319 N 
ATOM     24  H1  UNL     1      27.095  40.812  17.227  1.00  0.00     0.169 HD
BRANCH  22  25
HETATM   25  O2  UNL     1      29.655  42.793  17.074  1.00  0.00    -0.343 OA
ATOM     26  H2  UNL     1      29.977  42.652  16.192  1.00  0.00     0.219 HD
ENDBRANCH  22  25
BRANCH  23  27
HETATM   27  C3  UNL     1      27.740  41.832  15.492  1.00  0.00     0.151 C 
HETATM   28  S1  UNL     1      28.235  40.787  14.351  1.00  0.00    -0.052 SA
HETATM   29  S2  UNL     1      27.143  43.424  15.033  1.00  0.00    -0.020 SA
ENDBRANCH  23  27
ENDBRANCH  20  22
ENDBRANCH   1  20
TORSDOF 10
ENDMDL
MODEL 2
REMARK VINA RESULT: -6.970872229      3.977      7.720
REMARK  10 active torsions:
REMARK  status: ('A' for Active; 'I' for Inactive)
REMARK    1  A    between atoms: C1_2  and  C2_3 
REMARK    2  A    between atoms: C1_2  and  C4_11 
REMARK    3  A    between atoms: C2_3  and  O2_4 
REMARK    4  A    between atoms: N1_6  and  C3_8 
REMARK    5  A    between atoms: N2_14  and  C7_15 
REMARK    6  A    between atoms: C7_15  and  C8_16 
REMARK    7  A    between atoms: C8_16  and  C9_17 
REMARK    8  A    between atoms: C8_16  and  N4_24 
REMARK    9  A    between atoms: C9_17  and  O3_18 
REMARK   10  A    between atoms: N3_20  and  O4_22 
ROOT
HETATM    1  C4  UNL     1      31.414  41.571  21.622  1.00  0.00     0.070 C 
HETATM    2  C5  UNL     1      30.067  42.151  21.483  1.00  0.00     0.057 C 
HETATM    3  C6  UNL     1      29.490  42.230  20.100  1.00  0.00     0.064 C 
HETATM    4  N2  UNL     1      30.171  41.515  19.110  1.00  0.00    -0.371 N 
HETATM    5  C13 UNL     1      31.595  41.504  19.203  1.00  0.00     0.128 C 
HETATM    6  C14 UNL     1      31.981  40.826  20.472  1.00  0.00     0.033 C 
ENDROOT
BRANCH   4   7
HETATM    7  C7  UNL     1      29.548  40.561  18.307  1.00  0.00     0.107 C 
BRANCH   7   8
HETATM    8  C8  UNL     1      29.637  40.617  16.845  1.00  0.00     0.336 C 
BRANCH   8   9
HETATM    9  C9  UNL     1      30.581  39.673  16.234  1.00  0.00     0.174 C 
HETATM   10  N3  UNL     1      31.715  40.045  15.730  1.00  0.00    -0.249 N 
ATOM     11  H3  UNL     1      32.354  39.369  15.311  1.00  0.00     0.196 HD
BRANCH   9  12
HETATM   12  O3  UNL     1      30.256  38.328  16.191  1.00  0.00    -0.346 OA
ATOM     13  H3  UNL     1      30.884  37.712  15.833  1.00  0.00     0.219 HD
ENDBRANCH   9  12
BRANCH  10  14
HETATM   14  O4  UNL     1      32.025  41.364  15.776  1.00  0.00    -0.288 OA
ATOM     15  H4  UNL     1      31.308  41.986  15.828  1.00  0.00     0.244 HD
ENDBRANCH  10  14
ENDBRANCH   8   9
BRANCH   8  16
HETATM   16  N4  UNL     1      28.413  40.508  16.121  1.00  0.00     0.106 N 
HETATM   17  C10 UNL     1      28.381  40.834  14.738  1.00  0.00     0.275 A 
HETATM   18  C11 UNL     1      27.142  41.685  15.042  1.00  0.00     0.060 A 
HETATM   19  C12 UNL     1      27.251  41.188  16.476  1.00  0.00     0.275 A 
ENDBRANCH   8  16
ENDBRANCH   7   8
ENDBRANCH   4   7
BRANCH   1  20
HETATM   20  C1  UNL     1      32.409  42.604  22.052  1.00  0.00     0.204 C 
HETATM   21  O1  UNL     1      32.131  43.808  22.106  1.00  0.00    -0.288 OA
BRANCH  20  22
HETATM   22  C2  UNL     1      33.742  42.145  22.412  1.00  0.00     0.189 C 
HETATM   23  N1  UNL     1      34.811  42.673  21.901  1.00  0.00    -0.319 N 
ATOM     24  H1  UNL     1      34.728  43.434  21.227  1.00  0.00     0.169 HD
BRANCH  22  25
HETATM   25  O2  UNL     1      33.903  41.109  23.329  1.00  0.00    -0.343 OA
ATOM     26  H2  UNL     1      34.773  40.834  23.592  1.00  0.00     0.219 HD
ENDBRANCH  22  25
BRANCH  23  27
HETATM   27  C3  UNL     1      36.090  42.202  22.273  1.00  0.00     0.151 C 
HETATM   28  S1  UNL     1      36.371  40.604  22.326  1.00  0.00    -0.052 SA
HETATM   29  S2  UNL     1      37.373  43.339  22.679  1.00  0.00    -0.020 SA
ENDBRANCH  23  27
ENDBRANCH  20  22
ENDBRANCH   1  20
TORSDOF 10
ENDMDL
MODEL 3
REMARK VINA RESULT: -6.931197223      3.451      5.164
REMARK  10 active torsions:
REMARK  status: ('A' for Active; 'I' for Inactive)
REMARK    1  A    between atoms: C1_2  and  C2_3 
REMARK    2  A    between atoms: C1_2  and  C4_11 
REMARK    3  A    between atoms: C2_3  and  O2_4 
REMARK    4  A    between atoms: N1_6  and  C3_8 
REMARK    5  A    between atoms: N2_14  and  C7_15 
REMARK    6  A    between atoms: C7_15  and  C8_16 
REMARK    7  A    between atoms: C8_16  and  C9_17 
REMARK    8  A    between atoms: C8_16  and  N4_24 
REMARK    9  A    between atoms: C9_17  and  O3_18 
REMARK   10  A    between atoms: N3_20  and  O4_22 
ROOT
HETATM    1  C4  UNL     1      27.393  43.132  16.139  1.00  0.00     0.070 C 
HETATM    2  C5  UNL     1      27.005  41.846  16.744  1.00  0.00     0.057 C 
HETATM    3  C6  UNL     1      28.057  41.098  17.510  1.00  0.00     0.064 C 
HETATM    4  N2  UNL     1      29.228  41.807  17.794  1.00  0.00    -0.371 N 
HETATM    5  C13 UNL     1      29.694  42.695  16.779  1.00  0.00     0.128 C 
HETATM    6  C14 UNL     1      28.668  43.756  16.570  1.00  0.00     0.033 C 
ENDROOT
BRANCH   4   7
HETATM    7  C7  UNL     1      29.720  41.959  19.089  1.00  0.00     0.107 C 
BRANCH   7   8
HETATM    8  C8  UNL     1      30.586  40.948  19.702  1.00  0.00     0.336 C 
BRANCH   8   9
HETATM    9  C9  UNL     1      31.901  40.778  19.072  1.00  0.00     0.174 C 
HETATM   10  N3  UNL     1      32.112  39.940  18.107  1.00  0.00    -0.249 N 
ATOM     11  H3  UNL     1      33.035  39.842  17.686  1.00  0.00     0.196 HD
BRANCH   9  12
HETATM   12  O3  UNL     1      32.966  41.541  19.520  1.00  0.00    -0.346 OA
ATOM     13  H3  UNL     1      33.566  41.915  18.887  1.00  0.00     0.219 HD
ENDBRANCH   9  12
BRANCH  10  14
HETATM   14  O4  UNL     1      31.064  39.198  17.675  1.00  0.00    -0.288 OA
ATOM     15  H4  UNL     1      31.233  38.297  17.421  1.00  0.00     0.244 HD
ENDBRANCH  10  14
ENDBRANCH   8   9
BRANCH   8  16
HETATM   16  N4  UNL     1      30.808  41.056  21.106  1.00  0.00     0.106 N 
HETATM   17  C10 UNL     1      30.682  39.905  21.930  1.00  0.00     0.275 A 
HETATM   18  C11 UNL     1      29.808  40.755  22.861  1.00  0.00     0.060 A 
HETATM   19  C12 UNL     1      30.096  41.924  21.930  1.00  0.00     0.275 A 
ENDBRANCH   8  16
ENDBRANCH   7   8
ENDBRANCH   4   7
BRANCH   1  20
HETATM   20  C1  UNL     1      27.391  43.051  14.644  1.00  0.00     0.204 C 
HETATM   21  O1  UNL     1      27.661  42.008  14.037  1.00  0.00    -0.288 OA
BRANCH  20  22
HETATM   22  C2  UNL     1      27.054  44.259  13.906  1.00  0.00     0.189 C 
HETATM   23  N1  UNL     1      27.576  44.525  12.749  1.00  0.00    -0.319 N 
ATOM     24  H1  UNL     1      28.242  43.875  12.332  1.00  0.00     0.169 HD
BRANCH  22  25
HETATM   25  O2  UNL     1      26.148  45.175  14.436  1.00  0.00    -0.343 OA
ATOM     26  H2  UNL     1      26.387  46.090  14.520  1.00  0.00     0.219 HD
ENDBRANCH  22  25
BRANCH  23  27
HETATM   27  C3  UNL     1      27.227  45.707  12.060  1.00  0.00     0.151 C 
HETATM   28  S1  UNL     1      26.062  45.662  10.928  1.00  0.00    -0.052 SA
HETATM   29  S2  UNL     1      28.047  47.224  12.422  1.00  0.00    -0.020 SA
ENDBRANCH  23  27
ENDBRANCH  20  22
ENDBRANCH   1  20
TORSDOF 10
ENDMDL
MODEL 4
REMARK VINA RESULT: -6.835606077      0.992      1.181
REMARK  10 active torsions:
REMARK  status: ('A' for Active; 'I' for Inactive)
REMARK    1  A    between atoms: C1_2  and  C2_3 
REMARK    2  A    between atoms: C1_2  and  C4_11 
REMARK    3  A    between atoms: C2_3  and  O2_4 
REMARK    4  A    between atoms: N1_6  and  C3_8 
REMARK    5  A    between atoms: N2_14  and  C7_15 
REMARK    6  A    between atoms: C7_15  and  C8_16 
REMARK    7  A    between atoms: C8_16  and  C9_17 
REMARK    8  A    between atoms: C8_16  and  N4_24 
REMARK    9  A    between atoms: C9_17  and  O3_18 
REMARK   10  A    between atoms: N3_20  and  O4_22 
ROOT
HETATM    1  C4  UNL     1      29.904  41.873  20.361  1.00  0.00     0.070 C 
HETATM    2  C5  UNL     1      29.805  41.094  21.607  1.00  0.00     0.057 C 
HETATM    3  C6  UNL     1      30.904  40.114  21.898  1.00  0.00     0.064 C 
HETATM    4  N2  UNL     1      32.042  40.215  21.093  1.00  0.00    -0.371 N 
HETATM    5  C13 UNL     1      31.822  40.531  19.719  1.00  0.00     0.128 C 
HETATM    6  C14 UNL     1      31.199  41.882  19.638  1.00  0.00     0.033 C 
ENDROOT
BRANCH   4   7
HETATM    7  C7  UNL     1      33.323  40.383  21.618  1.00  0.00     0.107 C 
BRANCH   7   8
HETATM    8  C8  UNL     1      33.844  41.711  21.953  1.00  0.00     0.336 C 
BRANCH   8   9
HETATM    9  C9  UNL     1      32.948  42.556  22.752  1.00  0.00     0.174 C 
HETATM   10  N3  UNL     1      32.529  43.713  22.345  1.00  0.00    -0.249 N 
ATOM     11  H3  UNL     1      31.907  44.280  22.920  1.00  0.00     0.196 HD
BRANCH   9  12
HETATM   12  O3  UNL     1      32.528  42.108  23.993  1.00  0.00    -0.346 OA
ATOM     13  H3  UNL     1      31.617  41.865  24.112  1.00  0.00     0.219 HD
ENDBRANCH   9  12
BRANCH  10  14
HETATM   14  O4  UNL     1      32.946  44.144  21.130  1.00  0.00    -0.288 OA
ATOM     15  H4  UNL     1      32.704  43.628  20.370  1.00  0.00     0.244 HD
ENDBRANCH  10  14
ENDBRANCH   8   9
BRANCH   8  16
HETATM   16  N4  UNL     1      35.127  41.762  22.573  1.00  0.00     0.106 N 
HETATM   17  C10 UNL     1      36.014  42.830  22.270  1.00  0.00     0.275 A 
HETATM   18  C11 UNL     1      37.100  41.770  22.051  1.00  0.00     0.060 A 
HETATM   19  C12 UNL     1      36.065  40.738  22.476  1.00  0.00     0.275 A 
ENDBRANCH   8  16
ENDBRANCH   7   8
ENDBRANCH   4   7
BRANCH   1  20
HETATM   20  C1  UNL     1      28.827  41.488  19.393  1.00  0.00     0.204 C 
HETATM   21  O1  UNL     1      27.711  41.106  19.763  1.00  0.00    -0.288 OA
BRANCH  20  22
HETATM   22  C2  UNL     1      29.136  41.578  17.974  1.00  0.00     0.189 C 
HETATM   23  N1  UNL     1      29.446  40.532  17.272  1.00  0.00    -0.319 N 
ATOM     24  H1  UNL     1      29.477  39.615  17.716  1.00  0.00     0.169 HD
BRANCH  22  25
HETATM   25  O2  UNL     1      29.105  42.810  17.326  1.00  0.00    -0.343 OA
ATOM     26  H2  UNL     1      29.902  43.316  17.222  1.00  0.00     0.219 HD
ENDBRANCH  22  25
BRANCH  23  27
HETATM   27  C3  UNL     1      29.740  40.656  15.896  1.00  0.00     0.151 C 
HETATM   28  S1  UNL     1      31.275  40.901  15.423  1.00  0.00    -0.052 SA
HETATM   29  S2  UNL     1      28.454  40.548  14.697  1.00  0.00    -0.020 SA
ENDBRANCH  23  27
ENDBRANCH  20  22
ENDBRANCH   1  20
TORSDOF 10
ENDMDL
MODEL 5
REMARK VINA RESULT: -6.758841073      0.778      1.313
REMARK  10 active torsions:
REMARK  status: ('A' for Active; 'I' for Inactive)
REMARK    1  A    between atoms: C1_2  and  C2_3 
REMARK    2  A    between atoms: C1_2  and  C4_11 
REMARK    3  A    between atoms: C2_3  and  O2_4 
REMARK    4  A    between atoms: N1_6  and  C3_8 
REMARK    5  A    between atoms: N2_14  and  C7_15 
REMARK    6  A    between atoms: C7_15  and  C8_16 
REMARK    7  A    between atoms: C8_16  and  C9_17 
REMARK    8  A    between atoms: C8_16  and  N4_24 
REMARK    9  A    between atoms: C9_17  and  O3_18 
REMARK   10  A    between atoms: N3_20  and  O4_22 
ROOT
HETATM    1  C4  UNL     1      29.594  40.136  19.407  1.00  0.00     0.070 C 
HETATM    2  C5  UNL     1      30.694  40.237  18.433  1.00  0.00     0.057 C 
HETATM    3  C6  UNL     1      31.911  41.012  18.845  1.00  0.00     0.064 C 
HETATM    4  N2  UNL     1      31.995  41.347  20.199  1.00  0.00    -0.371 N 
HETATM    5  C13 UNL     1      30.771  41.701  20.842  1.00  0.00     0.128 C 
HETATM    6  C14 UNL     1      29.863  40.520  20.815  1.00  0.00     0.033 C 
ENDROOT
BRANCH   4   7
HETATM    7  C7  UNL     1      33.089  41.007  20.993  1.00  0.00     0.107 C 
BRANCH   7   8
HETATM    8  C8  UNL     1      33.824  42.020  21.757  1.00  0.00     0.336 C 
BRANCH   8   9
HETATM    9  C9  UNL     1      33.023  42.785  22.722  1.00  0.00     0.174 C 
HETATM   10  N3  UNL     1      32.520  43.947  22.447  1.00  0.00    -0.249 N 
ATOM     11  H3  UNL     1      31.967  44.458  23.135  1.00  0.00     0.196 HD
BRANCH   9  12
HETATM   12  O3  UNL     1      32.792  42.252  23.978  1.00  0.00    -0.346 OA
ATOM     13  H3  UNL     1      33.530  42.074  24.548  1.00  0.00     0.219 HD
ENDBRANCH   9  12
BRANCH  10  14
HETATM   14  O4  UNL     1      32.752  44.461  21.215  1.00  0.00    -0.288 OA
ATOM     15  H4  UNL     1      32.002  44.634  20.658  1.00  0.00     0.244 HD
ENDBRANCH  10  14
ENDBRANCH   8   9
BRANCH   8  16
HETATM   16  N4  UNL     1      34.996  41.585  22.442  1.00  0.00     0.106 N 
HETATM   17  C10 UNL     1      36.152  42.411  22.454  1.00  0.00     0.275 A 
HETATM   18  C11 UNL     1      36.956  41.169  22.049  1.00  0.00     0.060 A 
HETATM   19  C12 UNL     1      35.652  40.390  22.154  1.00  0.00     0.275 A 
ENDBRANCH   8  16
ENDBRANCH   7   8
ENDBRANCH   4   7
BRANCH   1  20
HETATM   20  C1  UNL     1      28.383  40.884  18.939  1.00  0.00     0.204 C 
HETATM   21  O1  UNL     1      27.381  41.031  19.648  1.00  0.00    -0.288 OA
BRANCH  20  22
HETATM   22  C2  UNL     1      28.417  41.446  17.597  1.00  0.00     0.189 C 
HETATM   23  N1  UNL     1      27.646  41.008  16.650  1.00  0.00    -0.319 N 
ATOM     24  H1  UNL     1      26.992  40.249  16.840  1.00  0.00     0.169 HD
BRANCH  22  25
HETATM   25  O2  UNL     1      29.295  42.484  17.294  1.00  0.00    -0.343 OA
ATOM     26  H2  UNL     1      30.225  42.313  17.202  1.00  0.00     0.219 HD
ENDBRANCH  22  25
BRANCH  23  27
HETATM   27  C3  UNL     1      27.706  41.577  15.358  1.00  0.00     0.151 C 
HETATM   28  S1  UNL     1      28.333  40.715  14.132  1.00  0.00    -0.052 SA
HETATM   29  S2  UNL     1      27.107  43.209  15.075  1.00  0.00    -0.020 SA
ENDBRANCH  23  27
ENDBRANCH  20  22
ENDBRANCH   1  20
TORSDOF 10
ENDMDL
