MODEL 1
REMARK VINA RESULT: -9.727625799      0.000      0.000
REMARK  6 active torsions:
REMARK  status: ('A' for Active; 'I' for Inactive)
REMARK    1  A    between atoms: C2_2  and  C9_21 
REMARK    2  A    between atoms: N1_3  and  N2_5 
REMARK       I    between atoms: N2_5  and  C3_7 
REMARK    3  A    between atoms: C3_7  and  C4_9 
REMARK    4  A    between atoms: C5_10  and  C6_11 
REMARK       I    between atoms: C9_21  and  N6_23 
REMARK    5  A    between atoms: N6_23  and  C10_24 
REMARK    6  A    between atoms: C10_24  and  C11_25 
ROOT
HETATM    1  C4  UNL     1      36.361  39.271  13.109  1.00  0.00     0.107 A 
HETATM    2  C5  UNL     1      36.939  40.540  12.893  1.00  0.00     0.143 A 
HETATM    3  N3  UNL     1      37.778  40.347  11.866  1.00  0.00    -0.293 N 
ATOM      4  H3  UNL     1      38.350  41.097  11.477  1.00  0.00     0.187 HD
HETATM    5  N4  UNL     1      37.807  39.150  11.410  1.00  0.00    -0.289 N 
ATOM      6  H4  UNL     1      38.372  38.797  10.638  1.00  0.00     0.188 HD
HETATM    7  C7  UNL     1      36.918  38.442  12.178  1.00  0.00     0.146 A 
HETATM    8  C8  UNL     1      36.666  37.046  11.989  1.00  0.00     0.120 C 
HETATM    9  N5  UNL     1      36.494  35.905  11.817  1.00  0.00    -0.190 NA
ENDROOT
BRANCH   1  10
HETATM   10  C3  UNL     1      35.441  38.945  14.170  1.00  0.00     0.275 C 
HETATM   11  N2  UNL     1      34.154  39.449  14.366  1.00  0.00    -0.265 N 
ATOM     12  H2  UNL     1      33.780  40.132  13.707  1.00  0.00     0.190 HD
HETATM   13  O1  UNL     1      35.858  38.079  15.042  1.00  0.00    -0.266 OA
BRANCH  11  14
HETATM   14  N1  UNL     1      33.351  39.030  15.466  1.00  0.00    -0.296 N 
HETATM   15  C2  UNL     1      32.461  39.797  15.971  1.00  0.00     0.104 C 
HETATM   16  C1  UNL     1      32.243  41.132  15.422  1.00  0.00     0.077 C 
ATOM     17  H1  UNL     1      33.489  38.100  15.860  1.00  0.00     0.187 HD
BRANCH  15  18
HETATM   18  C9  UNL     1      31.683  39.296  17.122  1.00  0.00     0.338 C 
HETATM   19  O4  UNL     1      31.262  38.145  17.027  1.00  0.00    -0.250 OA
HETATM   20  N6  UNL     1      31.453  40.135  18.248  1.00  0.00    -0.382 NA
BRANCH  20  21
HETATM   21  C10 UNL     1      31.239  40.909  19.289  1.00  0.00     0.164 C 
BRANCH  21  22
HETATM   22  C11 UNL     1      30.083  40.621  20.237  1.00  0.00     0.038 C 
HETATM   23  C12 UNL     1      29.586  41.908  20.810  1.00  0.00     0.011 C 
HETATM   24  C13 UNL     1      30.322  42.448  21.977  1.00  0.00     0.001 C 
HETATM   25  C14 UNL     1      30.766  41.494  23.023  1.00  0.00     0.000 C 
HETATM   26  C15 UNL     1      29.756  40.455  23.432  1.00  0.00     0.000 C 
HETATM   27  C16 UNL     1      29.293  39.579  22.326  1.00  0.00     0.001 C 
HETATM   28  C17 UNL     1      30.304  39.511  21.182  1.00  0.00     0.011 C 
ENDBRANCH  21  22
ENDBRANCH  20  21
ENDBRANCH  15  18
ENDBRANCH  11  14
ENDBRANCH   1  10
BRANCH   2  29
HETATM   29  C6  UNL     1      36.670  41.787  13.528  1.00  0.00     0.229 C 
HETATM   30  O2  UNL     1      37.246  42.593  14.216  1.00  0.00    -0.643 OA
HETATM   31  O3  UNL     1      35.266  42.222  13.266  1.00  0.00    -0.643 OA
ENDBRANCH   2  29
TORSDOF 6
ENDMDL
MODEL 2
REMARK VINA RESULT: -9.638049276      1.714      2.287
REMARK  6 active torsions:
REMARK  status: ('A' for Active; 'I' for Inactive)
REMARK    1  A    between atoms: C2_2  and  C9_21 
REMARK    2  A    between atoms: N1_3  and  N2_5 
REMARK       I    between atoms: N2_5  and  C3_7 
REMARK    3  A    between atoms: C3_7  and  C4_9 
REMARK    4  A    between atoms: C5_10  and  C6_11 
REMARK       I    between atoms: C9_21  and  N6_23 
REMARK    5  A    between atoms: N6_23  and  C10_24 
REMARK    6  A    between atoms: C10_24  and  C11_25 
ROOT
HETATM    1  C4  UNL     1      35.397  39.497  14.049  1.00  0.00     0.107 A 
HETATM    2  C5  UNL     1      36.545  40.238  13.698  1.00  0.00     0.143 A 
HETATM    3  N3  UNL     1      37.498  39.310  13.537  1.00  0.00    -0.293 N 
ATOM      4  H3  UNL     1      38.456  39.546  13.277  1.00  0.00     0.187 HD
HETATM    5  N4  UNL     1      37.114  38.102  13.733  1.00  0.00    -0.289 N 
ATOM      6  H4  UNL     1      37.679  37.256  13.661  1.00  0.00     0.188 HD
HETATM    7  C7  UNL     1      35.784  38.188  14.060  1.00  0.00     0.146 A 
HETATM    8  C8  UNL     1      34.983  37.043  14.366  1.00  0.00     0.120 C 
HETATM    9  N5  UNL     1      34.362  36.089  14.624  1.00  0.00    -0.190 NA
ENDROOT
BRANCH   1  10
HETATM   10  C3  UNL     1      34.119  40.061  14.406  1.00  0.00     0.275 C 
HETATM   11  N2  UNL     1      33.625  40.306  15.689  1.00  0.00    -0.265 N 
ATOM     12  H2  UNL     1      34.200  40.072  16.498  1.00  0.00     0.190 HD
HETATM   13  O1  UNL     1      33.340  40.381  13.418  1.00  0.00    -0.266 OA
BRANCH  11  14
HETATM   14  N1  UNL     1      32.334  40.876  15.892  1.00  0.00    -0.296 N 
HETATM   15  C2  UNL     1      31.405  40.226  16.481  1.00  0.00     0.104 C 
HETATM   16  C1  UNL     1      31.650  38.871  16.968  1.00  0.00     0.077 C 
ATOM     17  H1  UNL     1      32.148  41.822  15.559  1.00  0.00     0.187 HD
BRANCH  15  18
HETATM   18  C9  UNL     1      30.090  40.879  16.636  1.00  0.00     0.338 C 
HETATM   19  O4  UNL     1      29.436  41.023  15.606  1.00  0.00    -0.250 OA
HETATM   20  N6  UNL     1      29.653  41.308  17.921  1.00  0.00    -0.382 NA
BRANCH  20  21
HETATM   21  C10 UNL     1      29.247  41.705  19.107  1.00  0.00     0.164 C 
BRANCH  21  22
HETATM   22  C11 UNL     1      30.200  41.683  20.294  1.00  0.00     0.038 C 
HETATM   23  C12 UNL     1      30.796  40.319  20.419  1.00  0.00     0.011 C 
HETATM   24  C13 UNL     1      29.990  39.299  21.131  1.00  0.00     0.001 C 
HETATM   25  C14 UNL     1      29.264  39.717  22.355  1.00  0.00     0.000 C 
HETATM   26  C15 UNL     1      30.039  40.584  23.312  1.00  0.00     0.000 C 
HETATM   27  C16 UNL     1      30.519  41.863  22.731  1.00  0.00     0.001 C 
HETATM   28  C17 UNL     1      29.682  42.300  21.529  1.00  0.00     0.011 C 
ENDBRANCH  21  22
ENDBRANCH  20  21
ENDBRANCH  15  18
ENDBRANCH  11  14
ENDBRANCH   1  10
BRANCH   2  29
HETATM   29  C6  UNL     1      36.696  41.637  13.470  1.00  0.00     0.229 C 
HETATM   30  O2  UNL     1      37.140  42.602  14.039  1.00  0.00    -0.643 OA
HETATM   31  O3  UNL     1      36.143  42.018  12.136  1.00  0.00    -0.643 OA
ENDBRANCH   2  29
TORSDOF 6
ENDMDL
MODEL 3
REMARK VINA RESULT: -9.530412779      1.881      3.445
REMARK  6 active torsions:
REMARK  status: ('A' for Active; 'I' for Inactive)
REMARK    1  A    between atoms: C2_2  and  C9_21 
REMARK    2  A    between atoms: N1_3  and  N2_5 
REMARK       I    between atoms: N2_5  and  C3_7 
REMARK    3  A    between atoms: C3_7  and  C4_9 
REMARK    4  A    between atoms: C5_10  and  C6_11 
REMARK       I    between atoms: C9_21  and  N6_23 
REMARK    5  A    between atoms: N6_23  and  C10_24 
REMARK    6  A    between atoms: C10_24  and  C11_25 
ROOT
HETATM    1  C4  UNL     1      35.398  39.382  14.241  1.00  0.00     0.107 A 
HETATM    2  C5  UNL     1      35.643  38.002  14.076  1.00  0.00     0.143 A 
HETATM    3  N3  UNL     1      36.920  37.941  13.674  1.00  0.00    -0.293 N 
ATOM      4  H3  UNL     1      37.390  37.059  13.470  1.00  0.00     0.187 HD
HETATM    5  N4  UNL     1      37.506  39.076  13.566  1.00  0.00    -0.289 N 
ATOM      6  H4  UNL     1      38.469  39.248  13.278  1.00  0.00     0.188 HD
HETATM    7  C7  UNL     1      36.566  40.011  13.919  1.00  0.00     0.146 A 
HETATM    8  C8  UNL     1      36.828  41.417  13.918  1.00  0.00     0.120 C 
HETATM    9  N5  UNL     1      37.072  42.558  13.894  1.00  0.00    -0.190 NA
ENDROOT
BRANCH   1  10
HETATM   10  C3  UNL     1      34.126  39.965  14.590  1.00  0.00     0.275 C 
HETATM   11  N2  UNL     1      33.560  40.072  15.862  1.00  0.00    -0.265 N 
ATOM     12  H2  UNL     1      34.067  39.705  16.667  1.00  0.00     0.190 HD
HETATM   13  O1  UNL     1      33.431  40.451  13.608  1.00  0.00    -0.266 OA
BRANCH  11  14
HETATM   14  N1  UNL     1      32.287  40.681  16.060  1.00  0.00    -0.296 N 
HETATM   15  C2  UNL     1      31.309  40.031  16.566  1.00  0.00     0.104 C 
HETATM   16  C1  UNL     1      31.479  38.636  16.961  1.00  0.00     0.077 C 
ATOM     17  H1  UNL     1      32.152  41.656  15.791  1.00  0.00     0.187 HD
BRANCH  15  18
HETATM   18  C9  UNL     1      30.017  40.729  16.722  1.00  0.00     0.338 C 
HETATM   19  O4  UNL     1      29.316  40.793  15.715  1.00  0.00    -0.250 OA
HETATM   20  N6  UNL     1      29.653  41.285  17.980  1.00  0.00    -0.382 NA
BRANCH  20  21
HETATM   21  C10 UNL     1      29.314  41.800  19.142  1.00  0.00     0.164 C 
BRANCH  21  22
HETATM   22  C11 UNL     1      30.259  41.703  20.331  1.00  0.00     0.038 C 
HETATM   23  C12 UNL     1      30.798  40.313  20.418  1.00  0.00     0.011 C 
HETATM   24  C13 UNL     1      29.948  39.307  21.095  1.00  0.00     0.001 C 
HETATM   25  C14 UNL     1      29.233  39.716  22.329  1.00  0.00     0.000 C 
HETATM   26  C15 UNL     1      30.037  40.522  23.314  1.00  0.00     0.000 C 
HETATM   27  C16 UNL     1      30.572  41.798  22.774  1.00  0.00     0.001 C 
HETATM   28  C17 UNL     1      29.760  42.304  21.582  1.00  0.00     0.011 C 
ENDBRANCH  21  22
ENDBRANCH  20  21
ENDBRANCH  15  18
ENDBRANCH  11  14
ENDBRANCH   1  10
BRANCH   2  29
HETATM   29  C6  UNL     1      34.798  36.885  14.342  1.00  0.00     0.229 C 
HETATM   30  O2  UNL     1      33.896  36.592  15.086  1.00  0.00    -0.643 OA
HETATM   31  O3  UNL     1      35.126  35.745  13.433  1.00  0.00    -0.643 OA
ENDBRANCH   2  29
TORSDOF 6
ENDMDL
MODEL 4
REMARK VINA RESULT: -9.451246976      1.074      1.587
REMARK  6 active torsions:
REMARK  status: ('A' for Active; 'I' for Inactive)
REMARK    1  A    between atoms: C2_2  and  C9_21 
REMARK    2  A    between atoms: N1_3  and  N2_5 
REMARK       I    between atoms: N2_5  and  C3_7 
REMARK    3  A    between atoms: C3_7  and  C4_9 
REMARK    4  A    between atoms: C5_10  and  C6_11 
REMARK       I    between atoms: C9_21  and  N6_23 
REMARK    5  A    between atoms: N6_23  and  C10_24 
REMARK    6  A    between atoms: C10_24  and  C11_25 
ROOT
HETATM    1  C4  UNL     1      36.232  39.217  13.208  1.00  0.00     0.107 A 
HETATM    2  C5  UNL     1      36.816  40.466  12.906  1.00  0.00     0.143 A 
HETATM    3  N3  UNL     1      37.630  40.206  11.874  1.00  0.00    -0.293 N 
ATOM      4  H3  UNL     1      38.200  40.926  11.430  1.00  0.00     0.187 HD
HETATM    5  N4  UNL     1      37.639  38.983  11.488  1.00  0.00    -0.289 N 
ATOM      6  H4  UNL     1      38.184  38.581  10.726  1.00  0.00     0.188 HD
HETATM    7  C7  UNL     1      36.761  38.330  12.316  1.00  0.00     0.146 A 
HETATM    8  C8  UNL     1      36.493  36.928  12.215  1.00  0.00     0.120 C 
HETATM    9  N5  UNL     1      36.308  35.780  12.114  1.00  0.00    -0.190 NA
ENDROOT
BRANCH   1  10
HETATM   10  C3  UNL     1      35.333  38.962  14.307  1.00  0.00     0.275 C 
HETATM   11  N2  UNL     1      34.044  39.467  14.486  1.00  0.00    -0.265 N 
ATOM     12  H2  UNL     1      33.651  40.096  13.785  1.00  0.00     0.190 HD
HETATM   13  O1  UNL     1      35.774  38.168  15.234  1.00  0.00    -0.266 OA
BRANCH  11  14
HETATM   14  N1  UNL     1      33.264  39.124  15.629  1.00  0.00    -0.296 N 
HETATM   15  C2  UNL     1      32.338  39.894  16.058  1.00  0.00     0.104 C 
HETATM   16  C1  UNL     1      32.055  41.154  15.378  1.00  0.00     0.077 C 
ATOM     17  H1  UNL     1      33.448  38.246  16.114  1.00  0.00     0.187 HD
BRANCH  15  18
HETATM   18  C9  UNL     1      31.587  39.475  17.259  1.00  0.00     0.338 C 
HETATM   19  O4  UNL     1      31.106  38.345  17.226  1.00  0.00    -0.250 OA
HETATM   20  N6  UNL     1      31.448  40.366  18.360  1.00  0.00    -0.382 NA
BRANCH  20  21
HETATM   21  C10 UNL     1      31.318  41.186  19.379  1.00  0.00     0.164 C 
BRANCH  21  22
HETATM   22  C11 UNL     1      32.131  40.973  20.648  1.00  0.00     0.038 C 
HETATM   23  C12 UNL     1      31.203  40.698  21.786  1.00  0.00     0.011 C 
HETATM   24  C13 UNL     1      30.594  41.873  22.452  1.00  0.00     0.001 C 
HETATM   25  C14 UNL     1      31.454  43.058  22.694  1.00  0.00     0.000 C 
HETATM   26  C15 UNL     1      32.834  42.769  23.222  1.00  0.00     0.000 C 
HETATM   27  C16 UNL     1      33.660  41.905  22.341  1.00  0.00     0.001 C 
HETATM   28  C17 UNL     1      33.201  41.960  20.884  1.00  0.00     0.011 C 
ENDBRANCH  21  22
ENDBRANCH  20  21
ENDBRANCH  15  18
ENDBRANCH  11  14
ENDBRANCH   1  10
BRANCH   2  29
HETATM   29  C6  UNL     1      36.572  41.750  13.473  1.00  0.00     0.229 C 
HETATM   30  O2  UNL     1      37.174  42.597  14.084  1.00  0.00    -0.643 OA
HETATM   31  O3  UNL     1      35.156  42.170  13.243  1.00  0.00    -0.643 OA
ENDBRANCH   2  29
TORSDOF 6
ENDMDL
MODEL 5
REMARK VINA RESULT: -9.442500326      1.889      2.555
REMARK  6 active torsions:
REMARK  status: ('A' for Active; 'I' for Inactive)
REMARK    1  A    between atoms: C2_2  and  C9_21 
REMARK    2  A    between atoms: N1_3  and  N2_5 
REMARK       I    between atoms: N2_5  and  C3_7 
REMARK    3  A    between atoms: C3_7  and  C4_9 
REMARK    4  A    between atoms: C5_10  and  C6_11 
REMARK       I    between atoms: C9_21  and  N6_23 
REMARK    5  A    between atoms: N6_23  and  C10_24 
REMARK    6  A    between atoms: C10_24  and  C11_25 
ROOT
HETATM    1  C4  UNL     1      35.256  39.317  14.013  1.00  0.00     0.107 A 
HETATM    2  C5  UNL     1      36.376  39.938  13.419  1.00  0.00     0.143 A 
HETATM    3  N3  UNL     1      37.124  38.915  12.983  1.00  0.00    -0.293 N 
ATOM      4  H3  UNL     1      38.014  39.052  12.503  1.00  0.00     0.187 HD
HETATM    5  N4  UNL     1      36.637  37.752  13.215  1.00  0.00    -0.289 N 
ATOM      6  H4  UNL     1      37.046  36.852  12.966  1.00  0.00     0.188 HD
HETATM    7  C7  UNL     1      35.451  37.973  13.867  1.00  0.00     0.146 A 
HETATM    8  C8  UNL     1      34.599  36.914  14.313  1.00  0.00     0.120 C 
HETATM    9  N5  UNL     1      33.934  36.026  14.675  1.00  0.00    -0.190 NA
ENDROOT
BRANCH   1  10
HETATM   10  C3  UNL     1      34.192  40.003  14.702  1.00  0.00     0.275 C 
HETATM   11  N2  UNL     1      33.480  39.564  15.821  1.00  0.00    -0.265 N 
ATOM     12  H2  UNL     1      33.702  38.656  16.229  1.00  0.00     0.190 HD
HETATM   13  O1  UNL     1      33.861  41.166  14.231  1.00  0.00    -0.266 OA
BRANCH  11  14
HETATM   14  N1  UNL     1      32.448  40.356  16.403  1.00  0.00    -0.296 N 
HETATM   15  C2  UNL     1      31.410  39.820  16.923  1.00  0.00     0.104 C 
HETATM   16  C1  UNL     1      31.261  38.367  16.934  1.00  0.00     0.077 C 
ATOM     17  H1  UNL     1      32.539  41.372  16.404  1.00  0.00     0.187 HD
BRANCH  15  18
HETATM   18  C9  UNL     1      30.378  40.710  17.489  1.00  0.00     0.338 C 
HETATM   19  O4  UNL     1      29.656  41.283  16.677  1.00  0.00    -0.250 OA
HETATM   20  N6  UNL     1      30.270  40.872  18.899  1.00  0.00    -0.382 NA
BRANCH  20  21
HETATM   21  C10 UNL     1      30.168  41.022  20.202  1.00  0.00     0.164 C 
BRANCH  21  22
HETATM   22  C11 UNL     1      31.382  40.818  21.097  1.00  0.00     0.038 C 
HETATM   23  C12 UNL     1      31.080  41.348  22.461  1.00  0.00     0.011 C 
HETATM   24  C13 UNL     1      31.256  42.806  22.666  1.00  0.00     0.001 C 
HETATM   25  C14 UNL     1      32.438  43.457  22.051  1.00  0.00     0.000 C 
HETATM   26  C15 UNL     1      33.740  42.714  22.188  1.00  0.00     0.000 C 
HETATM   27  C16 UNL     1      33.736  41.354  21.593  1.00  0.00     0.001 C 
HETATM   28  C17 UNL     1      32.675  41.204  20.503  1.00  0.00     0.011 C 
ENDBRANCH  21  22
ENDBRANCH  20  21
ENDBRANCH  15  18
ENDBRANCH  11  14
ENDBRANCH   1  10
BRANCH   2  29
HETATM   29  C6  UNL     1      36.657  41.321  13.223  1.00  0.00     0.229 C 
HETATM   30  O2  UNL     1      36.962  42.283  13.882  1.00  0.00    -0.643 OA
HETATM   31  O3  UNL     1      36.540  41.685  11.779  1.00  0.00    -0.643 OA
ENDBRANCH   2  29
TORSDOF 6
ENDMDL
