MODEL 1
REMARK VINA RESULT: -7.358480404      0.000      0.000
REMARK  9 active torsions:
REMARK  status: ('A' for Active; 'I' for Inactive)
REMARK    1  A    between atoms: C2_2  and  N1_3 
REMARK    2  A    between atoms: C2_2  and  C12_27 
REMARK    3  A    between atoms: N1_3  and  S1_5 
REMARK    4  A    between atoms: S1_5  and  C3_8 
REMARK    5  A    between atoms: C4_9  and  N2_10 
REMARK    6  A    between atoms: N2_10  and  C5_11 
REMARK    7  A    between atoms: N2_10  and  C7_13 
REMARK    8  A    between atoms: C7_13  and  C8_14 
REMARK    9  A    between atoms: C10_19  and  N5_20 
ROOT
HETATM    1  C8  UNL     1      34.711  40.658  22.208  1.00  0.00     0.143 C 
HETATM    2  C9  UNL     1      35.959  41.347  21.992  1.00  0.00     0.060 C 
HETATM    3  N3  UNL     1      36.991  41.879  21.829  1.00  0.00    -0.197 NA
ENDROOT
BRANCH   1   4
HETATM    4  C7  UNL     1      33.727  40.740  21.116  1.00  0.00     0.138 C 
BRANCH   4   5
HETATM    5  N2  UNL     1      32.633  41.630  21.190  1.00  0.00    -0.365 N 
BRANCH   5   6
HETATM    6  C4  UNL     1      31.315  41.133  21.470  1.00  0.00     0.148 A 
HETATM    7  C3  UNL     1      30.429  40.985  20.469  1.00  0.00     0.192 A 
HETATM    8  C11 UNL     1      29.136  40.554  20.859  1.00  0.00     0.286 A 
HETATM    9  N6  UNL     1      28.852  40.319  22.146  1.00  0.00    -0.155 N 
HETATM   10  O3  UNL     1      28.268  40.402  19.943  1.00  0.00    -0.266 OA
HETATM   11  C10 UNL     1      29.770  40.479  23.116  1.00  0.00     0.680 A 
ATOM     12  H6  UNL     1      27.913  40.010  22.397  1.00  0.00     0.187 HD
HETATM   13  N4  UNL     1      31.001  40.885  22.793  1.00  0.00    -0.175 N 
ATOM     14  H4  UNL     1      31.706  41.010  23.519  1.00  0.00     0.186 HD
BRANCH   7  15
HETATM   15  S1  UNL     1      30.722  41.196  18.792  1.00  0.00     0.272 S 
HETATM   16  O1  UNL     1      32.163  40.868  18.386  1.00  0.00    -0.200 OA
HETATM   17  O2  UNL     1      30.672  42.720  18.571  1.00  0.00    -0.200 OA
BRANCH  15  18
HETATM   18  N1  UNL     1      29.662  40.473  17.703  1.00  0.00    -0.284 N 
ATOM     19  H1  UNL     1      29.180  39.644  18.051  1.00  0.00     0.178 HD
BRANCH  18  20
HETATM   20  C2  UNL     1      29.340  40.842  16.388  1.00  0.00     0.018 C 
HETATM   21  C1  UNL     1      30.166  40.537  15.410  1.00  0.00     0.039 C 
BRANCH  20  22
HETATM   22  C12 UNL     1      28.111  41.602  16.047  1.00  0.00    -0.009 C 
HETATM   23  C13 UNL     1      26.944  41.175  16.945  1.00  0.00     0.021 C 
HETATM   24  C14 UNL     1      27.672  41.269  14.612  1.00  0.00     0.021 C 
HETATM   25  C15 UNL     1      28.226  43.081  16.194  1.00  0.00     0.021 C 
ENDBRANCH  20  22
ENDBRANCH  18  20
ENDBRANCH  15  18
ENDBRANCH   7  15
BRANCH  11  26
HETATM   26  N5  UNL     1      29.454  40.239  24.362  1.00  0.00    -0.234 N 
ATOM     27  H52 UNL     1      29.473  39.283  24.718  1.00  0.00     0.174 HD
ATOM     28  H51 UNL     1      29.187  41.000  24.986  1.00  0.00     0.174 HD
ENDBRANCH  11  26
ENDBRANCH   5   6
BRANCH   5  29
HETATM   29  C5  UNL     1      32.769  43.045  21.033  1.00  0.00     0.120 C 
HETATM   30  C6  UNL     1      32.197  43.866  22.175  1.00  0.00     0.026 C 
ENDBRANCH   5  29
ENDBRANCH   4   5
ENDBRANCH   1   4
TORSDOF 9
ENDMDL
MODEL 2
REMARK VINA RESULT: -6.426937577      0.978      2.115
REMARK  9 active torsions:
REMARK  status: ('A' for Active; 'I' for Inactive)
REMARK    1  A    between atoms: C2_2  and  N1_3 
REMARK    2  A    between atoms: C2_2  and  C12_27 
REMARK    3  A    between atoms: N1_3  and  S1_5 
REMARK    4  A    between atoms: S1_5  and  C3_8 
REMARK    5  A    between atoms: C4_9  and  N2_10 
REMARK    6  A    between atoms: N2_10  and  C5_11 
REMARK    7  A    between atoms: N2_10  and  C7_13 
REMARK    8  A    between atoms: C7_13  and  C8_14 
REMARK    9  A    between atoms: C10_19  and  N5_20 
ROOT
HETATM    1  C8  UNL     1      32.691  43.764  21.931  1.00  0.00     0.143 C 
HETATM    2  C9  UNL     1      31.674  43.578  22.934  1.00  0.00     0.060 C 
HETATM    3  N3  UNL     1      30.837  43.462  23.748  1.00  0.00    -0.197 NA
ENDROOT
BRANCH   1   4
HETATM    4  C7  UNL     1      32.746  42.750  20.866  1.00  0.00     0.138 C 
BRANCH   4   5
HETATM    5  N2  UNL     1      32.519  41.385  21.151  1.00  0.00    -0.365 N 
BRANCH   5   6
HETATM    6  C4  UNL     1      31.189  40.911  21.409  1.00  0.00     0.148 A 
HETATM    7  C3  UNL     1      30.290  40.862  20.409  1.00  0.00     0.192 A 
HETATM    8  C11 UNL     1      28.987  40.446  20.781  1.00  0.00     0.286 A 
HETATM    9  N6  UNL     1      28.706  40.130  22.051  1.00  0.00    -0.155 N 
HETATM   10  O3  UNL     1      28.107  40.387  19.866  1.00  0.00    -0.266 OA
HETATM   11  C10 UNL     1      29.636  40.192  23.021  1.00  0.00     0.680 A 
ATOM     12  H6  UNL     1      27.760  39.833  22.290  1.00  0.00     0.187 HD
HETATM   13  N4  UNL     1      30.878  40.580  22.714  1.00  0.00    -0.175 N 
ATOM     14  H4  UNL     1      31.592  40.631  23.440  1.00  0.00     0.186 HD
BRANCH   7  15
HETATM   15  S1  UNL     1      30.576  41.182  18.748  1.00  0.00     0.272 S 
HETATM   16  O1  UNL     1      32.031  40.945  18.331  1.00  0.00    -0.200 OA
HETATM   17  O2  UNL     1      30.456  42.713  18.614  1.00  0.00    -0.200 OA
BRANCH  15  18
HETATM   18  N1  UNL     1      29.552  40.475  17.615  1.00  0.00    -0.284 N 
ATOM     19  H1  UNL     1      29.049  39.650  17.941  1.00  0.00     0.178 HD
BRANCH  18  20
HETATM   20  C2  UNL     1      29.288  40.851  16.289  1.00  0.00     0.018 C 
HETATM   21  C1  UNL     1      30.163  40.565  15.349  1.00  0.00     0.039 C 
BRANCH  20  22
HETATM   22  C12 UNL     1      28.067  41.598  15.898  1.00  0.00    -0.009 C 
HETATM   23  C13 UNL     1      26.876  41.183  16.768  1.00  0.00     0.021 C 
HETATM   24  C14 UNL     1      27.673  41.237  14.457  1.00  0.00     0.021 C 
HETATM   25  C15 UNL     1      28.171  43.081  16.020  1.00  0.00     0.021 C 
ENDBRANCH  20  22
ENDBRANCH  18  20
ENDBRANCH  15  18
ENDBRANCH   7  15
BRANCH  11  26
HETATM   26  N5  UNL     1      29.323  39.874  24.250  1.00  0.00    -0.234 N 
ATOM     27  H52 UNL     1      29.522  40.523  25.011  1.00  0.00     0.174 HD
ATOM     28  H51 UNL     1      28.881  38.978  24.458  1.00  0.00     0.174 HD
ENDBRANCH  11  26
ENDBRANCH   5   6
BRANCH   5  29
HETATM   29  C5  UNL     1      33.565  40.409  21.162  1.00  0.00     0.120 C 
HETATM   30  C6  UNL     1      34.834  40.850  21.871  1.00  0.00     0.026 C 
ENDBRANCH   5  29
ENDBRANCH   4   5
ENDBRANCH   1   4
TORSDOF 9
ENDMDL
MODEL 3
REMARK VINA RESULT: -6.251865301      2.732      6.343
REMARK  9 active torsions:
REMARK  status: ('A' for Active; 'I' for Inactive)
REMARK    1  A    between atoms: C2_2  and  N1_3 
REMARK    2  A    between atoms: C2_2  and  C12_27 
REMARK    3  A    between atoms: N1_3  and  S1_5 
REMARK    4  A    between atoms: S1_5  and  C3_8 
REMARK    5  A    between atoms: C4_9  and  N2_10 
REMARK    6  A    between atoms: N2_10  and  C5_11 
REMARK    7  A    between atoms: N2_10  and  C7_13 
REMARK    8  A    between atoms: C7_13  and  C8_14 
REMARK    9  A    between atoms: C10_19  and  N5_20 
ROOT
HETATM    1  C8  UNL     1      33.963  40.174  14.753  1.00  0.00     0.143 C 
HETATM    2  C9  UNL     1      35.222  40.875  14.766  1.00  0.00     0.060 C 
HETATM    3  N3  UNL     1      36.249  41.440  14.742  1.00  0.00    -0.197 NA
ENDROOT
BRANCH   1   4
HETATM    4  C7  UNL     1      32.874  40.779  15.536  1.00  0.00     0.138 C 
BRANCH   4   5
HETATM    5  N2  UNL     1      31.907  39.974  16.179  1.00  0.00    -0.365 N 
BRANCH   5   6
HETATM    6  C4  UNL     1      30.549  40.425  16.291  1.00  0.00     0.148 A 
HETATM    7  C3  UNL     1      30.043  40.732  17.499  1.00  0.00     0.192 A 
HETATM    8  C11 UNL     1      28.674  41.101  17.510  1.00  0.00     0.286 A 
HETATM    9  N6  UNL     1      27.965  41.133  16.375  1.00  0.00    -0.155 N 
HETATM   10  O3  UNL     1      28.156  41.397  18.633  1.00  0.00    -0.266 OA
HETATM   11  C10 UNL     1      28.512  40.821  15.187  1.00  0.00     0.680 A 
ATOM     12  H6  UNL     1      26.982  41.403  16.413  1.00  0.00     0.187 HD
HETATM   13  N4  UNL     1      29.799  40.466  15.131  1.00  0.00    -0.175 N 
ATOM     14  H4  UNL     1      30.225  40.226  14.236  1.00  0.00     0.186 HD
BRANCH   7  15
HETATM   15  S1  UNL     1      30.890  40.784  18.990  1.00  0.00     0.272 S 
HETATM   16  O1  UNL     1      32.413  40.769  18.819  1.00  0.00    -0.200 OA
HETATM   17  O2  UNL     1      30.633  39.410  19.639  1.00  0.00    -0.200 OA
BRANCH  15  18
HETATM   18  N1  UNL     1      30.469  41.975  20.101  1.00  0.00    -0.284 N 
ATOM     19  H1  UNL     1      29.984  42.782  19.710  1.00  0.00     0.178 HD
BRANCH  18  20
HETATM   20  C2  UNL     1      30.686  42.024  21.487  1.00  0.00     0.018 C 
HETATM   21  C1  UNL     1      29.858  41.395  22.294  1.00  0.00     0.039 C 
BRANCH  20  22
HETATM   22  C12 UNL     1      31.802  42.790  22.096  1.00  0.00    -0.009 C 
HETATM   23  C13 UNL     1      32.705  41.868  22.922  1.00  0.00     0.021 C 
HETATM   24  C14 UNL     1      31.245  43.822  23.090  1.00  0.00     0.021 C 
HETATM   25  C15 UNL     1      32.696  43.480  21.122  1.00  0.00     0.021 C 
ENDBRANCH  20  22
ENDBRANCH  18  20
ENDBRANCH  15  18
ENDBRANCH   7  15
BRANCH  11  26
HETATM   26  N5  UNL     1      27.786  40.865  14.100  1.00  0.00    -0.234 N 
ATOM     27  H52 UNL     1      28.212  41.132  13.213  1.00  0.00     0.174 HD
ATOM     28  H51 UNL     1      26.793  40.634  14.129  1.00  0.00     0.174 HD
ENDBRANCH  11  26
ENDBRANCH   5   6
BRANCH   5  29
HETATM   29  C5  UNL     1      32.203  38.679  16.711  1.00  0.00     0.120 C 
HETATM   30  C6  UNL     1      31.120  37.639  16.480  1.00  0.00     0.026 C 
ENDBRANCH   5  29
ENDBRANCH   4   5
ENDBRANCH   1   4
TORSDOF 9
ENDMDL
MODEL 4
REMARK VINA RESULT: -6.222255578      0.897      1.407
REMARK  9 active torsions:
REMARK  status: ('A' for Active; 'I' for Inactive)
REMARK    1  A    between atoms: C2_2  and  N1_3 
REMARK    2  A    between atoms: C2_2  and  C12_27 
REMARK    3  A    between atoms: N1_3  and  S1_5 
REMARK    4  A    between atoms: S1_5  and  C3_8 
REMARK    5  A    between atoms: C4_9  and  N2_10 
REMARK    6  A    between atoms: N2_10  and  C5_11 
REMARK    7  A    between atoms: N2_10  and  C7_13 
REMARK    8  A    between atoms: C7_13  and  C8_14 
REMARK    9  A    between atoms: C10_19  and  N5_20 
ROOT
HETATM    1  C8  UNL     1      34.486  40.940  22.242  1.00  0.00     0.143 C 
HETATM    2  C9  UNL     1      35.796  41.405  21.862  1.00  0.00     0.060 C 
HETATM    3  N3  UNL     1      36.876  41.753  21.565  1.00  0.00    -0.197 NA
ENDROOT
BRANCH   1   4
HETATM    4  C7  UNL     1      33.415  41.135  21.251  1.00  0.00     0.138 C 
BRANCH   4   5
HETATM    5  N2  UNL     1      32.230  41.827  21.589  1.00  0.00    -0.365 N 
BRANCH   5   6
HETATM    6  C4  UNL     1      30.991  41.115  21.727  1.00  0.00     0.148 A 
HETATM    7  C3  UNL     1      30.102  41.118  20.717  1.00  0.00     0.192 A 
HETATM    8  C11 UNL     1      28.882  40.444  20.979  1.00  0.00     0.286 A 
HETATM    9  N6  UNL     1      28.665  39.854  22.161  1.00  0.00    -0.155 N 
HETATM   10  O3  UNL     1      28.013  40.425  20.051  1.00  0.00    -0.266 OA
HETATM   11  C10 UNL     1      29.585  39.873  23.143  1.00  0.00     0.680 A 
ATOM     12  H6  UNL     1      27.779  39.376  22.320  1.00  0.00     0.187 HD
HETATM   13  N4  UNL     1      30.748  40.498  22.939  1.00  0.00    -0.175 N 
ATOM     14  H4  UNL     1      31.453  40.520  23.676  1.00  0.00     0.186 HD
BRANCH   7  15
HETATM   15  S1  UNL     1      30.319  41.787  19.152  1.00  0.00     0.272 S 
HETATM   16  O1  UNL     1      31.035  40.838  18.186  1.00  0.00    -0.200 OA
HETATM   17  O2  UNL     1      31.371  42.897  19.340  1.00  0.00    -0.200 OA
BRANCH  15  18
HETATM   18  N1  UNL     1      28.981  42.456  18.382  1.00  0.00    -0.284 N 
ATOM     19  H1  UNL     1      28.181  42.642  18.987  1.00  0.00     0.178 HD
BRANCH  18  20
HETATM   20  C2  UNL     1      28.802  42.798  17.033  1.00  0.00     0.018 C 
HETATM   21  C1  UNL     1      29.302  43.928  16.579  1.00  0.00     0.039 C 
BRANCH  20  22
HETATM   22  C12 UNL     1      28.036  41.948  16.087  1.00  0.00    -0.009 C 
HETATM   23  C13 UNL     1      27.305  42.811  15.053  1.00  0.00     0.021 C 
HETATM   24  C14 UNL     1      26.935  41.187  16.843  1.00  0.00     0.021 C 
HETATM   25  C15 UNL     1      28.857  40.977  15.308  1.00  0.00     0.021 C 
ENDBRANCH  20  22
ENDBRANCH  18  20
ENDBRANCH  15  18
ENDBRANCH   7  15
BRANCH  11  26
HETATM   26  N5  UNL     1      29.336  39.284  24.283  1.00  0.00    -0.234 N 
ATOM     27  H52 UNL     1      29.324  38.266  24.340  1.00  0.00     0.174 HD
ATOM     28  H51 UNL     1      29.153  39.834  25.123  1.00  0.00     0.174 HD
ENDBRANCH  11  26
ENDBRANCH   5   6
BRANCH   5  29
HETATM   29  C5  UNL     1      32.198  43.234  21.844  1.00  0.00     0.120 C 
HETATM   30  C6  UNL     1      31.295  43.647  22.994  1.00  0.00     0.026 C 
ENDBRANCH   5  29
ENDBRANCH   4   5
ENDBRANCH   1   4
TORSDOF 9
ENDMDL
MODEL 5
REMARK VINA RESULT: -6.141226840      2.220      7.051
REMARK  9 active torsions:
REMARK  status: ('A' for Active; 'I' for Inactive)
REMARK    1  A    between atoms: C2_2  and  N1_3 
REMARK    2  A    between atoms: C2_2  and  C12_27 
REMARK    3  A    between atoms: N1_3  and  S1_5 
REMARK    4  A    between atoms: S1_5  and  C3_8 
REMARK    5  A    between atoms: C4_9  and  N2_10 
REMARK    6  A    between atoms: N2_10  and  C5_11 
REMARK    7  A    between atoms: N2_10  and  C7_13 
REMARK    8  A    between atoms: C7_13  and  C8_14 
REMARK    9  A    between atoms: C10_19  and  N5_20 
ROOT
HETATM    1  C8  UNL     1      27.231  40.344  16.029  1.00  0.00     0.143 C 
HETATM    2  C9  UNL     1      27.782  40.538  14.712  1.00  0.00     0.060 C 
HETATM    3  N3  UNL     1      28.199  40.686  13.625  1.00  0.00    -0.197 NA
ENDROOT
BRANCH   1   4
HETATM    4  C7  UNL     1      27.497  41.412  17.007  1.00  0.00     0.138 C 
BRANCH   4   5
HETATM    5  N2  UNL     1      28.707  42.140  16.977  1.00  0.00    -0.365 N 
BRANCH   5   6
HETATM    6  C4  UNL     1      29.966  41.453  17.045  1.00  0.00     0.148 A 
HETATM    7  C3  UNL     1      30.437  41.036  18.235  1.00  0.00     0.192 A 
HETATM    8  C11 UNL     1      31.719  40.431  18.204  1.00  0.00     0.286 A 
HETATM    9  N6  UNL     1      32.385  40.297  17.050  1.00  0.00    -0.155 N 
HETATM   10  O3  UNL     1      32.202  40.025  19.307  1.00  0.00    -0.266 OA
HETATM   11  C10 UNL     1      31.875  40.726  15.882  1.00  0.00     0.680 A 
ATOM     12  H6  UNL     1      33.305  39.857  17.058  1.00  0.00     0.187 HD
HETATM   13  N4  UNL     1      30.670  41.304  15.866  1.00  0.00    -0.175 N 
ATOM     14  H4  UNL     1      30.272  41.634  14.987  1.00  0.00     0.186 HD
BRANCH   7  15
HETATM   15  S1  UNL     1      29.629  41.104  19.747  1.00  0.00     0.272 S 
HETATM   16  O1  UNL     1      28.271  40.395  19.737  1.00  0.00    -0.200 OA
HETATM   17  O2  UNL     1      29.212  42.580  19.905  1.00  0.00    -0.200 OA
BRANCH  15  18
HETATM   18  N1  UNL     1      30.482  40.650  21.124  1.00  0.00    -0.284 N 
ATOM     19  H1  UNL     1      30.861  39.703  21.107  1.00  0.00     0.178 HD
BRANCH  18  20
HETATM   20  C2  UNL     1      30.750  41.380  22.293  1.00  0.00     0.018 C 
HETATM   21  C1  UNL     1      30.049  41.140  23.380  1.00  0.00     0.039 C 
BRANCH  20  22
HETATM   22  C12 UNL     1      31.779  42.448  22.351  1.00  0.00    -0.009 C 
HETATM   23  C13 UNL     1      32.992  41.988  23.166  1.00  0.00     0.021 C 
HETATM   24  C14 UNL     1      31.220  43.671  23.095  1.00  0.00     0.021 C 
HETATM   25  C15 UNL     1      32.311  42.881  21.027  1.00  0.00     0.021 C 
ENDBRANCH  20  22
ENDBRANCH  18  20
ENDBRANCH  15  18
ENDBRANCH   7  15
BRANCH  11  26
HETATM   26  N5  UNL     1      32.555  40.576  14.776  1.00  0.00    -0.234 N 
ATOM     27  H52 UNL     1      32.533  41.303  14.060  1.00  0.00     0.174 HD
ATOM     28  H51 UNL     1      33.112  39.736  14.618  1.00  0.00     0.174 HD
ENDBRANCH  11  26
ENDBRANCH   5   6
BRANCH   5  29
HETATM   29  C5  UNL     1      28.755  43.563  16.843  1.00  0.00     0.120 C 
HETATM   30  C6  UNL     1      28.050  44.105  15.612  1.00  0.00     0.026 C 
ENDBRANCH   5  29
ENDBRANCH   4   5
ENDBRANCH   1   4
TORSDOF 9
ENDMDL
