MODEL 1
REMARK VINA RESULT: -9.457819902      0.000      0.000
REMARK  8 active torsions:
REMARK  status: ('A' for Active; 'I' for Inactive)
REMARK    1  A    between atoms: C2_2  and  C3_3 
REMARK    2  A    between atoms: C3_3  and  C4_4 
REMARK    3  A    between atoms: C4_4  and  N1_5 
REMARK    4  A    between atoms: N1_5  and  C5_7 
REMARK    5  A    between atoms: C6_10  and  C7_11 
REMARK    6  A    between atoms: C7_11  and  C8_12 
REMARK    7  A    between atoms: C9_19  and  C10_20 
REMARK       I    between atoms: C10_20  and  N6_22 
REMARK    8  A    between atoms: C17_31  and  N8_32 
ROOT
HETATM    1  C5  UNL     1      34.561  42.203  21.188  1.00  0.00     0.694 A 
HETATM    2  N2  UNL     1      33.793  41.425  20.369  1.00  0.00    -0.179 N 
ATOM      3  H2  UNL     1      34.242  40.730  19.773  1.00  0.00     0.185 HD
HETATM    4  C6  UNL     1      32.481  41.555  20.334  1.00  0.00     0.119 A 
HETATM    5  N7  UNL     1      31.921  42.489  21.141  1.00  0.00    -0.179 N 
ATOM      6  H7  UNL     1      30.908  42.606  21.129  1.00  0.00     0.185 HD
HETATM    7  C17 UNL     1      32.654  43.263  21.952  1.00  0.00     0.691 A 
HETATM    8  N9  UNL     1      33.978  43.130  21.986  1.00  0.00    -0.023 N 
ATOM      9  H9  UNL     1      34.542  43.714  22.601  1.00  0.00     0.203 HD
ENDROOT
BRANCH   4  10
HETATM   10  C7  UNL     1      31.594  40.764  19.479  1.00  0.00     0.139 C 
BRANCH  10  11
HETATM   11  C8  UNL     1      30.191  40.685  19.914  1.00  0.00     0.068 A 
HETATM   12  N3  UNL     1      29.852  39.897  21.005  1.00  0.00    -0.288 N 
HETATM   13  N4  UNL     1      28.568  40.035  21.262  1.00  0.00    -0.242 N 
ATOM     14  H3  UNL     1      30.497  39.304  21.526  1.00  0.00     0.188 HD
HETATM   15  N5  UNL     1      28.093  40.877  20.374  1.00  0.00    -0.279 N 
ATOM     16  H4  UNL     1      28.044  39.576  22.007  1.00  0.00     0.208 HD
HETATM   17  C9  UNL     1      29.048  41.312  19.514  1.00  0.00     0.142 A 
ATOM     18  H5  UNL     1      27.117  41.172  20.335  1.00  0.00     0.189 HD
BRANCH  17  19
HETATM   19  C10 UNL     1      28.937  42.217  18.382  1.00  0.00     0.277 C 
HETATM   20  O1  UNL     1      28.787  43.468  18.625  1.00  0.00    -0.265 OA
HETATM   21  N6  UNL     1      28.989  41.767  17.042  1.00  0.00    -0.326 N 
HETATM   22  C11 UNL     1      28.854  42.963  16.162  1.00  0.00     0.142 C 
HETATM   23  C16 UNL     1      29.138  40.393  16.832  1.00  0.00     0.068 C 
HETATM   24  C12 UNL     1      27.594  42.789  15.233  1.00  0.00     0.100 C 
HETATM   25  C13 UNL     1      27.646  41.434  14.833  1.00  0.00    -0.181 C 
HETATM   26  C14 UNL     1      27.888  40.061  14.620  1.00  0.00     0.085 C 
HETATM   27  C15 UNL     1      29.182  39.757  15.456  1.00  0.00     0.056 C 
ENDBRANCH  17  19
ENDBRANCH  10  11
ENDBRANCH   4  10
BRANCH   1  28
HETATM   28  N1  UNL     1      35.825  42.079  21.220  1.00  0.00    -0.226 N 
ATOM     29  H1  UNL     1      36.303  42.014  20.321  1.00  0.00     0.177 HD
BRANCH  28  30
HETATM   30  C4  UNL     1      36.639  42.024  22.383  1.00  0.00     0.138 C 
BRANCH  30  31
HETATM   31  C3  UNL     1      37.204  40.650  22.614  1.00  0.00     0.020 C 
BRANCH  31  32
HETATM   32  C2  UNL     1      38.616  40.758  23.149  1.00  0.00    -0.003 C 
HETATM   33  C1  UNL     1      39.314  39.426  23.129  1.00  0.00     0.005 C 
ENDBRANCH  31  32
ENDBRANCH  30  31
ENDBRANCH  28  30
ENDBRANCH   1  28
BRANCH   7  34
HETATM   34  N8  UNL     1      32.105  44.160  22.726  1.00  0.00    -0.234 N 
ATOM     35  H82 UNL     1      31.099  44.309  22.652  1.00  0.00     0.174 HD
ATOM     36  H81 UNL     1      32.656  44.705  23.389  1.00  0.00     0.174 HD
ENDBRANCH   7  34
TORSDOF 8
ENDMDL
MODEL 2
REMARK VINA RESULT: -9.447540505      2.130      3.437
REMARK  8 active torsions:
REMARK  status: ('A' for Active; 'I' for Inactive)
REMARK    1  A    between atoms: C2_2  and  C3_3 
REMARK    2  A    between atoms: C3_3  and  C4_4 
REMARK    3  A    between atoms: C4_4  and  N1_5 
REMARK    4  A    between atoms: N1_5  and  C5_7 
REMARK    5  A    between atoms: C6_10  and  C7_11 
REMARK    6  A    between atoms: C7_11  and  C8_12 
REMARK    7  A    between atoms: C9_19  and  C10_20 
REMARK       I    between atoms: C10_20  and  N6_22 
REMARK    8  A    between atoms: C17_31  and  N8_32 
ROOT
HETATM    1  C5  UNL     1      32.864  42.122  20.668  1.00  0.00     0.694 A 
HETATM    2  N2  UNL     1      32.684  41.199  19.678  1.00  0.00    -0.179 N 
ATOM      3  H2  UNL     1      33.476  40.930  19.095  1.00  0.00     0.185 HD
HETATM    4  C6  UNL     1      31.507  40.648  19.461  1.00  0.00     0.119 A 
HETATM    5  N7  UNL     1      30.478  41.030  20.257  1.00  0.00    -0.179 N 
ATOM      6  H7  UNL     1      29.558  40.616  20.106  1.00  0.00     0.185 HD
HETATM    7  C17 UNL     1      30.630  41.933  21.234  1.00  0.00     0.691 A 
HETATM    8  N9  UNL     1      31.820  42.488  21.451  1.00  0.00    -0.023 N 
ATOM      9  H9  UNL     1      31.944  43.176  22.194  1.00  0.00     0.203 HD
ENDROOT
BRANCH   4  10
HETATM   10  C7  UNL     1      31.236  39.658  18.417  1.00  0.00     0.139 C 
BRANCH  10  11
HETATM   11  C8  UNL     1      31.648  40.036  17.056  1.00  0.00     0.068 A 
HETATM   12  N3  UNL     1      32.997  40.068  16.730  1.00  0.00    -0.288 N 
HETATM   13  N4  UNL     1      33.131  40.354  15.451  1.00  0.00    -0.242 N 
ATOM     14  H3  UNL     1      33.765  39.898  17.379  1.00  0.00     0.188 HD
HETATM   15  N5  UNL     1      31.920  40.502  14.968  1.00  0.00    -0.279 N 
ATOM     16  H4  UNL     1      34.007  40.443  14.937  1.00  0.00     0.208 HD
HETATM   17  C9  UNL     1      30.963  40.319  15.912  1.00  0.00     0.142 A 
ATOM     18  H5  UNL     1      31.720  40.728  13.994  1.00  0.00     0.189 HD
BRANCH  17  19
HETATM   19  C10 UNL     1      29.517  40.418  15.801  1.00  0.00     0.277 C 
HETATM   20  O1  UNL     1      28.870  39.374  15.430  1.00  0.00    -0.265 OA
HETATM   21  N6  UNL     1      28.813  41.612  16.085  1.00  0.00    -0.326 N 
HETATM   22  C11 UNL     1      27.362  41.338  15.875  1.00  0.00     0.142 C 
HETATM   23  C16 UNL     1      29.566  42.725  16.471  1.00  0.00     0.068 C 
HETATM   24  C12 UNL     1      26.799  42.320  14.779  1.00  0.00     0.100 C 
HETATM   25  C13 UNL     1      27.399  43.562  15.089  1.00  0.00    -0.181 C 
HETATM   26  C14 UNL     1      28.148  44.658  15.566  1.00  0.00     0.085 C 
HETATM   27  C15 UNL     1      28.959  44.079  16.780  1.00  0.00     0.056 C 
ENDBRANCH  17  19
ENDBRANCH  10  11
ENDBRANCH   4  10
BRANCH   1  28
HETATM   28  N1  UNL     1      33.999  42.656  20.875  1.00  0.00    -0.226 N 
ATOM     29  H1  UNL     1      34.386  43.219  20.118  1.00  0.00     0.177 HD
BRANCH  28  30
HETATM   30  C4  UNL     1      34.780  42.545  22.056  1.00  0.00     0.138 C 
BRANCH  30  31
HETATM   31  C3  UNL     1      35.320  41.156  22.251  1.00  0.00     0.020 C 
BRANCH  31  32
HETATM   32  C2  UNL     1      36.834  41.191  22.272  1.00  0.00    -0.003 C 
HETATM   33  C1  UNL     1      37.347  42.574  22.567  1.00  0.00     0.005 C 
ENDBRANCH  31  32
ENDBRANCH  30  31
ENDBRANCH  28  30
ENDBRANCH   1  28
BRANCH   7  34
HETATM   34  N8  UNL     1      29.634  42.296  21.996  1.00  0.00    -0.234 N 
ATOM     35  H82 UNL     1      28.825  42.734  21.554  1.00  0.00     0.174 HD
ATOM     36  H81 UNL     1      29.651  42.153  23.006  1.00  0.00     0.174 HD
ENDBRANCH   7  34
TORSDOF 8
ENDMDL
MODEL 3
REMARK VINA RESULT: -9.356689197      2.244      3.225
REMARK  8 active torsions:
REMARK  status: ('A' for Active; 'I' for Inactive)
REMARK    1  A    between atoms: C2_2  and  C3_3 
REMARK    2  A    between atoms: C3_3  and  C4_4 
REMARK    3  A    between atoms: C4_4  and  N1_5 
REMARK    4  A    between atoms: N1_5  and  C5_7 
REMARK    5  A    between atoms: C6_10  and  C7_11 
REMARK    6  A    between atoms: C7_11  and  C8_12 
REMARK    7  A    between atoms: C9_19  and  C10_20 
REMARK       I    between atoms: C10_20  and  N6_22 
REMARK    8  A    between atoms: C17_31  and  N8_32 
ROOT
HETATM    1  C5  UNL     1      32.841  42.016  20.513  1.00  0.00     0.694 A 
HETATM    2  N2  UNL     1      32.637  41.120  19.503  1.00  0.00    -0.179 N 
ATOM      3  H2  UNL     1      33.421  40.846  18.911  1.00  0.00     0.185 HD
HETATM    4  C6  UNL     1      31.446  40.603  19.277  1.00  0.00     0.119 A 
HETATM    5  N7  UNL     1      30.429  40.991  20.083  1.00  0.00    -0.179 N 
ATOM      6  H7  UNL     1      29.499  40.603  19.926  1.00  0.00     0.185 HD
HETATM    7  C17 UNL     1      30.605  41.867  21.081  1.00  0.00     0.691 A 
HETATM    8  N9  UNL     1      31.808  42.388  21.308  1.00  0.00    -0.023 N 
ATOM      9  H9  UNL     1      31.950  43.055  22.066  1.00  0.00     0.203 HD
ENDROOT
BRANCH   4  10
HETATM   10  C7  UNL     1      31.150  39.644  18.210  1.00  0.00     0.139 C 
BRANCH  10  11
HETATM   11  C8  UNL     1      31.857  39.864  16.939  1.00  0.00     0.068 A 
HETATM   12  N3  UNL     1      32.891  39.014  16.571  1.00  0.00    -0.288 N 
HETATM   13  N4  UNL     1      33.325  39.346  15.373  1.00  0.00    -0.242 N 
ATOM     14  H3  UNL     1      33.257  38.252  17.140  1.00  0.00     0.188 HD
HETATM   15  N5  UNL     1      32.603  40.369  14.980  1.00  0.00    -0.279 N 
ATOM     16  H4  UNL     1      34.076  38.895  14.852  1.00  0.00     0.208 HD
HETATM   17  C9  UNL     1      31.681  40.736  15.905  1.00  0.00     0.142 A 
ATOM     18  H5  UNL     1      32.721  40.836  14.081  1.00  0.00     0.189 HD
BRANCH  17  19
HETATM   19  C10 UNL     1      30.714  41.821  15.875  1.00  0.00     0.277 C 
HETATM   20  O1  UNL     1      31.137  43.010  16.101  1.00  0.00    -0.265 OA
HETATM   21  N6  UNL     1      29.342  41.606  15.607  1.00  0.00    -0.326 N 
HETATM   22  C11 UNL     1      28.665  42.935  15.648  1.00  0.00     0.142 C 
HETATM   23  C16 UNL     1      28.929  40.290  15.381  1.00  0.00     0.068 C 
HETATM   24  C12 UNL     1      27.537  42.912  16.748  1.00  0.00     0.100 C 
HETATM   25  C13 UNL     1      26.929  41.646  16.591  1.00  0.00    -0.181 C 
HETATM   26  C14 UNL     1      26.527  40.332  16.274  1.00  0.00     0.085 C 
HETATM   27  C15 UNL     1      27.490  39.899  15.110  1.00  0.00     0.056 C 
ENDBRANCH  17  19
ENDBRANCH  10  11
ENDBRANCH   4  10
BRANCH   1  28
HETATM   28  N1  UNL     1      33.989  42.517  20.730  1.00  0.00    -0.226 N 
ATOM     29  H1  UNL     1      34.431  43.005  19.951  1.00  0.00     0.177 HD
BRANCH  28  30
HETATM   30  C4  UNL     1      34.716  42.464  21.949  1.00  0.00     0.138 C 
BRANCH  30  31
HETATM   31  C3  UNL     1      35.254  41.088  22.228  1.00  0.00     0.020 C 
BRANCH  31  32
HETATM   32  C2  UNL     1      36.767  41.127  22.273  1.00  0.00    -0.003 C 
HETATM   33  C1  UNL     1      37.273  42.515  22.556  1.00  0.00     0.005 C 
ENDBRANCH  31  32
ENDBRANCH  30  31
ENDBRANCH  28  30
ENDBRANCH   1  28
BRANCH   7  34
HETATM   34  N8  UNL     1      29.619  42.236  21.854  1.00  0.00    -0.234 N 
ATOM     35  H82 UNL     1      28.897  42.839  21.459  1.00  0.00     0.174 HD
ATOM     36  H81 UNL     1      29.560  41.938  22.828  1.00  0.00     0.174 HD
ENDBRANCH   7  34
TORSDOF 8
ENDMDL
MODEL 4
REMARK VINA RESULT: -9.350707468      3.662      4.780
REMARK  8 active torsions:
REMARK  status: ('A' for Active; 'I' for Inactive)
REMARK    1  A    between atoms: C2_2  and  C3_3 
REMARK    2  A    between atoms: C3_3  and  C4_4 
REMARK    3  A    between atoms: C4_4  and  N1_5 
REMARK    4  A    between atoms: N1_5  and  C5_7 
REMARK    5  A    between atoms: C6_10  and  C7_11 
REMARK    6  A    between atoms: C7_11  and  C8_12 
REMARK    7  A    between atoms: C9_19  and  C10_20 
REMARK       I    between atoms: C10_20  and  N6_22 
REMARK    8  A    between atoms: C17_31  and  N8_32 
ROOT
HETATM    1  C5  UNL     1      32.814  41.685  21.708  1.00  0.00     0.694 A 
HETATM    2  N2  UNL     1      32.558  41.147  20.479  1.00  0.00    -0.179 N 
ATOM      3  H2  UNL     1      33.286  41.162  19.765  1.00  0.00     0.185 HD
HETATM    4  C6  UNL     1      31.388  40.609  20.198  1.00  0.00     0.119 A 
HETATM    5  N7  UNL     1      30.447  40.607  21.173  1.00  0.00    -0.179 N 
ATOM      6  H7  UNL     1      29.534  40.196  20.977  1.00  0.00     0.185 HD
HETATM    7  C17 UNL     1      30.675  41.128  22.386  1.00  0.00     0.691 A 
HETATM    8  N9  UNL     1      31.858  41.671  22.668  1.00  0.00    -0.023 N 
ATOM      9  H9  UNL     1      32.040  42.069  23.588  1.00  0.00     0.203 HD
ENDROOT
BRANCH   4  10
HETATM   10  C7  UNL     1      31.038  40.020  18.904  1.00  0.00     0.139 C 
BRANCH  10  11
HETATM   11  C8  UNL     1      31.115  40.927  17.749  1.00  0.00     0.068 A 
HETATM   12  N3  UNL     1      30.451  42.146  17.785  1.00  0.00    -0.288 N 
HETATM   13  N4  UNL     1      30.717  42.822  16.687  1.00  0.00    -0.242 N 
ATOM     14  H3  UNL     1      29.849  42.466  18.543  1.00  0.00     0.188 HD
HETATM   15  N5  UNL     1      31.521  42.074  15.968  1.00  0.00    -0.279 N 
ATOM     16  H4  UNL     1      30.367  43.749  16.443  1.00  0.00     0.208 HD
HETATM   17  C9  UNL     1      31.801  40.891  16.570  1.00  0.00     0.142 A 
ATOM     18  H5  UNL     1      31.892  42.350  15.059  1.00  0.00     0.189 HD
BRANCH  17  19
HETATM   19  C10 UNL     1      32.616  39.781  16.106  1.00  0.00     0.277 C 
HETATM   20  O1  UNL     1      32.391  38.620  16.602  1.00  0.00    -0.265 OA
HETATM   21  N6  UNL     1      33.636  39.943  15.138  1.00  0.00    -0.326 N 
HETATM   22  C11 UNL     1      34.246  38.602  14.903  1.00  0.00     0.142 C 
HETATM   23  C16 UNL     1      33.851  41.231  14.640  1.00  0.00     0.068 C 
HETATM   24  C12 UNL     1      35.785  38.664  15.234  1.00  0.00     0.100 C 
HETATM   25  C13 UNL     1      36.204  39.901  14.694  1.00  0.00    -0.181 C 
HETATM   26  C14 UNL     1      36.361  41.182  14.124  1.00  0.00     0.085 C 
HETATM   27  C15 UNL     1      34.923  41.565  13.621  1.00  0.00     0.056 C 
ENDBRANCH  17  19
ENDBRANCH  10  11
ENDBRANCH   4  10
BRANCH   1  28
HETATM   28  N1  UNL     1      33.942  42.206  21.978  1.00  0.00    -0.226 N 
ATOM     29  H1  UNL     1      33.938  43.007  22.610  1.00  0.00     0.177 HD
BRANCH  28  30
HETATM   30  C4  UNL     1      35.206  41.784  21.487  1.00  0.00     0.138 C 
BRANCH  30  31
HETATM   31  C3  UNL     1      35.816  40.709  22.343  1.00  0.00     0.020 C 
BRANCH  31  32
HETATM   32  C2  UNL     1      37.264  41.043  22.635  1.00  0.00    -0.003 C 
HETATM   33  C1  UNL     1      37.509  42.526  22.568  1.00  0.00     0.005 C 
ENDBRANCH  31  32
ENDBRANCH  30  31
ENDBRANCH  28  30
ENDBRANCH   1  28
BRANCH   7  34
HETATM   34  N8  UNL     1      29.763  41.123  23.319  1.00  0.00    -0.234 N 
ATOM     35  H82 UNL     1      29.558  40.239  23.786  1.00  0.00     0.174 HD
ATOM     36  H81 UNL     1      29.260  41.970  23.584  1.00  0.00     0.174 HD
ENDBRANCH   7  34
TORSDOF 8
ENDMDL
MODEL 5
REMARK VINA RESULT: -8.906713984      2.804      9.215
REMARK  8 active torsions:
REMARK  status: ('A' for Active; 'I' for Inactive)
REMARK    1  A    between atoms: C2_2  and  C3_3 
REMARK    2  A    between atoms: C3_3  and  C4_4 
REMARK    3  A    between atoms: C4_4  and  N1_5 
REMARK    4  A    between atoms: N1_5  and  C5_7 
REMARK    5  A    between atoms: C6_10  and  C7_11 
REMARK    6  A    between atoms: C7_11  and  C8_12 
REMARK    7  A    between atoms: C9_19  and  C10_20 
REMARK       I    between atoms: C10_20  and  N6_22 
REMARK    8  A    between atoms: C17_31  and  N8_32 
ROOT
HETATM    1  C5  UNL     1      27.282  43.725  15.124  1.00  0.00     0.694 A 
HETATM    2  N2  UNL     1      28.382  43.838  15.924  1.00  0.00    -0.179 N 
ATOM      3  H2  UNL     1      28.913  44.709  15.925  1.00  0.00     0.185 HD
HETATM    4  C6  UNL     1      28.772  42.843  16.696  1.00  0.00     0.119 A 
HETATM    5  N7  UNL     1      28.042  41.702  16.668  1.00  0.00    -0.179 N 
ATOM      6  H7  UNL     1      28.326  40.920  17.258  1.00  0.00     0.185 HD
HETATM    7  C17 UNL     1      26.958  41.568  15.892  1.00  0.00     0.691 A 
HETATM    8  N9  UNL     1      26.566  42.574  15.113  1.00  0.00    -0.023 N 
ATOM      9  H9  UNL     1      25.742  42.480  14.520  1.00  0.00     0.203 HD
ENDROOT
BRANCH   4  10
HETATM   10  C7  UNL     1      29.943  42.888  17.574  1.00  0.00     0.139 C 
BRANCH  10  11
HETATM   11  C8  UNL     1      30.831  41.716  17.515  1.00  0.00     0.068 A 
HETATM   12  N3  UNL     1      31.504  41.421  16.337  1.00  0.00    -0.288 N 
HETATM   13  N4  UNL     1      32.294  40.386  16.532  1.00  0.00    -0.242 N 
ATOM     14  H3  UNL     1      31.402  41.927  15.458  1.00  0.00     0.188 HD
HETATM   15  N5  UNL     1      32.139  40.023  17.784  1.00  0.00    -0.279 N 
ATOM     16  H4  UNL     1      32.907  39.950  15.844  1.00  0.00     0.208 HD
HETATM   17  C9  UNL     1      31.247  40.806  18.441  1.00  0.00     0.142 A 
ATOM     18  H5  UNL     1      32.634  39.242  18.215  1.00  0.00     0.189 HD
BRANCH  17  19
HETATM   19  C10 UNL     1      30.777  40.728  19.814  1.00  0.00     0.277 C 
HETATM   20  O1  UNL     1      29.559  40.377  20.014  1.00  0.00    -0.265 OA
HETATM   21  N6  UNL     1      31.609  41.023  20.919  1.00  0.00    -0.326 N 
HETATM   22  C11 UNL     1      30.798  40.827  22.156  1.00  0.00     0.142 C 
HETATM   23  C16 UNL     1      32.923  41.415  20.647  1.00  0.00     0.068 C 
HETATM   24  C12 UNL     1      30.751  42.176  22.969  1.00  0.00     0.100 C 
HETATM   25  C13 UNL     1      32.070  42.677  22.881  1.00  0.00    -0.181 C 
HETATM   26  C14 UNL     1      33.421  42.983  22.612  1.00  0.00     0.085 C 
HETATM   27  C15 UNL     1      33.924  41.790  21.723  1.00  0.00     0.056 C 
ENDBRANCH  17  19
ENDBRANCH  10  11
ENDBRANCH   4  10
BRANCH   1  28
HETATM   28  N1  UNL     1      26.907  44.683  14.377  1.00  0.00    -0.226 N 
ATOM     29  H1  UNL     1      26.484  45.487  14.840  1.00  0.00     0.177 HD
BRANCH  28  30
HETATM   30  C4  UNL     1      27.019  44.743  12.962  1.00  0.00     0.138 C 
BRANCH  30  31
HETATM   31  C3  UNL     1      27.094  46.158  12.461  1.00  0.00     0.020 C 
BRANCH  31  32
HETATM   32  C2  UNL     1      26.855  46.187  10.965  1.00  0.00    -0.003 C 
HETATM   33  C1  UNL     1      25.507  45.620  10.614  1.00  0.00     0.005 C 
ENDBRANCH  31  32
ENDBRANCH  30  31
ENDBRANCH  28  30
ENDBRANCH   1  28
BRANCH   7  34
HETATM   34  N8  UNL     1      26.260  40.465  15.871  1.00  0.00    -0.234 N 
ATOM     35  H82 UNL     1      26.148  39.950  16.745  1.00  0.00     0.174 HD
ATOM     36  H81 UNL     1      25.833  40.116  15.013  1.00  0.00     0.174 HD
ENDBRANCH   7  34
TORSDOF 8
ENDMDL
