MODEL 1
REMARK VINA RESULT: -6.363878021      0.000      0.000
REMARK  3 active torsions:
REMARK  status: ('A' for Active; 'I' for Inactive)
REMARK    1  A    between atoms: N1_1  and  O1_4 
REMARK    2  A    between atoms: O1_4  and  N2_5 
REMARK       I    between atoms: N2_5  and  C1_7 
REMARK       I    between atoms: C1_7  and  N3_9 
REMARK    3  A    between atoms: N3_9  and  C2_11 
ROOT
HETATM    1  N2  UNL     1      -0.790   8.394  13.764  1.00  0.00    -0.191 N 
ATOM      2  H2  UNL     1      -0.514   9.256  14.234  1.00  0.00     0.201 HD
HETATM    3  C1  UNL     1      -1.176   8.457  12.344  1.00  0.00     0.360 C 
HETATM    4  O2  UNL     1      -1.496   7.354  11.858  1.00  0.00    -0.244 OA
HETATM    5  N3  UNL     1      -1.155   9.616  11.700  1.00  0.00    -0.138 N 
ATOM      6  H3  UNL     1      -1.175  10.307  12.450  1.00  0.00     0.189 HD
ENDROOT
BRANCH   5   7
HETATM    7  C2  UNL     1      -1.124  10.298  10.682  1.00  0.00     0.705 A 
HETATM    8  N4  UNL     1      -2.138  10.755   9.898  1.00  0.00    -0.128 N 
HETATM    9  N5  UNL     1      -1.651  11.418   8.876  1.00  0.00    -0.237 N 
ATOM     10  H4  UNL     1      -3.131  10.604  10.080  1.00  0.00     0.205 HD
HETATM   11  C3  UNL     1      -0.318  11.426   8.935  1.00  0.00     0.353 A 
ATOM     12  H5  UNL     1      -2.209  11.862   8.146  1.00  0.00     0.192 HD
HETATM   13  O3  UNL     1       0.439  11.986   8.086  1.00  0.00    -0.245 OA
HETATM   14  N6  UNL     1       0.012  10.749  10.030  1.00  0.00    -0.138 N 
ATOM     15  H6  UNL     1       0.968  10.585  10.346  1.00  0.00     0.189 HD
ENDBRANCH   5   7
BRANCH   1  16
HETATM   16  O1  UNL     1      -0.786   7.252  14.462  1.00  0.00    -0.160 OA
BRANCH  16  17
HETATM   17  N1  UNL     1       0.333   6.565  14.177  1.00  0.00    -0.286 N 
ATOM     18  H12 UNL     1       1.165   6.966  13.745  1.00  0.00     0.186 HD
ATOM     19  H11 UNL     1       0.209   5.593  14.460  1.00  0.00     0.186 HD
ENDBRANCH  16  17
ENDBRANCH   1  16
TORSDOF 3
ENDMDL
MODEL 2
REMARK VINA RESULT: -6.306730340      1.059      1.059
REMARK  3 active torsions:
REMARK  status: ('A' for Active; 'I' for Inactive)
REMARK    1  A    between atoms: N1_1  and  O1_4 
REMARK    2  A    between atoms: O1_4  and  N2_5 
REMARK       I    between atoms: N2_5  and  C1_7 
REMARK       I    between atoms: C1_7  and  N3_9 
REMARK    3  A    between atoms: N3_9  and  C2_11 
ROOT
HETATM    1  N2  UNL     1       0.065   8.059  13.459  1.00  0.00    -0.191 N 
ATOM      2  H2  UNL     1       0.619   8.883  13.694  1.00  0.00     0.201 HD
HETATM    3  C1  UNL     1      -0.838   8.122  12.297  1.00  0.00     0.360 C 
HETATM    4  O2  UNL     1      -1.470   7.069  12.090  1.00  0.00    -0.244 OA
HETATM    5  N3  UNL     1      -0.915   9.233  11.575  1.00  0.00    -0.138 N 
ATOM      6  H3  UNL     1      -0.544   9.950  12.199  1.00  0.00     0.189 HD
ENDROOT
BRANCH   5   7
HETATM    7  C2  UNL     1      -1.196   9.855  10.558  1.00  0.00     0.705 A 
HETATM    8  N4  UNL     1      -2.182  10.764  10.326  1.00  0.00    -0.128 N 
HETATM    9  N5  UNL     1      -2.147  11.155   9.073  1.00  0.00    -0.237 N 
ATOM     10  H4  UNL     1      -2.849  11.094  11.024  1.00  0.00     0.205 HD
HETATM   11  C3  UNL     1      -1.158  10.529   8.432  1.00  0.00     0.353 A 
ATOM     12  H5  UNL     1      -2.781  11.835   8.653  1.00  0.00     0.192 HD
HETATM   13  O3  UNL     1      -0.873  10.695   7.208  1.00  0.00    -0.245 OA
HETATM   14  N6  UNL     1      -0.573   9.739   9.326  1.00  0.00    -0.138 N 
ATOM     15  H6  UNL     1       0.223   9.131   9.132  1.00  0.00     0.189 HD
ENDBRANCH   5   7
BRANCH   1  16
HETATM   16  O1  UNL     1       0.188   6.964  14.218  1.00  0.00    -0.160 OA
BRANCH  16  17
HETATM   17  N1  UNL     1      -0.843   6.906  15.078  1.00  0.00    -0.286 N 
ATOM     18  H12 UNL     1      -1.314   7.719  15.473  1.00  0.00     0.186 HD
ATOM     19  H11 UNL     1      -1.069   5.929  15.264  1.00  0.00     0.186 HD
ENDBRANCH  16  17
ENDBRANCH   1  16
TORSDOF 3
ENDMDL
MODEL 3
REMARK VINA RESULT: -6.221931935      0.952      1.095
REMARK  3 active torsions:
REMARK  status: ('A' for Active; 'I' for Inactive)
REMARK    1  A    between atoms: N1_1  and  O1_4 
REMARK    2  A    between atoms: O1_4  and  N2_5 
REMARK       I    between atoms: N2_5  and  C1_7 
REMARK       I    between atoms: C1_7  and  N3_9 
REMARK    3  A    between atoms: N3_9  and  C2_11 
ROOT
HETATM    1  N2  UNL     1      -1.007   8.562  13.708  1.00  0.00    -0.191 N 
ATOM      2  H2  UNL     1      -0.931   9.466  14.175  1.00  0.00     0.201 HD
HETATM    3  C1  UNL     1      -1.080   8.531  12.237  1.00  0.00     0.360 C 
HETATM    4  O2  UNL     1      -1.170   7.383  11.760  1.00  0.00    -0.244 OA
HETATM    5  N3  UNL     1      -1.041   9.663  11.545  1.00  0.00    -0.138 N 
ATOM      6  H3  UNL     1      -1.296  10.372  12.233  1.00  0.00     0.189 HD
ENDROOT
BRANCH   5   7
HETATM    7  C2  UNL     1      -0.862  10.308  10.520  1.00  0.00     0.705 A 
HETATM    8  N4  UNL     1      -0.396  11.575  10.349  1.00  0.00    -0.128 N 
HETATM    9  N5  UNL     1      -0.403  11.887   9.073  1.00  0.00    -0.237 N 
ATOM     10  H4  UNL     1      -0.087  12.192  11.101  1.00  0.00     0.205 HD
HETATM   11  C3  UNL     1      -0.868  10.860   8.359  1.00  0.00     0.353 A 
ATOM     12  H5  UNL     1      -0.097  12.780   8.687  1.00  0.00     0.192 HD
HETATM   13  O3  UNL     1      -0.996  10.858   7.097  1.00  0.00    -0.245 OA
HETATM   14  N6  UNL     1      -1.148   9.896   9.229  1.00  0.00    -0.138 N 
ATOM     15  H6  UNL     1      -1.521   8.979   8.980  1.00  0.00     0.189 HD
ENDBRANCH   5   7
BRANCH   1  16
HETATM   16  O1  UNL     1      -1.036   7.453  14.456  1.00  0.00    -0.160 OA
BRANCH  16  17
HETATM   17  N1  UNL     1       0.190   6.902  14.475  1.00  0.00    -0.286 N 
ATOM     18  H12 UNL     1       0.945   7.147  13.835  1.00  0.00     0.186 HD
ATOM     19  H11 UNL     1       0.235   6.210  15.223  1.00  0.00     0.186 HD
ENDBRANCH  16  17
ENDBRANCH   1  16
TORSDOF 3
ENDMDL
MODEL 4
REMARK VINA RESULT: -6.157532437      1.807      1.971
REMARK  3 active torsions:
REMARK  status: ('A' for Active; 'I' for Inactive)
REMARK    1  A    between atoms: N1_1  and  O1_4 
REMARK    2  A    between atoms: O1_4  and  N2_5 
REMARK       I    between atoms: N2_5  and  C1_7 
REMARK       I    between atoms: C1_7  and  N3_9 
REMARK    3  A    between atoms: N3_9  and  C2_11 
ROOT
HETATM    1  N2  UNL     1       0.048   7.983  13.631  1.00  0.00    -0.191 N 
ATOM      2  H2  UNL     1       0.890   8.515  13.409  1.00  0.00     0.201 HD
HETATM    3  C1  UNL     1      -1.184   8.263  12.874  1.00  0.00     0.360 C 
HETATM    4  O2  UNL     1      -2.157   7.564  13.216  1.00  0.00    -0.244 OA
HETATM    5  N3  UNL     1      -1.183   9.186  11.920  1.00  0.00    -0.138 N 
ATOM      6  H3  UNL     1      -0.365   9.754  12.138  1.00  0.00     0.189 HD
ENDROOT
BRANCH   5   7
HETATM    7  C2  UNL     1      -1.643   9.717  10.917  1.00  0.00     0.705 A 
HETATM    8  N4  UNL     1      -1.405  10.948  10.386  1.00  0.00    -0.128 N 
HETATM    9  N5  UNL     1      -2.148  11.127   9.319  1.00  0.00    -0.237 N 
ATOM     10  H4  UNL     1      -0.747  11.630  10.762  1.00  0.00     0.205 HD
HETATM   11  C3  UNL     1      -2.899  10.044   9.103  1.00  0.00     0.353 A 
ATOM     12  H5  UNL     1      -2.151  11.967   8.740  1.00  0.00     0.192 HD
HETATM   13  O3  UNL     1      -3.722   9.915   8.147  1.00  0.00    -0.245 OA
HETATM   14  N6  UNL     1      -2.598   9.182  10.068  1.00  0.00    -0.138 N 
ATOM     15  H6  UNL     1      -3.012   8.255  10.169  1.00  0.00     0.189 HD
ENDBRANCH   5   7
BRANCH   1  16
HETATM   16  O1  UNL     1       0.107   7.061  14.599  1.00  0.00    -0.160 OA
BRANCH  16  17
HETATM   17  N1  UNL     1       0.257   5.847  14.041  1.00  0.00    -0.286 N 
ATOM     18  H12 UNL     1       1.052   5.566  13.469  1.00  0.00     0.186 HD
ATOM     19  H11 UNL     1      -0.546   5.266  14.284  1.00  0.00     0.186 HD
ENDBRANCH  16  17
ENDBRANCH   1  16
TORSDOF 3
ENDMDL
MODEL 5
REMARK VINA RESULT: -6.112225064      1.668      5.523
REMARK  3 active torsions:
REMARK  status: ('A' for Active; 'I' for Inactive)
REMARK    1  A    between atoms: N1_1  and  O1_4 
REMARK    2  A    between atoms: O1_4  and  N2_5 
REMARK       I    between atoms: N2_5  and  C1_7 
REMARK       I    between atoms: C1_7  and  N3_9 
REMARK    3  A    between atoms: N3_9  and  C2_11 
ROOT
HETATM    1  N2  UNL     1      -1.956  10.887   9.846  1.00  0.00    -0.191 N 
ATOM      2  H2  UNL     1      -2.851  11.125  10.275  1.00  0.00     0.201 HD
HETATM    3  C1  UNL     1      -1.070   9.937  10.541  1.00  0.00     0.360 C 
HETATM    4  O2  UNL     1      -0.003   9.709   9.939  1.00  0.00    -0.244 OA
HETATM    5  N3  UNL     1      -1.442   9.404  11.697  1.00  0.00    -0.138 N 
ATOM      6  H3  UNL     1      -2.167  10.040  12.031  1.00  0.00     0.189 HD
ENDROOT
BRANCH   5   7
HETATM    7  C2  UNL     1      -1.377   8.555  12.577  1.00  0.00     0.705 A 
HETATM    8  N4  UNL     1      -2.337   7.726  13.071  1.00  0.00    -0.128 N 
HETATM    9  N5  UNL     1      -1.843   6.997  14.045  1.00  0.00    -0.237 N 
ATOM     10  H4  UNL     1      -3.299   7.678  12.734  1.00  0.00     0.205 HD
HETATM   11  C3  UNL     1      -0.559   7.309  14.236  1.00  0.00     0.353 A 
ATOM     12  H5  UNL     1      -2.362   6.297  14.575  1.00  0.00     0.192 HD
HETATM   13  O3  UNL     1       0.191   6.776  15.109  1.00  0.00    -0.245 OA
HETATM   14  N6  UNL     1      -0.267   8.253  13.348  1.00  0.00    -0.138 N 
ATOM     15  H6  UNL     1       0.647   8.694  13.248  1.00  0.00     0.189 HD
ENDBRANCH   5   7
BRANCH   1  16
HETATM   16  O1  UNL     1      -1.635  11.450   8.675  1.00  0.00    -0.160 OA
BRANCH  16  17
HETATM   17  N1  UNL     1      -0.692  12.385   8.880  1.00  0.00    -0.286 N 
ATOM     18  H12 UNL     1       0.258  12.339   8.513  1.00  0.00     0.186 HD
ATOM     19  H11 UNL     1      -1.080  13.133   9.455  1.00  0.00     0.186 HD
ENDBRANCH  16  17
ENDBRANCH   1  16
TORSDOF 3
ENDMDL
