MODEL 1
REMARK VINA RESULT: -7.097822224      0.000      0.000
REMARK  2 active torsions:
REMARK  status: ('A' for Active; 'I' for Inactive)
REMARK    1  A    between atoms: N3_4  and  N4_6 
REMARK    2  A    between atoms: N4_6  and  C2_8 
ROOT
HETATM    1  C2  UNL     1      -1.349  10.078  10.811  1.00  0.00     0.705 A 
HETATM    2  N5  UNL     1      -0.246  10.648  10.326  1.00  0.00    -0.139 N 
ATOM      3  H5  UNL     1       0.571  10.771  10.923  1.00  0.00     0.189 HD
HETATM    4  C3  UNL     1      -0.214  11.058   9.050  1.00  0.00     0.342 A 
HETATM    5  O1  UNL     1       0.827  11.591   8.608  1.00  0.00    -0.246 OA
HETATM    6  N6  UNL     1      -1.292  10.894   8.270  1.00  0.00    -0.260 N 
ATOM      7  H6  UNL     1      -1.267  11.207   7.299  1.00  0.00     0.175 HD
HETATM    8  C4  UNL     1      -2.423  10.311   8.765  1.00  0.00     0.342 A 
HETATM    9  O2  UNL     1      -3.444  10.147   8.051  1.00  0.00    -0.246 OA
HETATM   10  N7  UNL     1      -2.449   9.900  10.049  1.00  0.00    -0.139 N 
ATOM     11  H7  UNL     1      -3.285   9.462  10.437  1.00  0.00     0.189 HD
ENDROOT
BRANCH   1  12
HETATM   12  N4  UNL     1      -1.408   9.676  12.029  1.00  0.00    -0.130 N 
ATOM     13  H4  UNL     1      -2.038  10.123  12.695  1.00  0.00     0.205 HD
BRANCH  12  14
HETATM   14  N3  UNL     1      -0.594   8.616  12.423  1.00  0.00    -0.262 N 
HETATM   15  C1  UNL     1      -0.829   8.051  13.537  1.00  0.00     0.216 C 
HETATM   16  N1  UNL     1      -1.878   8.470  14.365  1.00  0.00    -0.065 NA
HETATM   17  N2  UNL     1      -0.010   6.976  13.944  1.00  0.00    -0.065 NA
ATOM     18  H3  UNL     1       0.173   8.300  11.829  1.00  0.00     0.190 HD
ENDBRANCH  12  14
ENDBRANCH   1  12
TORSDOF 2
ENDMDL
MODEL 2
REMARK VINA RESULT: -7.093905699      0.570      2.451
REMARK  2 active torsions:
REMARK  status: ('A' for Active; 'I' for Inactive)
REMARK    1  A    between atoms: N3_4  and  N4_6 
REMARK    2  A    between atoms: N4_6  and  C2_8 
ROOT
HETATM    1  C2  UNL     1      -0.935   9.675  10.685  1.00  0.00     0.705 A 
HETATM    2  N5  UNL     1      -2.170   9.659  10.185  1.00  0.00    -0.139 N 
ATOM      3  H5  UNL     1      -2.903   9.122  10.648  1.00  0.00     0.189 HD
HETATM    4  C3  UNL     1      -2.447  10.352   9.071  1.00  0.00     0.342 A 
HETATM    5  O1  UNL     1      -3.611  10.328   8.614  1.00  0.00    -0.246 OA
HETATM    6  N6  UNL     1      -1.479  11.055   8.467  1.00  0.00    -0.260 N 
ATOM      7  H6  UNL     1      -1.691  11.582   7.619  1.00  0.00     0.175 HD
HETATM    8  C4  UNL     1      -0.213  11.073   8.977  1.00  0.00     0.342 A 
HETATM    9  O2  UNL     1       0.707  11.726   8.426  1.00  0.00    -0.246 OA
HETATM   10  N7  UNL     1       0.059  10.375  10.098  1.00  0.00    -0.139 N 
ATOM     11  H7  UNL     1       0.999  10.375  10.495  1.00  0.00     0.189 HD
ENDROOT
BRANCH   1  12
HETATM   12  N4  UNL     1      -0.641   9.021  11.751  1.00  0.00    -0.130 N 
ATOM     13  H4  UNL     1       0.249   8.531  11.832  1.00  0.00     0.205 HD
BRANCH  12  14
HETATM   14  N3  UNL     1      -1.564   8.993  12.794  1.00  0.00    -0.262 N 
HETATM   15  C1  UNL     1      -1.297   8.298  13.824  1.00  0.00     0.216 C 
HETATM   16  N1  UNL     1      -0.105   7.570  13.927  1.00  0.00    -0.065 NA
HETATM   17  N2  UNL     1      -2.226   8.266  14.886  1.00  0.00    -0.065 NA
ATOM     18  H3  UNL     1      -2.436   9.520  12.732  1.00  0.00     0.190 HD
ENDBRANCH  12  14
ENDBRANCH   1  12
TORSDOF 2
ENDMDL
MODEL 3
REMARK VINA RESULT: -7.092093306      0.035      2.206
REMARK  2 active torsions:
REMARK  status: ('A' for Active; 'I' for Inactive)
REMARK    1  A    between atoms: N3_4  and  N4_6 
REMARK    2  A    between atoms: N4_6  and  C2_8 
ROOT
HETATM    1  C2  UNL     1      -1.391  10.054  10.817  1.00  0.00     0.705 A 
HETATM    2  N5  UNL     1      -2.459   9.900  10.034  1.00  0.00    -0.139 N 
ATOM      3  H5  UNL     1      -3.307   9.471  10.404  1.00  0.00     0.189 HD
HETATM    4  C3  UNL     1      -2.415  10.309   8.758  1.00  0.00     0.342 A 
HETATM    5  O1  UNL     1      -3.424  10.158   8.036  1.00  0.00    -0.246 OA
HETATM    6  N6  UNL     1      -1.297  10.872   8.278  1.00  0.00    -0.260 N 
ATOM      7  H6  UNL     1      -1.264  11.183   7.307  1.00  0.00     0.175 HD
HETATM    8  C4  UNL     1      -0.202  11.031   9.078  1.00  0.00     0.342 A 
HETATM    9  O2  UNL     1       0.855  11.556   8.647  1.00  0.00    -0.246 OA
HETATM   10  N7  UNL     1      -0.253  10.617  10.360  1.00  0.00    -0.139 N 
ATOM     11  H7  UNL     1       0.555  10.728  10.973  1.00  0.00     0.189 HD
ENDROOT
BRANCH   1  12
HETATM   12  N4  UNL     1      -1.405   9.671  12.043  1.00  0.00    -0.130 N 
ATOM     13  H4  UNL     1      -2.007  10.131  12.725  1.00  0.00     0.205 HD
BRANCH  12  14
HETATM   14  N3  UNL     1      -0.581   8.614  12.421  1.00  0.00    -0.262 N 
HETATM   15  C1  UNL     1      -0.804   8.038  13.532  1.00  0.00     0.216 C 
HETATM   16  N1  UNL     1      -1.849   8.442  14.371  1.00  0.00    -0.065 NA
HETATM   17  N2  UNL     1       0.026   6.964  13.924  1.00  0.00    -0.065 NA
ATOM     18  H3  UNL     1       0.184   8.308  11.819  1.00  0.00     0.190 HD
ENDBRANCH  12  14
ENDBRANCH   1  12
TORSDOF 2
ENDMDL
MODEL 4
REMARK VINA RESULT: -7.088132597      0.565      1.105
REMARK  2 active torsions:
REMARK  status: ('A' for Active; 'I' for Inactive)
REMARK    1  A    between atoms: N3_4  and  N4_6 
REMARK    2  A    between atoms: N4_6  and  C2_8 
ROOT
HETATM    1  C2  UNL     1      -0.810   9.711  10.624  1.00  0.00     0.705 A 
HETATM    2  N5  UNL     1       0.133  10.428  10.015  1.00  0.00    -0.139 N 
ATOM      3  H5  UNL     1       1.085  10.438  10.382  1.00  0.00     0.189 HD
HETATM    4  C3  UNL     1      -0.171  11.138   8.919  1.00  0.00     0.342 A 
HETATM    5  O1  UNL     1       0.725  11.806   8.359  1.00  0.00    -0.246 OA
HETATM    6  N6  UNL     1      -1.424  11.122   8.442  1.00  0.00    -0.260 N 
ATOM      7  H6  UNL     1      -1.654  11.662   7.608  1.00  0.00     0.175 HD
HETATM    8  C4  UNL     1      -2.392  10.388   9.064  1.00  0.00     0.342 A 
HETATM    9  O2  UNL     1      -3.572  10.359   8.632  1.00  0.00    -0.246 OA
HETATM   10  N7  UNL     1      -2.080   9.676  10.165  1.00  0.00    -0.139 N 
ATOM     11  H7  UNL     1      -2.790   9.121  10.644  1.00  0.00     0.189 HD
ENDROOT
BRANCH   1  12
HETATM   12  N4  UNL     1      -0.547   9.022  11.675  1.00  0.00    -0.130 N 
ATOM     13  H4  UNL     1       0.303   8.461  11.730  1.00  0.00     0.205 HD
BRANCH  12  14
HETATM   14  N3  UNL     1      -1.446   9.055  12.738  1.00  0.00    -0.262 N 
HETATM   15  C1  UNL     1      -1.223   8.315  13.747  1.00  0.00     0.216 C 
HETATM   16  N1  UNL     1      -0.102   7.477  13.807  1.00  0.00    -0.065 NA
HETATM   17  N2  UNL     1      -2.129   8.343  14.829  1.00  0.00    -0.065 NA
ATOM     18  H3  UNL     1      -2.267   9.662  12.708  1.00  0.00     0.190 HD
ENDBRANCH  12  14
ENDBRANCH   1  12
TORSDOF 2
ENDMDL
MODEL 5
REMARK VINA RESULT: -6.938396464      1.334      2.421
REMARK  2 active torsions:
REMARK  status: ('A' for Active; 'I' for Inactive)
REMARK    1  A    between atoms: N3_4  and  N4_6 
REMARK    2  A    between atoms: N4_6  and  C2_8 
ROOT
HETATM    1  C2  UNL     1      -1.401  10.037  10.203  1.00  0.00     0.705 A 
HETATM    2  N5  UNL     1      -1.723   9.934   8.913  1.00  0.00    -0.139 N 
ATOM      3  H5  UNL     1      -2.421   9.255   8.613  1.00  0.00     0.189 HD
HETATM    4  C3  UNL     1      -1.125  10.726   8.012  1.00  0.00     0.342 A 
HETATM    5  O1  UNL     1      -1.437  10.618   6.806  1.00  0.00    -0.246 OA
HETATM    6  N6  UNL     1      -0.206  11.617   8.413  1.00  0.00    -0.260 N 
ATOM      7  H6  UNL     1       0.248  12.219   7.726  1.00  0.00     0.175 HD
HETATM    8  C4  UNL     1       0.124  11.724   9.733  1.00  0.00     0.342 A 
HETATM    9  O2  UNL     1       0.982  12.552  10.130  1.00  0.00    -0.246 OA
HETATM   10  N7  UNL     1      -0.480  10.925  10.635  1.00  0.00    -0.139 N 
ATOM     11  H7  UNL     1      -0.247  10.990  11.626  1.00  0.00     0.189 HD
ENDROOT
BRANCH   1  12
HETATM   12  N4  UNL     1      -1.958   9.291  11.088  1.00  0.00    -0.130 N 
ATOM     13  H4  UNL     1      -2.859   8.851  10.905  1.00  0.00     0.205 HD
BRANCH  12  14
HETATM   14  N3  UNL     1      -1.305   9.095  12.302  1.00  0.00    -0.262 N 
HETATM   15  C1  UNL     1      -0.915   7.923  12.601  1.00  0.00     0.216 C 
HETATM   16  N1  UNL     1      -1.127   6.839  11.741  1.00  0.00    -0.065 NA
HETATM   17  N2  UNL     1      -0.252   7.716  13.830  1.00  0.00    -0.065 NA
ATOM     18  H3  UNL     1      -1.143   9.877  12.939  1.00  0.00     0.190 HD
ENDBRANCH  12  14
ENDBRANCH   1  12
TORSDOF 2
ENDMDL
