MODEL 1
REMARK VINA RESULT: -6.897959393      0.000      0.000
REMARK  1 active torsions:
REMARK  status: ('A' for Active; 'I' for Inactive)
REMARK       I    between atoms: C1_4  and  N3_6 
REMARK    1  A    between atoms: N3_6  and  N4_8 
ROOT
HETATM    1  N4  UNL     1      -1.843   9.154  11.411  1.00  0.00    -0.268 N 
ATOM      2  H4  UNL     1      -2.719   8.669  11.218  1.00  0.00     0.190 HD
HETATM    3  C2  UNL     1      -1.269   9.769  10.439  1.00  0.00     0.204 A 
HETATM    4  N5  UNL     1      -0.055  10.517  10.417  1.00  0.00    -0.289 N 
ATOM      5  H5  UNL     1       0.553  10.671  11.220  1.00  0.00     0.172 HD
HETATM    6  C3  UNL     1       0.180  11.016   9.102  1.00  0.00     0.316 A 
HETATM    7  O1  UNL     1       1.160  11.723   8.708  1.00  0.00    -0.262 OA
HETATM    8  C4  UNL     1      -0.931  10.557   8.284  1.00  0.00     0.316 A 
HETATM    9  O2  UNL     1      -1.092  10.793   7.049  1.00  0.00    -0.262 OA
HETATM   10  N6  UNL     1      -1.794   9.805   9.117  1.00  0.00    -0.289 N 
ATOM     11  H6  UNL     1      -2.659   9.356   8.817  1.00  0.00     0.172 HD
ENDROOT
BRANCH   1  12
HETATM   12  N3  UNL     1      -1.348   9.108  12.705  1.00  0.00    -0.271 N 
HETATM   13  C1  UNL     1      -0.986   7.891  13.367  1.00  0.00     0.200 C 
HETATM   14  N1  UNL     1       0.178   7.834  13.917  1.00  0.00    -0.372 N 
HETATM   15  N2  UNL     1      -1.891   6.795  13.405  1.00  0.00    -0.062 NA
ATOM     16  H12 UNL     1       0.437   6.967  14.388  1.00  0.00     0.158 HD
ATOM     17  H11 UNL     1       0.827   8.620  13.890  1.00  0.00     0.158 HD
ATOM     18  H3  UNL     1      -1.236   9.987  13.212  1.00  0.00     0.189 HD
ENDBRANCH   1  12
TORSDOF 1
ENDMDL
MODEL 2
REMARK VINA RESULT: -6.696185268      3.029      5.229
REMARK  1 active torsions:
REMARK  status: ('A' for Active; 'I' for Inactive)
REMARK       I    between atoms: C1_4  and  N3_6 
REMARK    1  A    between atoms: N3_6  and  N4_8 
ROOT
HETATM    1  N4  UNL     1      -1.800  10.683  10.840  1.00  0.00    -0.268 N 
ATOM      2  H4  UNL     1      -1.772  11.433  11.530  1.00  0.00     0.190 HD
HETATM    3  C2  UNL     1      -1.506   9.493  11.233  1.00  0.00     0.204 A 
HETATM    4  N5  UNL     1      -1.460   8.272  10.499  1.00  0.00    -0.289 N 
ATOM      5  H5  UNL     1      -1.668   8.177   9.506  1.00  0.00     0.172 HD
HETATM    6  C3  UNL     1      -1.079   7.205  11.364  1.00  0.00     0.316 A 
HETATM    7  O1  UNL     1      -0.936   5.979  11.061  1.00  0.00    -0.262 OA
HETATM    8  C4  UNL     1      -0.883   7.792  12.679  1.00  0.00     0.316 A 
HETATM    9  O2  UNL     1      -0.537   7.169  13.728  1.00  0.00    -0.262 OA
HETATM   10  N6  UNL     1      -1.148   9.179  12.573  1.00  0.00    -0.289 N 
ATOM     11  H6  UNL     1      -1.090   9.850  13.339  1.00  0.00     0.172 HD
ENDROOT
BRANCH   1  12
HETATM   12  N3  UNL     1      -2.152  11.010   9.540  1.00  0.00    -0.271 N 
HETATM   13  C1  UNL     1      -1.195  11.241   8.500  1.00  0.00     0.200 C 
HETATM   14  N1  UNL     1      -1.354  10.604   7.390  1.00  0.00    -0.372 N 
HETATM   15  N2  UNL     1      -0.115  12.142   8.702  1.00  0.00    -0.062 NA
ATOM     16  H12 UNL     1      -0.672  10.768   6.649  1.00  0.00     0.158 HD
ATOM     17  H11 UNL     1      -2.128   9.957   7.245  1.00  0.00     0.158 HD
ATOM     18  H3  UNL     1      -3.143  11.089   9.313  1.00  0.00     0.189 HD
ENDBRANCH   1  12
TORSDOF 1
ENDMDL
MODEL 3
REMARK VINA RESULT: -6.694661947      0.848      1.968
REMARK  1 active torsions:
REMARK  status: ('A' for Active; 'I' for Inactive)
REMARK       I    between atoms: C1_4  and  N3_6 
REMARK    1  A    between atoms: N3_6  and  N4_8 
ROOT
HETATM    1  N4  UNL     1      -1.194   9.512  11.746  1.00  0.00    -0.268 N 
ATOM      2  H4  UNL     1      -0.862  10.012  12.572  1.00  0.00     0.190 HD
HETATM    3  C2  UNL     1      -1.028  10.070  10.599  1.00  0.00     0.204 A 
HETATM    4  N5  UNL     1      -1.389   9.612   9.298  1.00  0.00    -0.289 N 
ATOM      5  H5  UNL     1      -1.853   8.728   9.095  1.00  0.00     0.172 HD
HETATM    6  C3  UNL     1      -1.002  10.578   8.323  1.00  0.00     0.316 A 
HETATM    7  O1  UNL     1      -1.162  10.512   7.064  1.00  0.00    -0.262 OA
HETATM    8  C4  UNL     1      -0.381  11.672   9.053  1.00  0.00     0.316 A 
HETATM    9  O2  UNL     1       0.097  12.729   8.542  1.00  0.00    -0.262 OA
HETATM   10  N6  UNL     1      -0.409  11.339  10.429  1.00  0.00    -0.289 N 
ATOM     11  H6  UNL     1      -0.043  11.920  11.182  1.00  0.00     0.172 HD
ENDROOT
BRANCH   1  12
HETATM   12  N3  UNL     1      -1.793   8.277  11.933  1.00  0.00    -0.271 N 
HETATM   13  C1  UNL     1      -1.761   7.566  13.177  1.00  0.00     0.200 C 
HETATM   14  N1  UNL     1      -2.881   7.137  13.648  1.00  0.00    -0.372 N 
HETATM   15  N2  UNL     1      -0.529   7.353  13.852  1.00  0.00    -0.062 NA
ATOM     16  H12 UNL     1      -2.858   6.631  14.533  1.00  0.00     0.158 HD
ATOM     17  H11 UNL     1      -3.765   7.290  13.164  1.00  0.00     0.158 HD
ATOM     18  H3  UNL     1      -2.283   7.852  11.145  1.00  0.00     0.189 HD
ENDBRANCH   1  12
TORSDOF 1
ENDMDL
MODEL 4
REMARK VINA RESULT: -6.668436026      1.279      2.128
REMARK  1 active torsions:
REMARK  status: ('A' for Active; 'I' for Inactive)
REMARK       I    between atoms: C1_4  and  N3_6 
REMARK    1  A    between atoms: N3_6  and  N4_8 
ROOT
HETATM    1  N4  UNL     1      -1.201   9.465  11.717  1.00  0.00    -0.268 N 
ATOM      2  H4  UNL     1      -0.870   9.950  12.551  1.00  0.00     0.190 HD
HETATM    3  C2  UNL     1      -1.030  10.040  10.579  1.00  0.00     0.204 A 
HETATM    4  N5  UNL     1      -1.389   9.604   9.270  1.00  0.00    -0.289 N 
ATOM      5  H5  UNL     1      -1.856   8.725   9.052  1.00  0.00     0.172 HD
HETATM    6  C3  UNL     1      -0.994  10.584   8.312  1.00  0.00     0.316 A 
HETATM    7  O1  UNL     1      -1.150  10.538   7.051  1.00  0.00    -0.262 OA
HETATM    8  C4  UNL     1      -0.370  11.663   9.060  1.00  0.00     0.316 A 
HETATM    9  O2  UNL     1       0.115  12.725   8.567  1.00  0.00    -0.262 OA
HETATM   10  N6  UNL     1      -0.404  11.309  10.431  1.00  0.00    -0.289 N 
ATOM     11  H6  UNL     1      -0.037  11.876  11.194  1.00  0.00     0.172 HD
ENDROOT
BRANCH   1  12
HETATM   12  N3  UNL     1      -1.807   8.230  11.883  1.00  0.00    -0.271 N 
HETATM   13  C1  UNL     1      -1.121   6.985  11.702  1.00  0.00     0.200 C 
HETATM   14  N1  UNL     1      -1.210   6.112  12.646  1.00  0.00    -0.372 N 
HETATM   15  N2  UNL     1      -0.371   6.741  10.519  1.00  0.00    -0.062 NA
ATOM     16  H12 UNL     1      -0.722   5.226  12.518  1.00  0.00     0.158 HD
ATOM     17  H11 UNL     1      -1.748   6.287  13.495  1.00  0.00     0.158 HD
ATOM     18  H3  UNL     1      -2.792   8.205  12.147  1.00  0.00     0.189 HD
ENDBRANCH   1  12
TORSDOF 1
ENDMDL
MODEL 5
REMARK VINA RESULT: -6.516477686      3.285      5.114
REMARK  1 active torsions:
REMARK  status: ('A' for Active; 'I' for Inactive)
REMARK       I    between atoms: C1_4  and  N3_6 
REMARK    1  A    between atoms: N3_6  and  N4_8 
ROOT
HETATM    1  N4  UNL     1      -0.511   9.827  10.711  1.00  0.00    -0.268 N 
ATOM      2  H4  UNL     1      -0.365  10.233  11.636  1.00  0.00     0.190 HD
HETATM    3  C2  UNL     1      -0.004   8.668  10.477  1.00  0.00     0.204 A 
HETATM    4  N5  UNL     1      -0.046   7.873   9.295  1.00  0.00    -0.289 N 
ATOM      5  H5  UNL     1      -0.512   8.135   8.427  1.00  0.00     0.172 HD
HETATM    6  C3  UNL     1       0.664   6.654   9.508  1.00  0.00     0.316 A 
HETATM    7  O1  UNL     1       0.836   5.705   8.681  1.00  0.00    -0.262 OA
HETATM    8  C4  UNL     1       1.161   6.703  10.874  1.00  0.00     0.316 A 
HETATM    9  O2  UNL     1       1.845   5.803  11.448  1.00  0.00    -0.262 OA
HETATM   10  N6  UNL     1       0.743   7.933  11.438  1.00  0.00    -0.289 N 
ATOM     11  H6  UNL     1       0.946   8.243  12.388  1.00  0.00     0.172 HD
ENDROOT
BRANCH   1  12
HETATM   12  N3  UNL     1      -1.242  10.559   9.789  1.00  0.00    -0.271 N 
HETATM   13  C1  UNL     1      -0.716  10.984   8.527  1.00  0.00     0.200 C 
HETATM   14  N1  UNL     1      -1.411  10.724   7.473  1.00  0.00    -0.372 N 
HETATM   15  N2  UNL     1       0.530  11.665   8.457  1.00  0.00    -0.062 NA
ATOM     16  H12 UNL     1      -1.037  11.027   6.573  1.00  0.00     0.158 HD
ATOM     17  H11 UNL     1      -2.305  10.236   7.522  1.00  0.00     0.158 HD
ATOM     18  H3  UNL     1      -2.204  10.807  10.022  1.00  0.00     0.189 HD
ENDBRANCH   1  12
TORSDOF 1
ENDMDL
