MODEL 1
REMARK VINA RESULT: -6.110755216      0.000      0.000
REMARK  2 active torsions:
REMARK  status: ('A' for Active; 'I' for Inactive)
REMARK       I    between atoms: N1_2  and  C2_4 
REMARK       I    between atoms: C2_4  and  N2_6 
REMARK    1  A    between atoms: N2_6  and  N3_8 
REMARK       I    between atoms: N3_8  and  C3_10 
REMARK    2  A    between atoms: C3_10  and  C4_12 
ROOT
HETATM    1  C1  UNL     1      -2.278   6.561  13.846  1.00  0.00     0.151 C 
HETATM    2  N1  UNL     1      -2.219   7.947  13.455  1.00  0.00    -0.346 N 
ATOM      3  H1  UNL     1      -2.709   8.648  14.012  1.00  0.00     0.163 HD
HETATM    4  C2  UNL     1      -1.490   8.350  12.306  1.00  0.00     0.334 C 
HETATM    5  O1  UNL     1      -0.887   7.461  11.623  1.00  0.00    -0.246 OA
HETATM    6  N2  UNL     1      -1.430   9.717  11.919  1.00  0.00    -0.249 N 
ATOM      7  H2  UNL     1      -1.922  10.410  12.482  1.00  0.00     0.192 HD
ENDROOT
BRANCH   6   8
HETATM    8  N3  UNL     1      -0.720  10.142  10.795  1.00  0.00    -0.258 N 
HETATM    9  C3  UNL     1      -1.342  10.507   9.576  1.00  0.00     0.325 C 
HETATM   10  O2  UNL     1      -2.596  10.454   9.474  1.00  0.00    -0.261 OA
ATOM     11  H3  UNL     1       0.297  10.192  10.854  1.00  0.00     0.190 HD
BRANCH   9  12
HETATM   12  C4  UNL     1      -0.579  10.945   8.422  1.00  0.00     0.324 C 
HETATM   13  N4  UNL     1       0.675  11.597   8.515  1.00  0.00    -0.053 NA
HETATM   14  O3  UNL     1      -1.054  10.736   7.281  1.00  0.00    -0.266 OA
ENDBRANCH   9  12
ENDBRANCH   6   8
TORSDOF 2
ENDMDL
MODEL 2
REMARK VINA RESULT: -5.899727945      1.011      1.011
REMARK  2 active torsions:
REMARK  status: ('A' for Active; 'I' for Inactive)
REMARK       I    between atoms: N1_2  and  C2_4 
REMARK       I    between atoms: C2_4  and  N2_6 
REMARK    1  A    between atoms: N2_6  and  N3_8 
REMARK       I    between atoms: N3_8  and  C3_10 
REMARK    2  A    between atoms: C3_10  and  C4_12 
ROOT
HETATM    1  C1  UNL     1      -1.952   6.388  13.653  1.00  0.00     0.151 C 
HETATM    2  N1  UNL     1      -2.071   7.801  13.394  1.00  0.00    -0.346 N 
ATOM      3  H1  UNL     1      -2.624   8.384  14.023  1.00  0.00     0.163 HD
HETATM    4  C2  UNL     1      -1.429   8.393  12.275  1.00  0.00     0.334 C 
HETATM    5  O1  UNL     1      -0.745   7.650  11.500  1.00  0.00    -0.246 OA
HETATM    6  N2  UNL     1      -1.544   9.787  12.019  1.00  0.00    -0.249 N 
ATOM      7  H2  UNL     1      -2.098  10.361  12.653  1.00  0.00     0.192 HD
ENDROOT
BRANCH   6   8
HETATM    8  N3  UNL     1      -0.923  10.396  10.926  1.00  0.00    -0.258 N 
HETATM    9  C3  UNL     1      -1.582  10.643   9.697  1.00  0.00     0.325 C 
HETATM   10  O2  UNL     1      -2.786  10.306   9.555  1.00  0.00    -0.261 OA
ATOM     11  H3  UNL     1       0.054  10.677  11.018  1.00  0.00     0.190 HD
BRANCH   9  12
HETATM   12  C4  UNL     1      -0.911  11.278   8.577  1.00  0.00     0.324 C 
HETATM   13  N4  UNL     1      -0.969  10.787   7.250  1.00  0.00    -0.053 NA
HETATM   14  O3  UNL     1      -0.246  12.317   8.796  1.00  0.00    -0.266 OA
ENDBRANCH   9  12
ENDBRANCH   6   8
TORSDOF 2
ENDMDL
MODEL 3
REMARK VINA RESULT: -5.705312402      1.582      1.742
REMARK  2 active torsions:
REMARK  status: ('A' for Active; 'I' for Inactive)
REMARK       I    between atoms: N1_2  and  C2_4 
REMARK       I    between atoms: C2_4  and  N2_6 
REMARK    1  A    between atoms: N2_6  and  N3_8 
REMARK       I    between atoms: N3_8  and  C3_10 
REMARK    2  A    between atoms: C3_10  and  C4_12 
ROOT
HETATM    1  C1  UNL     1       0.209   6.185  13.904  1.00  0.00     0.151 C 
HETATM    2  N1  UNL     1      -0.233   7.535  13.658  1.00  0.00    -0.346 N 
ATOM      3  H1  UNL     1      -0.119   8.242  14.383  1.00  0.00     0.163 HD
HETATM    4  C2  UNL     1      -0.826   7.892  12.419  1.00  0.00     0.334 C 
HETATM    5  O1  UNL     1      -0.962   6.995  11.526  1.00  0.00    -0.246 OA
HETATM    6  N2  UNL     1      -1.262   9.223  12.173  1.00  0.00    -0.249 N 
ATOM      7  H2  UNL     1      -1.143   9.924  12.904  1.00  0.00     0.192 HD
ENDROOT
BRANCH   6   8
HETATM    8  N3  UNL     1      -1.848   9.603  10.964  1.00  0.00    -0.258 N 
HETATM    9  C3  UNL     1      -1.127  10.222   9.913  1.00  0.00     0.325 C 
HETATM   10  O2  UNL     1       0.102  10.453  10.050  1.00  0.00    -0.261 OA
ATOM     11  H3  UNL     1      -2.844   9.425  10.830  1.00  0.00     0.190 HD
BRANCH   9  12
HETATM   12  C4  UNL     1      -1.763  10.607   8.666  1.00  0.00     0.324 C 
HETATM   13  N4  UNL     1      -1.065  10.739   7.441  1.00  0.00    -0.053 NA
HETATM   14  O3  UNL     1      -2.995  10.834   8.672  1.00  0.00    -0.266 OA
ENDBRANCH   9  12
ENDBRANCH   6   8
TORSDOF 2
ENDMDL
MODEL 4
REMARK VINA RESULT: -5.643136340      1.827      1.889
REMARK  2 active torsions:
REMARK  status: ('A' for Active; 'I' for Inactive)
REMARK       I    between atoms: N1_2  and  C2_4 
REMARK       I    between atoms: C2_4  and  N2_6 
REMARK    1  A    between atoms: N2_6  and  N3_8 
REMARK       I    between atoms: N3_8  and  C3_10 
REMARK    2  A    between atoms: C3_10  and  C4_12 
ROOT
HETATM    1  C1  UNL     1      -2.379   6.505  14.403  1.00  0.00     0.151 C 
HETATM    2  N1  UNL     1      -1.909   6.818  13.077  1.00  0.00    -0.346 N 
ATOM      3  H1  UNL     1      -1.841   6.076  12.379  1.00  0.00     0.163 HD
HETATM    4  C2  UNL     1      -1.540   8.143  12.728  1.00  0.00     0.334 C 
HETATM    5  O1  UNL     1      -1.630   9.055  13.612  1.00  0.00    -0.246 OA
HETATM    6  N2  UNL     1      -1.078   8.454  11.420  1.00  0.00    -0.249 N 
ATOM      7  H2  UNL     1      -1.014   7.706  10.729  1.00  0.00     0.192 HD
ENDROOT
BRANCH   6   8
HETATM    8  N3  UNL     1      -0.709   9.749  11.049  1.00  0.00    -0.258 N 
HETATM    9  C3  UNL     1      -0.131  10.061   9.794  1.00  0.00     0.325 C 
HETATM   10  O2  UNL     1       0.070   9.147   8.954  1.00  0.00    -0.261 OA
ATOM     11  H3  UNL     1      -0.863  10.506  11.714  1.00  0.00     0.190 HD
BRANCH   9  12
HETATM   12  C4  UNL     1       0.243  11.417   9.435  1.00  0.00     0.324 C 
HETATM   13  N4  UNL     1       0.019  11.977   8.154  1.00  0.00    -0.053 NA
HETATM   14  O3  UNL     1       0.794  12.131  10.305  1.00  0.00    -0.266 OA
ENDBRANCH   9  12
ENDBRANCH   6   8
TORSDOF 2
ENDMDL
MODEL 5
REMARK VINA RESULT: -5.604869626      1.769      1.802
REMARK  2 active torsions:
REMARK  status: ('A' for Active; 'I' for Inactive)
REMARK       I    between atoms: N1_2  and  C2_4 
REMARK       I    between atoms: C2_4  and  N2_6 
REMARK    1  A    between atoms: N2_6  and  N3_8 
REMARK       I    between atoms: N3_8  and  C3_10 
REMARK    2  A    between atoms: C3_10  and  C4_12 
ROOT
HETATM    1  C1  UNL     1      -0.217   6.626  14.415  1.00  0.00     0.151 C 
HETATM    2  N1  UNL     1      -0.467   7.935  13.865  1.00  0.00    -0.346 N 
ATOM      3  H1  UNL     1      -0.236   8.764  14.412  1.00  0.00     0.163 HD
HETATM    4  C2  UNL     1      -1.030   8.086  12.571  1.00  0.00     0.334 C 
HETATM    5  O1  UNL     1      -1.313   7.039  11.902  1.00  0.00    -0.246 OA
HETATM    6  N2  UNL     1      -1.276   9.375  12.025  1.00  0.00    -0.249 N 
ATOM      7  H2  UNL     1      -1.042  10.198  12.580  1.00  0.00     0.192 HD
ENDROOT
BRANCH   6   8
HETATM    8  N3  UNL     1      -1.828   9.553  10.755  1.00  0.00    -0.258 N 
HETATM    9  C3  UNL     1      -1.151  10.212   9.699  1.00  0.00     0.325 C 
HETATM   10  O2  UNL     1       0.006  10.669   9.889  1.00  0.00    -0.261 OA
ATOM     11  H3  UNL     1      -2.765   9.190  10.578  1.00  0.00     0.190 HD
BRANCH   9  12
HETATM   12  C4  UNL     1      -1.750  10.382   8.388  1.00  0.00     0.324 C 
HETATM   13  N4  UNL     1      -3.134  10.224   8.133  1.00  0.00    -0.053 NA
HETATM   14  O3  UNL     1      -1.002  10.685   7.429  1.00  0.00    -0.266 OA
ENDBRANCH   9  12
ENDBRANCH   6   8
TORSDOF 2
ENDMDL
