MODEL 1
REMARK VINA RESULT: -6.812306969      0.000      0.000
REMARK  1 active torsions:
REMARK  status: ('A' for Active; 'I' for Inactive)
REMARK       I    between atoms: C1_4  and  N3_6 
REMARK    1  A    between atoms: N3_6  and  C2_8 
ROOT
HETATM    1  C2  UNL     1      -0.657   9.101   9.077  1.00  0.00     0.692 A 
HETATM    2  N4  UNL     1      -1.998   9.025   8.988  1.00  0.00    -0.141 N 
ATOM      3  H4  UNL     1      -2.452   8.113   9.042  1.00  0.00     0.189 HD
HETATM    4  C3  UNL     1      -2.748  10.126   8.829  1.00  0.00     0.342 A 
HETATM    5  O1  UNL     1      -3.997  10.075   8.743  1.00  0.00    -0.246 OA
HETATM    6  N5  UNL     1      -2.168  11.332   8.757  1.00  0.00    -0.260 N 
ATOM      7  H5  UNL     1      -2.725  12.178   8.637  1.00  0.00     0.175 HD
HETATM    8  C4  UNL     1      -0.835  11.388   8.848  1.00  0.00     0.342 A 
HETATM    9  O2  UNL     1      -0.238  12.509   8.784  1.00  0.00    -0.246 OA
HETATM   10  N6  UNL     1      -0.061  10.308   9.006  1.00  0.00    -0.141 N 
ATOM     11  H6  UNL     1       0.953  10.396   9.071  1.00  0.00     0.189 HD
ENDROOT
BRANCH   1  12
HETATM   12  N3  UNL     1       0.035   8.028   9.229  1.00  0.00    -0.163 N 
HETATM   13  C1  UNL     1      -0.024   7.342  10.468  1.00  0.00     0.200 C 
HETATM   14  N1  UNL     1       0.711   7.749  11.429  1.00  0.00    -0.373 N 
HETATM   15  N2  UNL     1      -0.891   6.237  10.596  1.00  0.00    -0.063 NA
ATOM     16  H12 UNL     1       0.669   7.255  12.321  1.00  0.00     0.158 HD
ATOM     17  H11 UNL     1       1.338   8.548  11.337  1.00  0.00     0.158 HD
ATOM     18  H3  UNL     1       0.618   7.676   8.468  1.00  0.00     0.187 HD
ENDBRANCH   1  12
TORSDOF 1
ENDMDL
MODEL 2
REMARK VINA RESULT: -6.784090120      0.072      2.264
REMARK  1 active torsions:
REMARK  status: ('A' for Active; 'I' for Inactive)
REMARK       I    between atoms: C1_4  and  N3_6 
REMARK    1  A    between atoms: N3_6  and  C2_8 
ROOT
HETATM    1  C2  UNL     1      -0.644   9.089   9.069  1.00  0.00     0.692 A 
HETATM    2  N4  UNL     1      -0.027  10.283   8.987  1.00  0.00    -0.141 N 
ATOM      3  H4  UNL     1       0.990  10.326   9.058  1.00  0.00     0.189 HD
HETATM    4  C3  UNL     1      -0.724  11.417   8.813  1.00  0.00     0.342 A 
HETATM    5  O1  UNL     1      -0.166  12.536   8.734  1.00  0.00    -0.246 OA
HETATM    6  N5  UNL     1      -2.060  11.378   8.716  1.00  0.00    -0.260 N 
ATOM      7  H5  UNL     1      -2.603  12.231   8.583  1.00  0.00     0.175 HD
HETATM    8  C4  UNL     1      -2.656  10.184   8.800  1.00  0.00     0.342 A 
HETATM    9  O2  UNL     1      -3.922  10.095   8.714  1.00  0.00    -0.246 OA
HETATM   10  N6  UNL     1      -1.988   9.038   8.973  1.00  0.00    -0.141 N 
ATOM     11  H6  UNL     1      -2.483   8.147   9.032  1.00  0.00     0.189 HD
ENDROOT
BRANCH   1  12
HETATM   12  N3  UNL     1       0.050   8.021   9.237  1.00  0.00    -0.163 N 
HETATM   13  C1  UNL     1      -0.022   7.343  10.480  1.00  0.00     0.200 C 
HETATM   14  N1  UNL     1       0.698   7.760  11.448  1.00  0.00    -0.373 N 
HETATM   15  N2  UNL     1      -0.886   6.235  10.604  1.00  0.00    -0.063 NA
ATOM     16  H12 UNL     1       0.647   7.272  12.343  1.00  0.00     0.158 HD
ATOM     17  H11 UNL     1       1.323   8.561  11.359  1.00  0.00     0.158 HD
ATOM     18  H3  UNL     1       0.644   7.666   8.487  1.00  0.00     0.187 HD
ENDBRANCH   1  12
TORSDOF 1
ENDMDL
MODEL 3
REMARK VINA RESULT: -6.628968815      1.935      2.303
REMARK  1 active torsions:
REMARK  status: ('A' for Active; 'I' for Inactive)
REMARK       I    between atoms: C1_4  and  N3_6 
REMARK    1  A    between atoms: N3_6  and  C2_8 
ROOT
HETATM    1  C2  UNL     1      -1.647   9.814  10.216  1.00  0.00     0.692 A 
HETATM    2  N4  UNL     1      -1.823   9.800   8.882  1.00  0.00    -0.141 N 
ATOM      3  H4  UNL     1      -2.502   9.157   8.474  1.00  0.00     0.189 HD
HETATM    4  C3  UNL     1      -1.123  10.616   8.078  1.00  0.00     0.342 A 
HETATM    5  O1  UNL     1      -1.274  10.617   6.835  1.00  0.00    -0.246 OA
HETATM    6  N5  UNL     1      -0.229  11.468   8.598  1.00  0.00    -0.260 N 
ATOM      7  H5  UNL     1       0.311  12.095   8.001  1.00  0.00     0.175 HD
HETATM    8  C4  UNL     1      -0.067  11.468   9.926  1.00  0.00     0.342 A 
HETATM    9  O2  UNL     1       0.771  12.257  10.466  1.00  0.00    -0.246 OA
HETATM   10  N6  UNL     1      -0.749  10.666  10.751  1.00  0.00    -0.141 N 
ATOM     11  H6  UNL     1      -0.595  10.699  11.759  1.00  0.00     0.189 HD
ENDROOT
BRANCH   1  12
HETATM   12  N3  UNL     1      -2.332   9.019  10.960  1.00  0.00    -0.163 N 
HETATM   13  C1  UNL     1      -1.655   8.218  11.914  1.00  0.00     0.200 C 
HETATM   14  N1  UNL     1      -1.123   7.124  11.529  1.00  0.00    -0.373 N 
HETATM   15  N2  UNL     1      -1.594   8.657  13.253  1.00  0.00    -0.063 NA
ATOM     16  H12 UNL     1      -0.636   6.547  12.215  1.00  0.00     0.158 HD
ATOM     17  H11 UNL     1      -1.167   6.806  10.560  1.00  0.00     0.158 HD
ATOM     18  H3  UNL     1      -3.346   8.967  10.864  1.00  0.00     0.187 HD
ENDBRANCH   1  12
TORSDOF 1
ENDMDL
MODEL 4
REMARK VINA RESULT: -6.599094378      1.916      2.883
REMARK  1 active torsions:
REMARK  status: ('A' for Active; 'I' for Inactive)
REMARK       I    between atoms: C1_4  and  N3_6 
REMARK    1  A    between atoms: N3_6  and  C2_8 
ROOT
HETATM    1  C2  UNL     1      -1.661   9.780  10.218  1.00  0.00     0.692 A 
HETATM    2  N4  UNL     1      -0.760  10.629  10.748  1.00  0.00    -0.141 N 
ATOM      3  H4  UNL     1      -0.618  10.640  11.758  1.00  0.00     0.189 HD
HETATM    4  C3  UNL     1      -0.047  11.460   9.973  1.00  0.00     0.342 A 
HETATM    5  O1  UNL     1       0.796  12.256  10.449  1.00  0.00    -0.246 OA
HETATM    6  N5  UNL     1      -0.220  11.458   8.645  1.00  0.00    -0.260 N 
ATOM      7  H5  UNL     1       0.315  12.083   8.042  1.00  0.00     0.175 HD
HETATM    8  C4  UNL     1      -1.120  10.608   8.135  1.00  0.00     0.342 A 
HETATM    9  O2  UNL     1      -1.321  10.569   6.880  1.00  0.00    -0.246 OA
HETATM   10  N6  UNL     1      -1.845   9.769   8.882  1.00  0.00    -0.141 N 
ATOM     11  H6  UNL     1      -2.521   9.137   8.453  1.00  0.00     0.189 HD
ENDROOT
BRANCH   1  12
HETATM   12  N3  UNL     1      -2.330   8.997  10.987  1.00  0.00    -0.163 N 
HETATM   13  C1  UNL     1      -1.629   8.164  11.895  1.00  0.00     0.200 C 
HETATM   14  N1  UNL     1      -1.150   7.060  11.470  1.00  0.00    -0.373 N 
HETATM   15  N2  UNL     1      -1.487   8.583  13.234  1.00  0.00    -0.063 NA
ATOM     16  H12 UNL     1      -0.646   6.460  12.124  1.00  0.00     0.158 HD
ATOM     17  H11 UNL     1      -1.253   6.756  10.502  1.00  0.00     0.158 HD
ATOM     18  H3  UNL     1      -3.349   8.975  10.943  1.00  0.00     0.187 HD
ENDBRANCH   1  12
TORSDOF 1
ENDMDL
MODEL 5
REMARK VINA RESULT: -6.542416435      1.226      2.609
REMARK  1 active torsions:
REMARK  status: ('A' for Active; 'I' for Inactive)
REMARK       I    between atoms: C1_4  and  N3_6 
REMARK    1  A    between atoms: N3_6  and  C2_8 
ROOT
HETATM    1  C2  UNL     1      -0.712   9.507  10.330  1.00  0.00     0.692 A 
HETATM    2  N4  UNL     1      -0.088  10.601   9.852  1.00  0.00    -0.141 N 
ATOM      3  H4  UNL     1       0.881  10.778  10.116  1.00  0.00     0.189 HD
HETATM    4  C3  UNL     1      -0.716  11.461   9.036  1.00  0.00     0.342 A 
HETATM    5  O1  UNL     1      -0.152  12.483   8.582  1.00  0.00    -0.246 OA
HETATM    6  N5  UNL     1      -1.989  11.242   8.679  1.00  0.00    -0.260 N 
ATOM      7  H5  UNL     1      -2.481  11.886   8.059  1.00  0.00     0.175 HD
HETATM    8  C4  UNL     1      -2.594  10.151   9.163  1.00  0.00     0.342 A 
HETATM    9  O2  UNL     1      -3.802   9.901   8.853  1.00  0.00    -0.246 OA
HETATM   10  N6  UNL     1      -1.993   9.277   9.978  1.00  0.00    -0.141 N 
ATOM     11  H6  UNL     1      -2.491   8.457  10.324  1.00  0.00     0.189 HD
ENDROOT
BRANCH   1  12
HETATM   12  N3  UNL     1      -0.083   8.702  11.110  1.00  0.00    -0.163 N 
HETATM   13  C1  UNL     1      -0.815   7.983  12.089  1.00  0.00     0.200 C 
HETATM   14  N1  UNL     1      -1.097   8.562  13.191  1.00  0.00    -0.373 N 
HETATM   15  N2  UNL     1      -1.206   6.657  11.810  1.00  0.00    -0.063 NA
ATOM     16  H12 UNL     1      -1.624   8.044  13.895  1.00  0.00     0.158 HD
ATOM     17  H11 UNL     1      -0.815   9.521  13.393  1.00  0.00     0.158 HD
ATOM     18  H3  UNL     1       0.927   8.583  11.027  1.00  0.00     0.187 HD
ENDBRANCH   1  12
TORSDOF 1
ENDMDL
