MODEL 1
REMARK VINA RESULT: -6.409417003      0.000      0.000
REMARK  3 active torsions:
REMARK  status: ('A' for Active; 'I' for Inactive)
REMARK    1  A    between atoms: C3_5  and  C4_6 
REMARK    2  A    between atoms: C4_6  and  N2_7 
REMARK    3  A    between atoms: N2_7  and  N3_9 
ROOT
HETATM    1  C1  UNL     1      -3.668   9.716   8.538  1.00  0.00     0.047 C 
HETATM    2  C2  UNL     1      -2.656   9.729   9.418  1.00  0.00     0.080 A 
HETATM    3  N1  UNL     1      -2.708   9.008  10.551  1.00  0.00    -0.339 N 
ATOM      4  H1  UNL     1      -3.542   8.447  10.726  1.00  0.00     0.167 HD
HETATM    5  C3  UNL     1      -1.735   8.984  11.456  1.00  0.00     0.125 A 
HETATM    6  N4  UNL     1      -0.640   9.721  11.228  1.00  0.00    -0.305 N 
ATOM      7  H4  UNL     1       0.119   9.718  11.910  1.00  0.00     0.170 HD
HETATM    8  C5  UNL     1      -0.525  10.468  10.108  1.00  0.00     0.299 A 
HETATM    9  O1  UNL     1       0.478  11.158   9.874  1.00  0.00    -0.264 OA
HETATM   10  C6  UNL     1      -1.550  10.490   9.158  1.00  0.00     0.265 A 
HETATM   11  O2  UNL     1      -1.418  11.196   8.121  1.00  0.00    -0.280 OA
ENDROOT
BRANCH   5  12
HETATM   12  C4  UNL     1      -1.825   8.259  12.563  1.00  0.00     0.155 C 
BRANCH  12  13
HETATM   13  N2  UNL     1      -1.006   8.485  13.678  1.00  0.00    -0.315 N 
ATOM     14  H2  UNL     1      -1.169   9.296  14.274  1.00  0.00     0.185 HD
BRANCH  13  15
HETATM   15  N3  UNL     1       0.027   7.608  13.971  1.00  0.00    -0.345 N 
ATOM     16  H32 UNL     1      -0.032   7.042  14.817  1.00  0.00     0.176 HD
ATOM     17  H31 UNL     1       0.829   7.535  13.346  1.00  0.00     0.176 HD
ENDBRANCH  13  15
ENDBRANCH  12  13
ENDBRANCH   5  12
TORSDOF 3
ENDMDL
MODEL 2
REMARK VINA RESULT: -6.324067451      0.915      2.317
REMARK  3 active torsions:
REMARK  status: ('A' for Active; 'I' for Inactive)
REMARK    1  A    between atoms: C3_5  and  C4_6 
REMARK    2  A    between atoms: C4_6  and  N2_7 
REMARK    3  A    between atoms: N2_7  and  N3_9 
ROOT
HETATM    1  C1  UNL     1       0.447  11.403   9.746  1.00  0.00     0.047 C 
HETATM    2  C2  UNL     1      -0.636  10.635   9.928  1.00  0.00     0.080 A 
HETATM    3  N1  UNL     1      -0.763   9.854  11.015  1.00  0.00    -0.339 N 
ATOM      4  H1  UNL     1      -0.008   9.861  11.702  1.00  0.00     0.167 HD
HETATM    5  C3  UNL     1      -1.814   9.074  11.247  1.00  0.00     0.125 A 
HETATM    6  N4  UNL     1      -2.805   9.064  10.345  1.00  0.00    -0.305 N 
ATOM      7  H4  UNL     1      -3.621   8.472  10.503  1.00  0.00     0.170 HD
HETATM    8  C5  UNL     1      -2.739   9.826   9.231  1.00  0.00     0.299 A 
HETATM    9  O1  UNL     1      -3.644   9.833   8.383  1.00  0.00    -0.264 OA
HETATM   10  C6  UNL     1      -1.633  10.645   8.992  1.00  0.00     0.265 A 
HETATM   11  O2  UNL     1      -1.597  11.346   7.944  1.00  0.00    -0.280 OA
ENDROOT
BRANCH   5  12
HETATM   12  C4  UNL     1      -1.900   8.318  12.333  1.00  0.00     0.155 C 
BRANCH  12  13
HETATM   13  N2  UNL     1      -1.128   8.557  13.478  1.00  0.00    -0.315 N 
ATOM     14  H2  UNL     1      -1.342   9.353  14.079  1.00  0.00     0.185 HD
BRANCH  13  15
HETATM   15  N3  UNL     1      -0.074   7.716  13.795  1.00  0.00    -0.345 N 
ATOM     16  H32 UNL     1      -0.110   6.743  13.491  1.00  0.00     0.176 HD
ATOM     17  H31 UNL     1       0.723   8.070  14.325  1.00  0.00     0.176 HD
ENDBRANCH  13  15
ENDBRANCH  12  13
ENDBRANCH   5  12
TORSDOF 3
ENDMDL
MODEL 3
REMARK VINA RESULT: -5.811832352      2.704      4.344
REMARK  3 active torsions:
REMARK  status: ('A' for Active; 'I' for Inactive)
REMARK    1  A    between atoms: C3_5  and  C4_6 
REMARK    2  A    between atoms: C4_6  and  N2_7 
REMARK    3  A    between atoms: N2_7  and  N3_9 
ROOT
HETATM    1  C1  UNL     1      -1.606   8.337  12.946  1.00  0.00     0.047 C 
HETATM    2  C2  UNL     1      -1.273   8.376  11.648  1.00  0.00     0.080 A 
HETATM    3  N1  UNL     1      -1.841   9.258  10.808  1.00  0.00    -0.339 N 
ATOM      4  H1  UNL     1      -2.537   9.901  11.186  1.00  0.00     0.167 HD
HETATM    5  C3  UNL     1      -1.549   9.340   9.514  1.00  0.00     0.125 A 
HETATM    6  N4  UNL     1      -0.635   8.496   9.017  1.00  0.00    -0.305 N 
ATOM      7  H4  UNL     1      -0.395   8.542   8.026  1.00  0.00     0.170 HD
HETATM    8  C5  UNL     1      -0.026   7.585   9.808  1.00  0.00     0.299 A 
HETATM    9  O1  UNL     1       0.823   6.794   9.371  1.00  0.00    -0.264 OA
HETATM   10  C6  UNL     1      -0.336   7.503  11.168  1.00  0.00     0.265 A 
HETATM   11  O2  UNL     1       0.247   6.644  11.884  1.00  0.00    -0.280 OA
ENDROOT
BRANCH   5  12
HETATM   12  C4  UNL     1      -2.134  10.225   8.718  1.00  0.00     0.155 C 
BRANCH  12  13
HETATM   13  N2  UNL     1      -2.074  11.605   8.957  1.00  0.00    -0.315 N 
ATOM     14  H2  UNL     1      -2.920  12.116   9.210  1.00  0.00     0.185 HD
BRANCH  13  15
HETATM   15  N3  UNL     1      -0.867  12.278   8.849  1.00  0.00    -0.345 N 
ATOM     16  H32 UNL     1      -0.252  12.066   8.063  1.00  0.00     0.176 HD
ATOM     17  H31 UNL     1      -0.605  12.974   9.547  1.00  0.00     0.176 HD
ENDBRANCH  13  15
ENDBRANCH  12  13
ENDBRANCH   5  12
TORSDOF 3
ENDMDL
MODEL 4
REMARK VINA RESULT: -5.788339967      2.014      2.833
REMARK  3 active torsions:
REMARK  status: ('A' for Active; 'I' for Inactive)
REMARK    1  A    between atoms: C3_5  and  C4_6 
REMARK    2  A    between atoms: C4_6  and  N2_7 
REMARK    3  A    between atoms: N2_7  and  N3_9 
ROOT
HETATM    1  C1  UNL     1      -0.213  11.666   8.753  1.00  0.00     0.047 C 
HETATM    2  C2  UNL     1      -0.731  10.483   9.112  1.00  0.00     0.080 A 
HETATM    3  N1  UNL     1       0.057   9.469   9.509  1.00  0.00    -0.339 N 
ATOM      4  H1  UNL     1       1.066   9.624   9.529  1.00  0.00     0.167 HD
HETATM    5  C3  UNL     1      -0.401   8.277   9.876  1.00  0.00     0.125 A 
HETATM    6  N4  UNL     1      -1.725   8.072   9.849  1.00  0.00    -0.305 N 
ATOM      7  H4  UNL     1      -2.099   7.165  10.126  1.00  0.00     0.170 HD
HETATM    8  C5  UNL     1      -2.572   9.051   9.460  1.00  0.00     0.299 A 
HETATM    9  O1  UNL     1      -3.801   8.886   9.428  1.00  0.00    -0.264 OA
HETATM   10  C6  UNL     1      -2.086  10.303   9.076  1.00  0.00     0.265 A 
HETATM   11  O2  UNL     1      -2.898  11.199   8.718  1.00  0.00    -0.280 OA
ENDROOT
BRANCH   5  12
HETATM   12  C4  UNL     1       0.411   7.301  10.260  1.00  0.00     0.155 C 
BRANCH  12  13
HETATM   13  N2  UNL     1       1.073   7.318  11.496  1.00  0.00    -0.315 N 
ATOM     14  H2  UNL     1       2.091   7.263  11.528  1.00  0.00     0.185 HD
BRANCH  13  15
HETATM   15  N3  UNL     1       0.348   7.411  12.673  1.00  0.00    -0.345 N 
ATOM     16  H32 UNL     1      -0.194   6.605  12.983  1.00  0.00     0.176 HD
ATOM     17  H31 UNL     1       0.362   8.274  13.216  1.00  0.00     0.176 HD
ENDBRANCH  13  15
ENDBRANCH  12  13
ENDBRANCH   5  12
TORSDOF 3
ENDMDL
MODEL 5
REMARK VINA RESULT: -5.749954293      3.371      4.714
REMARK  3 active torsions:
REMARK  status: ('A' for Active; 'I' for Inactive)
REMARK    1  A    between atoms: C3_5  and  C4_6 
REMARK    2  A    between atoms: C4_6  and  N2_7 
REMARK    3  A    between atoms: N2_7  and  N3_9 
ROOT
HETATM    1  C1  UNL     1       0.550   6.612  12.890  1.00  0.00     0.047 C 
HETATM    2  C2  UNL     1       0.364   7.016  11.626  1.00  0.00     0.080 A 
HETATM    3  N1  UNL     1      -0.151   8.225  11.349  1.00  0.00    -0.339 N 
ATOM      4  H1  UNL     1      -0.399   8.832  12.131  1.00  0.00     0.167 HD
HETATM    5  C3  UNL     1      -0.356   8.677  10.116  1.00  0.00     0.125 A 
HETATM    6  N4  UNL     1      -0.032   7.880   9.088  1.00  0.00    -0.305 N 
ATOM      7  H4  UNL     1      -0.181   8.206   8.133  1.00  0.00     0.170 HD
HETATM    8  C5  UNL     1       0.491   6.652   9.299  1.00  0.00     0.299 A 
HETATM    9  O1  UNL     1       0.800   5.897   8.364  1.00  0.00    -0.264 OA
HETATM   10  C6  UNL     1       0.706   6.182  10.597  1.00  0.00     0.265 A 
HETATM   11  O2  UNL     1       1.195   5.032  10.765  1.00  0.00    -0.280 OA
ENDROOT
BRANCH   5  12
HETATM   12  C4  UNL     1      -0.869   9.879   9.885  1.00  0.00     0.155 C 
BRANCH  12  13
HETATM   13  N2  UNL     1      -0.767  10.928  10.808  1.00  0.00    -0.315 N 
ATOM     14  H2  UNL     1      -1.367  10.940  11.633  1.00  0.00     0.185 HD
BRANCH  13  15
HETATM   15  N3  UNL     1       0.145  11.950  10.602  1.00  0.00    -0.345 N 
ATOM     16  H32 UNL     1       1.133  11.717  10.499  1.00  0.00     0.176 HD
ATOM     17  H31 UNL     1      -0.172  12.919  10.556  1.00  0.00     0.176 HD
ENDBRANCH  13  15
ENDBRANCH  12  13
ENDBRANCH   5  12
TORSDOF 3
ENDMDL
