MODEL 1
REMARK VINA RESULT: -6.286908314      0.000      0.000
REMARK  3 active torsions:
REMARK  status: ('A' for Active; 'I' for Inactive)
REMARK    1  A    between atoms: C2_3  and  O1_4 
REMARK    2  A    between atoms: C4_10  and  C6_13 
REMARK       I    between atoms: C6_13  and  N4_15 
REMARK    3  A    between atoms: N4_15  and  N5_17 
ROOT
HETATM    1  N1  UNL     1      -4.091   7.387  16.439  1.00  0.00    -0.192 NA
HETATM    2  C1  UNL     1      -2.966   7.604  16.256  1.00  0.00     0.131 C 
HETATM    3  C2  UNL     1      -1.535   7.859  16.038  1.00  0.00     0.342 C 
HETATM    4  C3  UNL     1      -1.182   7.453  14.618  1.00  0.00     0.322 C 
HETATM    5  N2  UNL     1      -0.952   6.015  14.801  1.00  0.00    -0.013 N 
ATOM      6  H21 UNL     1      -0.558   5.533  13.993  1.00  0.00     0.282 HD
ATOM      7  H22 UNL     1      -1.795   5.444  14.850  1.00  0.00     0.282 HD
HETATM    8  C4  UNL     1      -0.138   5.999  15.975  1.00  0.00     0.458 C 
HETATM    9  C5  UNL     1       1.192   6.488  15.635  1.00  0.00     0.140 C 
HETATM   10  N3  UNL     1       2.236   6.866  15.380  1.00  0.00    -0.192 NA
HETATM   11  N6  UNL     1      -0.801   6.938  16.871  1.00  0.00     0.029 N 
ATOM     12  H61 UNL     1      -1.382   6.481  17.575  1.00  0.00     0.287 HD
ATOM     13  H62 UNL     1      -0.159   7.401  17.516  1.00  0.00     0.287 HD
ENDROOT
BRANCH   3  14
HETATM   14  O1  UNL     1      -1.185   9.168  16.318  1.00  0.00    -0.352 OA
ATOM     15  H1  UNL     1      -1.929   9.690  16.597  1.00  0.00     0.213 HD
ENDBRANCH   3  14
BRANCH   8  16
HETATM   16  C6  UNL     1      -0.011   4.701  16.620  1.00  0.00     0.316 C 
HETATM   17  O2  UNL     1      -1.021   4.056  16.958  1.00  0.00    -0.266 OA
HETATM   18  N4  UNL     1       1.266   4.159  16.870  1.00  0.00    -0.272 N 
ATOM     19  H4  UNL     1       2.080   4.705  16.584  1.00  0.00     0.189 HD
BRANCH  18  20
HETATM   20  N5  UNL     1       1.490   2.930  17.480  1.00  0.00    -0.342 N 
ATOM     21  H52 UNL     1       0.828   2.183  17.266  1.00  0.00     0.176 HD
ATOM     22  H51 UNL     1       2.263   2.736  18.116  1.00  0.00     0.176 HD
ENDBRANCH  18  20
ENDBRANCH   8  16
TORSDOF 3
ENDMDL
MODEL 2
REMARK VINA RESULT: -6.238352805      6.665      8.082
REMARK  3 active torsions:
REMARK  status: ('A' for Active; 'I' for Inactive)
REMARK    1  A    between atoms: C2_3  and  O1_4 
REMARK    2  A    between atoms: C4_10  and  C6_13 
REMARK       I    between atoms: C6_13  and  N4_15 
REMARK    3  A    between atoms: N4_15  and  N5_17 
ROOT
HETATM    1  N1  UNL     1       1.347  12.291   7.472  1.00  0.00    -0.192 NA
HETATM    2  C1  UNL     1       0.634  11.741   8.204  1.00  0.00     0.131 C 
HETATM    3  C2  UNL     1      -0.259  11.023   9.123  1.00  0.00     0.342 C 
HETATM    4  C3  UNL     1       0.304  11.132  10.530  1.00  0.00     0.322 C 
HETATM    5  N2  UNL     1       1.268  10.025  10.517  1.00  0.00    -0.013 N 
ATOM      6  H21 UNL     1       1.685   9.803  11.421  1.00  0.00     0.282 HD
ATOM      7  H22 UNL     1       2.152  10.225  10.051  1.00  0.00     0.282 HD
HETATM    8  C4  UNL     1       0.496   8.976   9.931  1.00  0.00     0.458 C 
HETATM    9  C5  UNL     1      -0.493   8.517  10.898  1.00  0.00     0.140 C 
HETATM   10  N3  UNL     1      -1.269   8.151  11.648  1.00  0.00    -0.192 NA
HETATM   11  N6  UNL     1      -0.168   9.619   8.804  1.00  0.00     0.029 N 
ATOM     12  H61 UNL     1       0.290   9.438   7.911  1.00  0.00     0.287 HD
ATOM     13  H62 UNL     1      -1.068   9.198   8.574  1.00  0.00     0.287 HD
ENDROOT
BRANCH   3  14
HETATM   14  O1  UNL     1      -1.567  11.467   9.040  1.00  0.00    -0.352 OA
ATOM     15  H1  UNL     1      -2.136  10.837   8.612  1.00  0.00     0.213 HD
ENDBRANCH   3  14
BRANCH   8  16
HETATM   16  C6  UNL     1       1.264   7.830   9.467  1.00  0.00     0.316 C 
HETATM   17  O2  UNL     1       2.203   7.374  10.147  1.00  0.00    -0.266 OA
HETATM   18  N4  UNL     1       0.948   7.220   8.236  1.00  0.00    -0.272 N 
ATOM     19  H4  UNL     1       0.175   7.609   7.695  1.00  0.00     0.189 HD
BRANCH  18  20
HETATM   20  N5  UNL     1       1.622   6.124   7.709  1.00  0.00    -0.342 N 
ATOM     21  H52 UNL     1       2.204   5.588   8.354  1.00  0.00     0.176 HD
ATOM     22  H51 UNL     1       1.569   5.830   6.734  1.00  0.00     0.176 HD
ENDBRANCH  18  20
ENDBRANCH   8  16
TORSDOF 3
ENDMDL
MODEL 3
REMARK VINA RESULT: -6.231720569      2.608      4.609
REMARK  3 active torsions:
REMARK  status: ('A' for Active; 'I' for Inactive)
REMARK    1  A    between atoms: C2_3  and  O1_4 
REMARK    2  A    between atoms: C4_10  and  C6_13 
REMARK       I    between atoms: C6_13  and  N4_15 
REMARK    3  A    between atoms: N4_15  and  N5_17 
ROOT
HETATM    1  N1  UNL     1       0.620   4.388  16.196  1.00  0.00    -0.192 NA
HETATM    2  C1  UNL     1       0.257   5.459  16.456  1.00  0.00     0.131 C 
HETATM    3  C2  UNL     1      -0.195   6.823  16.765  1.00  0.00     0.342 C 
HETATM    4  C3  UNL     1      -1.708   6.872  16.635  1.00  0.00     0.322 C 
HETATM    5  N2  UNL     1      -1.844   7.097  15.191  1.00  0.00    -0.013 N 
ATOM      6  H21 UNL     1      -2.789   7.308  14.872  1.00  0.00     0.282 HD
ATOM      7  H22 UNL     1      -1.731   6.266  14.610  1.00  0.00     0.282 HD
HETATM    8  C4  UNL     1      -0.883   8.129  14.967  1.00  0.00     0.458 C 
HETATM    9  C5  UNL     1      -1.388   9.377  15.525  1.00  0.00     0.140 C 
HETATM   10  N3  UNL     1      -1.775  10.358  15.957  1.00  0.00    -0.192 NA
HETATM   11  N6  UNL     1       0.287   7.685  15.713  1.00  0.00     0.029 N 
ATOM     12  H61 UNL     1       0.997   7.246  15.126  1.00  0.00     0.287 HD
ATOM     13  H62 UNL     1       0.863   8.455  16.055  1.00  0.00     0.287 HD
ENDROOT
BRANCH   3  14
HETATM   14  O1  UNL     1       0.245   7.256  18.003  1.00  0.00    -0.352 OA
ATOM     15  H1  UNL     1       0.341   8.201  18.043  1.00  0.00     0.213 HD
ENDBRANCH   3  14
BRANCH   8  16
HETATM   16  C6  UNL     1      -0.528   8.350  13.572  1.00  0.00     0.316 C 
HETATM   17  O2  UNL     1      -0.632   7.433  12.735  1.00  0.00    -0.266 OA
HETATM   18  N4  UNL     1      -0.060   9.612  13.154  1.00  0.00    -0.272 N 
ATOM     19  H4  UNL     1       0.018  10.349  13.856  1.00  0.00     0.189 HD
BRANCH  18  20
HETATM   20  N5  UNL     1       0.303   9.919  11.847  1.00  0.00    -0.342 N 
ATOM     21  H52 UNL     1       1.101   9.414  11.461  1.00  0.00     0.176 HD
ATOM     22  H51 UNL     1      -0.174  10.608  11.265  1.00  0.00     0.176 HD
ENDBRANCH  18  20
ENDBRANCH   8  16
TORSDOF 3
ENDMDL
MODEL 4
REMARK VINA RESULT: -6.167387366      6.866      8.805
REMARK  3 active torsions:
REMARK  status: ('A' for Active; 'I' for Inactive)
REMARK    1  A    between atoms: C2_3  and  O1_4 
REMARK    2  A    between atoms: C4_10  and  C6_13 
REMARK       I    between atoms: C6_13  and  N4_15 
REMARK    3  A    between atoms: N4_15  and  N5_17 
ROOT
HETATM    1  N1  UNL     1       1.863   6.076   7.405  1.00  0.00    -0.192 NA
HETATM    2  C1  UNL     1       1.612   6.617   8.400  1.00  0.00     0.131 C 
HETATM    3  C2  UNL     1       1.297   7.325   9.649  1.00  0.00     0.342 C 
HETATM    4  C3  UNL     1      -0.203   7.252   9.881  1.00  0.00     0.322 C 
HETATM    5  N2  UNL     1      -0.654   8.385   9.064  1.00  0.00    -0.013 N 
ATOM      6  H21 UNL     1      -1.638   8.631   9.169  1.00  0.00     0.282 HD
ATOM      7  H22 UNL     1      -0.709   8.202   8.062  1.00  0.00     0.282 HD
HETATM    8  C4  UNL     1       0.272   9.404   9.445  1.00  0.00     0.458 C 
HETATM    9  C5  UNL     1      -0.043   9.849  10.796  1.00  0.00     0.140 C 
HETATM   10  N3  UNL     1      -0.282  10.205  11.852  1.00  0.00    -0.192 NA
HETATM   11  N6  UNL     1       1.562   8.726   9.430  1.00  0.00     0.029 N 
ATOM     12  H61 UNL     1       2.102   8.905   8.583  1.00  0.00     0.287 HD
ATOM     13  H62 UNL     1       2.231   9.118  10.094  1.00  0.00     0.287 HD
ENDROOT
BRANCH   3  14
HETATM   14  O1  UNL     1       2.023   6.844  10.724  1.00  0.00    -0.352 OA
ATOM     15  H1  UNL     1       1.473   6.643  11.472  1.00  0.00     0.213 HD
ENDBRANCH   3  14
BRANCH   8  16
HETATM   16  C6  UNL     1       0.310  10.563   8.566  1.00  0.00     0.316 C 
HETATM   17  O2  UNL     1       0.176  10.434   7.334  1.00  0.00    -0.266 OA
HETATM   18  N4  UNL     1       0.500  11.851   9.105  1.00  0.00    -0.272 N 
ATOM     19  H4  UNL     1       0.608  11.934  10.117  1.00  0.00     0.189 HD
BRANCH  18  20
HETATM   20  N5  UNL     1       0.551  13.017   8.349  1.00  0.00    -0.342 N 
ATOM     21  H52 UNL     1      -0.112  13.094   7.577  1.00  0.00     0.176 HD
ATOM     22  H51 UNL     1       1.201  13.785   8.519  1.00  0.00     0.176 HD
ENDBRANCH  18  20
ENDBRANCH   8  16
TORSDOF 3
ENDMDL
MODEL 5
REMARK VINA RESULT: -6.160247938      1.543      1.855
REMARK  3 active torsions:
REMARK  status: ('A' for Active; 'I' for Inactive)
REMARK    1  A    between atoms: C2_3  and  O1_4 
REMARK    2  A    between atoms: C4_10  and  C6_13 
REMARK       I    between atoms: C6_13  and  N4_15 
REMARK    3  A    between atoms: N4_15  and  N5_17 
ROOT
HETATM    1  N1  UNL     1      -3.513   5.928  13.901  1.00  0.00    -0.192 NA
HETATM    2  C1  UNL     1      -3.014   6.472  14.796  1.00  0.00     0.131 C 
HETATM    3  C2  UNL     1      -2.377   7.140  15.939  1.00  0.00     0.342 C 
HETATM    4  C3  UNL     1      -1.036   7.695  15.490  1.00  0.00     0.322 C 
HETATM    5  N2  UNL     1      -0.190   6.506  15.645  1.00  0.00    -0.013 N 
ATOM      6  H21 UNL     1       0.811   6.668  15.531  1.00  0.00     0.282 HD
ATOM      7  H22 UNL     1      -0.260   5.822  14.891  1.00  0.00     0.282 HD
HETATM    8  C4  UNL     1      -0.587   6.034  16.933  1.00  0.00     0.458 C 
HETATM    9  C5  UNL     1      -0.054   6.930  17.951  1.00  0.00     0.140 C 
HETATM   10  N3  UNL     1       0.359   7.624  18.755  1.00  0.00    -0.192 NA
HETATM   11  N6  UNL     1      -2.041   6.119  16.902  1.00  0.00     0.029 N 
ATOM     12  H61 UNL     1      -2.494   5.225  16.715  1.00  0.00     0.287 HD
ATOM     13  H62 UNL     1      -2.454   6.281  17.821  1.00  0.00     0.287 HD
ENDROOT
BRANCH   3  14
HETATM   14  O1  UNL     1      -3.189   8.108  16.503  1.00  0.00    -0.352 OA
ATOM     15  H1  UNL     1      -3.962   8.282  15.979  1.00  0.00     0.213 HD
ENDBRANCH   3  14
BRANCH   8  16
HETATM   16  C6  UNL     1      -0.176   4.673  17.245  1.00  0.00     0.316 C 
HETATM   17  O2  UNL     1      -0.993   3.849  17.699  1.00  0.00    -0.266 OA
HETATM   18  N4  UNL     1       1.159   4.272  17.035  1.00  0.00    -0.272 N 
ATOM     19  H4  UNL     1       1.811   4.963  16.662  1.00  0.00     0.189 HD
BRANCH  18  20
HETATM   20  N5  UNL     1       1.645   2.997  17.302  1.00  0.00    -0.342 N 
ATOM     21  H52 UNL     1       1.075   2.404  17.906  1.00  0.00     0.176 HD
ATOM     22  H51 UNL     1       2.523   2.628  16.936  1.00  0.00     0.176 HD
ENDBRANCH  18  20
ENDBRANCH   8  16
TORSDOF 3
ENDMDL
