MODEL 1
REMARK VINA RESULT: -6.321992115      0.000      0.000
REMARK  3 active torsions:
REMARK  status: ('A' for Active; 'I' for Inactive)
REMARK    1  A    between atoms: C1_4  and  O1_6 
REMARK    2  A    between atoms: O1_6  and  C2_7 
REMARK    3  A    between atoms: C2_7  and  C3_8 
ROOT
HETATM    1  C2  UNL     1      -1.286   7.050  16.439  1.00  0.00     0.335 C 
HETATM    2  C4  UNL     1      -0.500   6.314  17.529  1.00  0.00     0.311 C 
HETATM    3  N4  UNL     1       0.802   6.033  16.987  1.00  0.00    -0.069 N 
ATOM      4  H41 UNL     1       1.455   5.778  17.728  1.00  0.00     0.277 HD
ATOM      5  H42 UNL     1       1.248   6.888  16.655  1.00  0.00     0.277 HD
HETATM    6  C5  UNL     1       0.786   5.028  15.950  1.00  0.00     0.260 C 
HETATM    7  C6  UNL     1      -0.476   5.171  15.171  1.00  0.00     0.264 C 
HETATM    8  N5  UNL     1      -0.972   6.545  15.132  1.00  0.00    -0.030 N 
ATOM      9  H51 UNL     1      -0.317   7.159  14.648  1.00  0.00     0.281 HD
ATOM     10  H52 UNL     1      -1.771   6.630  14.503  1.00  0.00     0.281 HD
ENDROOT
BRANCH   1  11
HETATM   11  O1  UNL     1      -1.023   8.407  16.610  1.00  0.00    -0.275 OA
BRANCH  11  12
HETATM   12  C1  UNL     1      -1.327   9.338  15.633  1.00  0.00     0.227 C 
HETATM   13  N1  UNL     1      -2.152  10.258  15.957  1.00  0.00    -0.368 N 
ATOM     14  H12 UNL     1      -2.377  10.944  15.236  1.00  0.00     0.159 HD
ATOM     15  H11 UNL     1      -2.546  10.273  16.898  1.00  0.00     0.159 HD
HETATM   16  N2  UNL     1      -0.780   9.317  14.323  1.00  0.00    -0.057 NA
ENDBRANCH  11  12
ENDBRANCH   1  11
BRANCH   1  17
HETATM   17  C3  UNL     1      -2.727   6.775  16.721  1.00  0.00     0.297 C 
HETATM   18  N3  UNL     1      -3.778   7.565  16.186  1.00  0.00    -0.058 NA
HETATM   19  O2  UNL     1      -3.077   5.808  17.466  1.00  0.00    -0.271 OA
ENDBRANCH   1  17
TORSDOF 3
ENDMDL
MODEL 2
REMARK VINA RESULT: -6.218985438      6.562      7.736
REMARK  3 active torsions:
REMARK  status: ('A' for Active; 'I' for Inactive)
REMARK    1  A    between atoms: C1_4  and  O1_6 
REMARK    2  A    between atoms: O1_6  and  C2_7 
REMARK    3  A    between atoms: C2_7  and  C3_8 
ROOT
HETATM    1  C2  UNL     1      -0.439  10.322   9.303  1.00  0.00     0.335 C 
HETATM    2  C4  UNL     1      -0.451   9.890  10.772  1.00  0.00     0.311 C 
HETATM    3  N4  UNL     1       0.895   9.512  11.108  1.00  0.00    -0.069 N 
ATOM      4  H41 UNL     1       1.014   9.458  12.120  1.00  0.00     0.277 HD
ATOM      5  H42 UNL     1       1.546  10.269  10.901  1.00  0.00     0.277 HD
HETATM    6  C5  UNL     1       1.321   8.285  10.476  1.00  0.00     0.260 C 
HETATM    7  C6  UNL     1       0.698   8.209   9.124  1.00  0.00     0.264 C 
HETATM    8  N5  UNL     1       0.465   9.521   8.527  1.00  0.00    -0.030 N 
ATOM      9  H51 UNL     1       1.343  10.012   8.362  1.00  0.00     0.281 HD
ATOM     10  H52 UNL     1       0.143   9.434   7.562  1.00  0.00     0.281 HD
ENDROOT
BRANCH   1  11
HETATM   11  O1  UNL     1      -0.153  11.685   9.295  1.00  0.00    -0.275 OA
BRANCH  11  12
HETATM   12  C1  UNL     1       1.139  12.158   9.148  1.00  0.00     0.227 C 
HETATM   13  N1  UNL     1       1.679  12.675  10.183  1.00  0.00    -0.368 N 
ATOM     14  H12 UNL     1       2.632  13.024  10.075  1.00  0.00     0.159 HD
ATOM     15  H11 UNL     1       1.153  12.720  11.056  1.00  0.00     0.159 HD
HETATM   16  N2  UNL     1       1.871  12.096   7.933  1.00  0.00    -0.057 NA
ENDBRANCH  11  12
ENDBRANCH   1  11
BRANCH   1  17
HETATM   17  C3  UNL     1      -1.828  10.094   8.801  1.00  0.00     0.297 C 
HETATM   18  N3  UNL     1      -2.312  10.669   7.598  1.00  0.00    -0.058 NA
HETATM   19  O2  UNL     1      -2.647   9.366   9.442  1.00  0.00    -0.271 OA
ENDBRANCH   1  17
TORSDOF 3
ENDMDL
MODEL 3
REMARK VINA RESULT: -6.170313709      1.588      3.404
REMARK  3 active torsions:
REMARK  status: ('A' for Active; 'I' for Inactive)
REMARK    1  A    between atoms: C1_4  and  O1_6 
REMARK    2  A    between atoms: O1_6  and  C2_7 
REMARK    3  A    between atoms: C2_7  and  C3_8 
ROOT
HETATM    1  C2  UNL     1      -1.348   7.157  15.997  1.00  0.00     0.335 C 
HETATM    2  C4  UNL     1      -1.154   6.962  14.490  1.00  0.00     0.311 C 
HETATM    3  N4  UNL     1      -0.165   7.917  14.069  1.00  0.00    -0.069 N 
ATOM      4  H41 UNL     1       0.198   7.680  13.145  1.00  0.00     0.277 HD
ATOM      5  H42 UNL     1       0.690   7.819  14.616  1.00  0.00     0.277 HD
HETATM    6  C5  UNL     1      -0.637   9.282  14.098  1.00  0.00     0.260 C 
HETATM    7  C6  UNL     1      -1.570   9.434  15.249  1.00  0.00     0.264 C 
HETATM    8  N5  UNL     1      -1.257   8.542  16.363  1.00  0.00    -0.030 N 
ATOM      9  H51 UNL     1      -0.343   8.758  16.761  1.00  0.00     0.281 HD
ATOM     10  H52 UNL     1      -1.841   8.747  17.174  1.00  0.00     0.281 HD
ENDROOT
BRANCH   1  11
HETATM   11  O1  UNL     1      -0.417   6.333  16.625  1.00  0.00    -0.275 OA
BRANCH  11  12
HETATM   12  C1  UNL     1      -0.191   6.395  17.988  1.00  0.00     0.227 C 
HETATM   13  N1  UNL     1      -0.490   5.354  18.665  1.00  0.00    -0.368 N 
ATOM     14  H12 UNL     1      -0.323   5.400  19.671  1.00  0.00     0.159 HD
ATOM     15  H11 UNL     1      -0.874   4.538  18.190  1.00  0.00     0.159 HD
HETATM   16  N2  UNL     1       0.343   7.532  18.650  1.00  0.00    -0.057 NA
ENDBRANCH  11  12
ENDBRANCH   1  11
BRANCH   1  17
HETATM   17  C3  UNL     1      -2.731   6.676  16.294  1.00  0.00     0.297 C 
HETATM   18  N3  UNL     1      -3.845   7.550  16.379  1.00  0.00    -0.058 NA
HETATM   19  O2  UNL     1      -2.969   5.444  16.488  1.00  0.00    -0.271 OA
ENDBRANCH   1  17
TORSDOF 3
ENDMDL
MODEL 4
REMARK VINA RESULT: -6.124856189      1.670      3.534
REMARK  3 active torsions:
REMARK  status: ('A' for Active; 'I' for Inactive)
REMARK    1  A    between atoms: C1_4  and  O1_6 
REMARK    2  A    between atoms: O1_6  and  C2_7 
REMARK    3  A    between atoms: C2_7  and  C3_8 
ROOT
HETATM    1  C2  UNL     1      -1.660   7.146  15.783  1.00  0.00     0.335 C 
HETATM    2  C4  UNL     1      -1.980   7.366  14.301  1.00  0.00     0.311 C 
HETATM    3  N4  UNL     1      -0.917   8.168  13.759  1.00  0.00    -0.069 N 
ATOM      4  H41 UNL     1      -0.927   8.141  12.740  1.00  0.00     0.277 HD
ATOM      5  H42 UNL     1      -0.011   7.733  13.931  1.00  0.00     0.277 HD
HETATM    6  C5  UNL     1      -0.928   9.532  14.236  1.00  0.00     0.260 C 
HETATM    7  C6  UNL     1      -1.397   9.535  15.650  1.00  0.00     0.264 C 
HETATM    8  N5  UNL     1      -1.056   8.309  16.369  1.00  0.00    -0.030 N 
ATOM      9  H51 UNL     1      -0.045   8.198  16.448  1.00  0.00     0.281 HD
ATOM     10  H52 UNL     1      -1.290   8.386  17.359  1.00  0.00     0.281 HD
ENDROOT
BRANCH   1  11
HETATM   11  O1  UNL     1      -0.880   5.994  15.853  1.00  0.00    -0.275 OA
BRANCH  11  12
HETATM   12  C1  UNL     1       0.443   6.034  16.255  1.00  0.00     0.227 C 
HETATM   13  N1  UNL     1       0.773   5.254  17.211  1.00  0.00    -0.368 N 
ATOM     14  H12 UNL     1       1.749   5.283  17.509  1.00  0.00     0.159 HD
ATOM     15  H11 UNL     1       0.069   4.647  17.632  1.00  0.00     0.159 HD
HETATM   16  N2  UNL     1       1.423   6.879  15.670  1.00  0.00    -0.057 NA
ENDBRANCH  11  12
ENDBRANCH   1  11
BRANCH   1  17
HETATM   17  C3  UNL     1      -2.975   6.906  16.451  1.00  0.00     0.297 C 
HETATM   18  N3  UNL     1      -3.172   5.879  17.410  1.00  0.00    -0.058 NA
HETATM   19  O2  UNL     1      -3.988   7.623  16.182  1.00  0.00    -0.271 OA
ENDBRANCH   1  17
TORSDOF 3
ENDMDL
MODEL 5
REMARK VINA RESULT: -6.035837460      1.392      1.934
REMARK  3 active torsions:
REMARK  status: ('A' for Active; 'I' for Inactive)
REMARK    1  A    between atoms: C1_4  and  O1_6 
REMARK    2  A    between atoms: O1_6  and  C2_7 
REMARK    3  A    between atoms: C2_7  and  C3_8 
ROOT
HETATM    1  C2  UNL     1      -1.685   6.914  15.890  1.00  0.00     0.335 C 
HETATM    2  C4  UNL     1      -0.448   6.092  15.516  1.00  0.00     0.311 C 
HETATM    3  N4  UNL     1      -0.175   6.354  14.128  1.00  0.00    -0.069 N 
ATOM      4  H41 UNL     1       0.766   6.049  13.880  1.00  0.00     0.277 HD
ATOM      5  H42 UNL     1      -0.077   7.355  13.962  1.00  0.00     0.277 HD
HETATM    6  C5  UNL     1      -1.153   5.780  13.233  1.00  0.00     0.260 C 
HETATM    7  C6  UNL     1      -2.488   5.838  13.892  1.00  0.00     0.264 C 
HETATM    8  N5  UNL     1      -2.627   6.969  14.808  1.00  0.00    -0.030 N 
ATOM      9  H51 UNL     1      -2.563   7.856  14.309  1.00  0.00     0.281 HD
ATOM     10  H52 UNL     1      -3.583   7.045  15.156  1.00  0.00     0.281 HD
ENDROOT
BRANCH   1  11
HETATM   11  O1  UNL     1      -1.220   8.158  16.311  1.00  0.00    -0.275 OA
BRANCH  11  12
HETATM   12  C1  UNL     1      -1.377   9.294  15.540  1.00  0.00     0.227 C 
HETATM   13  N1  UNL     1      -2.065  10.242  16.050  1.00  0.00    -0.368 N 
ATOM     14  H12 UNL     1      -2.181  11.080  15.481  1.00  0.00     0.159 HD
ATOM     15  H11 UNL     1      -2.463  10.129  16.983  1.00  0.00     0.159 HD
HETATM   16  N2  UNL     1      -0.823   9.452  14.241  1.00  0.00    -0.057 NA
ENDBRANCH  11  12
ENDBRANCH   1  11
BRANCH   1  17
HETATM   17  C3  UNL     1      -2.319   6.197  17.036  1.00  0.00     0.297 C 
HETATM   18  N3  UNL     1      -1.578   5.397  17.944  1.00  0.00    -0.058 NA
HETATM   19  O2  UNL     1      -3.569   6.273  17.248  1.00  0.00    -0.271 OA
ENDBRANCH   1  17
TORSDOF 3
ENDMDL
