MODEL 1
REMARK VINA RESULT: -6.466059306      0.000      0.000
REMARK  6 active torsions:
REMARK  status: ('A' for Active; 'I' for Inactive)
REMARK    1  A    between atoms: C3_4  and  C4_5 
REMARK    2  A    between atoms: C4_5  and  O1_6 
REMARK    3  A    between atoms: C4_5  and  N2_8 
REMARK    4  A    between atoms: N2_8  and  N3_10 
REMARK    5  A    between atoms: C5_15  and  N5_16 
REMARK    6  A    between atoms: C6_21  and  N7_22 
ROOT
HETATM    1  N1  UNL     1       0.167   7.490  18.285  1.00  0.00    -0.191 NA
HETATM    2  C1  UNL     1      -0.377   6.743  17.624  1.00  0.00     0.106 C 
HETATM    3  C2  UNL     1      -1.021   5.785  16.767  1.00  0.00     0.120 A 
HETATM    4  C3  UNL     1      -2.175   6.083  16.116  1.00  0.00     0.125 A 
HETATM    5  N4  UNL     1      -2.661   5.118  15.266  1.00  0.00    -0.186 N 
ATOM      6  H4  UNL     1      -3.526   5.314  14.761  1.00  0.00     0.184 HD
HETATM    7  C5  UNL     1      -2.069   3.941  15.062  1.00  0.00     0.678 A 
HETATM    8  N6  UNL     1      -0.920   3.680  15.732  1.00  0.00    -0.176 N 
ATOM      9  H6  UNL     1      -0.457   2.783  15.585  1.00  0.00     0.186 HD
HETATM   10  C6  UNL     1      -0.375   4.554  16.574  1.00  0.00     0.138 A 
ENDROOT
BRANCH   4  11
HETATM   11  C4  UNL     1      -2.973   7.292  16.287  1.00  0.00     0.184 C 
BRANCH  11  12
HETATM   12  O1  UNL     1      -3.981   7.222  17.114  1.00  0.00    -0.343 OA
ATOM     13  H1  UNL     1      -4.790   6.855  16.775  1.00  0.00     0.219 HD
ENDBRANCH  11  12
BRANCH  11  14
HETATM   14  N2  UNL     1      -2.809   8.540  15.691  1.00  0.00    -0.285 N 
ATOM     15  H2  UNL     1      -3.468   8.877  14.989  1.00  0.00     0.188 HD
BRANCH  14  16
HETATM   16  N3  UNL     1      -1.698   9.328  16.088  1.00  0.00    -0.343 N 
ATOM     17  H32 UNL     1      -1.094   9.749  15.384  1.00  0.00     0.176 HD
ATOM     18  H31 UNL     1      -1.532   9.453  17.087  1.00  0.00     0.176 HD
ENDBRANCH  14  16
ENDBRANCH  11  14
ENDBRANCH   4  11
BRANCH  10  19
HETATM   19  N7  UNL     1       0.711   4.295  17.202  1.00  0.00    -0.384 N 
ATOM     20  H72 UNL     1       1.625   4.483  16.791  1.00  0.00     0.157 HD
ATOM     21  H71 UNL     1       0.674   3.891  18.138  1.00  0.00     0.157 HD
ENDBRANCH  10  19
BRANCH   7  22
HETATM   22  N5  UNL     1      -2.558   3.051  14.248  1.00  0.00    -0.234 N 
ATOM     23  H52 UNL     1      -3.294   3.316  13.593  1.00  0.00     0.174 HD
ATOM     24  H51 UNL     1      -2.232   2.085  14.239  1.00  0.00     0.174 HD
ENDBRANCH   7  22
TORSDOF 6
ENDMDL
MODEL 2
REMARK VINA RESULT: -6.259069302      2.850      3.749
REMARK  6 active torsions:
REMARK  status: ('A' for Active; 'I' for Inactive)
REMARK    1  A    between atoms: C3_4  and  C4_5 
REMARK    2  A    between atoms: C4_5  and  O1_6 
REMARK    3  A    between atoms: C4_5  and  N2_8 
REMARK    4  A    between atoms: N2_8  and  N3_10 
REMARK    5  A    between atoms: C5_15  and  N5_16 
REMARK    6  A    between atoms: C6_21  and  N7_22 
ROOT
HETATM    1  N1  UNL     1      -0.333   6.134  17.735  1.00  0.00    -0.191 NA
HETATM    2  C1  UNL     1      -0.285   6.705  16.754  1.00  0.00     0.106 C 
HETATM    3  C2  UNL     1      -0.179   7.442  15.524  1.00  0.00     0.120 A 
HETATM    4  C3  UNL     1      -1.188   8.238  15.087  1.00  0.00     0.125 A 
HETATM    5  N4  UNL     1      -0.947   8.952  13.937  1.00  0.00    -0.186 N 
ATOM      6  H4  UNL     1      -1.686   9.561  13.586  1.00  0.00     0.184 HD
HETATM    7  C5  UNL     1       0.197   8.896  13.254  1.00  0.00     0.678 A 
HETATM    8  N6  UNL     1       1.180   8.087  13.720  1.00  0.00    -0.176 N 
ATOM      9  H6  UNL     1       2.059   8.035  13.207  1.00  0.00     0.186 HD
HETATM   10  C6  UNL     1       1.036   7.360  14.825  1.00  0.00     0.138 A 
ENDROOT
BRANCH   4  11
HETATM   11  C4  UNL     1      -2.515   8.351  15.682  1.00  0.00     0.184 C 
BRANCH  11  12
HETATM   12  O1  UNL     1      -2.875   9.533  16.103  1.00  0.00    -0.343 OA
ATOM     13  H1  UNL     1      -3.466   9.563  16.847  1.00  0.00     0.219 HD
ENDBRANCH  11  12
BRANCH  11  14
HETATM   14  N2  UNL     1      -3.478   7.362  15.865  1.00  0.00    -0.285 N 
ATOM     15  H2  UNL     1      -4.026   7.011  15.079  1.00  0.00     0.188 HD
BRANCH  14  16
HETATM   16  N3  UNL     1      -3.676   6.857  17.176  1.00  0.00    -0.343 N 
ATOM     17  H32 UNL     1      -3.138   6.053  17.499  1.00  0.00     0.176 HD
ATOM     18  H31 UNL     1      -4.363   7.321  17.770  1.00  0.00     0.176 HD
ENDBRANCH  14  16
ENDBRANCH  11  14
ENDBRANCH   4  11
BRANCH  10  19
HETATM   19  N7  UNL     1       1.972   6.599  15.256  1.00  0.00    -0.384 N 
ATOM     20  H72 UNL     1       1.904   6.123  16.155  1.00  0.00     0.157 HD
ATOM     21  H71 UNL     1       2.813   6.458  14.694  1.00  0.00     0.157 HD
ENDBRANCH  10  19
BRANCH   7  22
HETATM   22  N5  UNL     1       0.390   9.587  12.169  1.00  0.00    -0.234 N 
ATOM     23  H52 UNL     1      -0.374   9.709  11.504  1.00  0.00     0.174 HD
ATOM     24  H51 UNL     1       1.289  10.018  11.952  1.00  0.00     0.174 HD
ENDBRANCH   7  22
TORSDOF 6
ENDMDL
MODEL 3
REMARK VINA RESULT: -6.158679279      3.012      4.972
REMARK  6 active torsions:
REMARK  status: ('A' for Active; 'I' for Inactive)
REMARK    1  A    between atoms: C3_4  and  C4_5 
REMARK    2  A    between atoms: C4_5  and  O1_6 
REMARK    3  A    between atoms: C4_5  and  N2_8 
REMARK    4  A    between atoms: N2_8  and  N3_10 
REMARK    5  A    between atoms: C5_15  and  N5_16 
REMARK    6  A    between atoms: C6_21  and  N7_22 
ROOT
HETATM    1  N1  UNL     1      -3.963   7.483  16.634  1.00  0.00    -0.191 NA
HETATM    2  C1  UNL     1      -3.140   7.759  15.902  1.00  0.00     0.106 C 
HETATM    3  C2  UNL     1      -2.118   8.153  14.969  1.00  0.00     0.120 A 
HETATM    4  C3  UNL     1      -1.730   7.334  13.958  1.00  0.00     0.125 A 
HETATM    5  N4  UNL     1      -0.799   7.844  13.085  1.00  0.00    -0.186 N 
ATOM      6  H4  UNL     1      -0.489   7.253  12.313  1.00  0.00     0.184 HD
HETATM    7  C5  UNL     1      -0.276   9.067  13.187  1.00  0.00     0.678 A 
HETATM    8  N6  UNL     1      -0.687   9.854  14.211  1.00  0.00    -0.176 N 
ATOM      9  H6  UNL     1      -0.295  10.791  14.300  1.00  0.00     0.186 HD
HETATM   10  C6  UNL     1      -1.585   9.445  15.104  1.00  0.00     0.138 A 
ENDROOT
BRANCH   4  11
HETATM   11  C4  UNL     1      -2.155   5.954  13.756  1.00  0.00     0.184 C 
BRANCH  11  12
HETATM   12  O1  UNL     1      -1.297   5.148  13.191  1.00  0.00    -0.343 OA
ATOM     13  H1  UNL     1      -1.397   4.220  13.370  1.00  0.00     0.219 HD
ENDBRANCH  11  12
BRANCH  11  14
HETATM   14  N2  UNL     1      -3.366   5.353  14.092  1.00  0.00    -0.285 N 
ATOM     15  H2  UNL     1      -4.236   5.886  14.086  1.00  0.00     0.188 HD
BRANCH  14  16
HETATM   16  N3  UNL     1      -3.354   3.979  14.443  1.00  0.00    -0.343 N 
ATOM     17  H32 UNL     1      -2.669   3.351  14.023  1.00  0.00     0.176 HD
ATOM     18  H31 UNL     1      -4.045   3.650  15.118  1.00  0.00     0.176 HD
ENDBRANCH  14  16
ENDBRANCH  11  14
ENDBRANCH   4  11
BRANCH  10  19
HETATM   19  N7  UNL     1      -1.964  10.196  16.069  1.00  0.00    -0.384 N 
ATOM     20  H72 UNL     1      -1.922   9.885  17.039  1.00  0.00     0.157 HD
ATOM     21  H71 UNL     1      -2.321  11.133  15.875  1.00  0.00     0.157 HD
ENDBRANCH  10  19
BRANCH   7  22
HETATM   22  N5  UNL     1       0.603   9.517  12.340  1.00  0.00    -0.234 N 
ATOM     23  H52 UNL     1       1.521   9.812  12.673  1.00  0.00     0.174 HD
ATOM     24  H51 UNL     1       0.409   9.590  11.341  1.00  0.00     0.174 HD
ENDBRANCH   7  22
TORSDOF 6
ENDMDL
MODEL 4
REMARK VINA RESULT: -6.084898197      7.597      8.718
REMARK  6 active torsions:
REMARK  status: ('A' for Active; 'I' for Inactive)
REMARK    1  A    between atoms: C3_4  and  C4_5 
REMARK    2  A    between atoms: C4_5  and  O1_6 
REMARK    3  A    between atoms: C4_5  and  N2_8 
REMARK    4  A    between atoms: N2_8  and  N3_10 
REMARK    5  A    between atoms: C5_15  and  N5_16 
REMARK    6  A    between atoms: C6_21  and  N7_22 
ROOT
HETATM    1  N1  UNL     1       0.812   8.416  12.822  1.00  0.00    -0.191 NA
HETATM    2  C1  UNL     1       0.673   8.852  11.782  1.00  0.00     0.106 C 
HETATM    3  C2  UNL     1       0.457   9.427  10.482  1.00  0.00     0.120 A 
HETATM    4  C3  UNL     1       0.597   8.689   9.351  1.00  0.00     0.125 A 
HETATM    5  N4  UNL     1       0.293   9.323   8.169  1.00  0.00    -0.186 N 
ATOM      6  H4  UNL     1       0.387   8.793   7.302  1.00  0.00     0.184 HD
HETATM    7  C5  UNL     1      -0.118  10.589   8.088  1.00  0.00     0.678 A 
HETATM    8  N6  UNL     1      -0.244  11.293   9.240  1.00  0.00    -0.176 N 
ATOM      9  H6  UNL     1      -0.558  12.262   9.192  1.00  0.00     0.186 HD
HETATM   10  C6  UNL     1       0.027  10.763  10.429  1.00  0.00     0.138 A 
ENDROOT
BRANCH   4  11
HETATM   11  C4  UNL     1       1.102   7.323   9.270  1.00  0.00     0.184 C 
BRANCH  11  12
HETATM   12  O1  UNL     1       2.123   7.025  10.027  1.00  0.00    -0.343 OA
ATOM     13  H1  UNL     1       2.656   6.286   9.759  1.00  0.00     0.219 HD
ENDBRANCH  11  12
BRANCH  11  14
HETATM   14  N2  UNL     1       0.640   6.265   8.492  1.00  0.00    -0.285 N 
ATOM     15  H2  UNL     1      -0.199   5.747   8.756  1.00  0.00     0.188 HD
BRANCH  14  16
HETATM   16  N3  UNL     1       1.369   5.929   7.323  1.00  0.00    -0.343 N 
ATOM     17  H32 UNL     1       1.159   6.392   6.439  1.00  0.00     0.176 HD
ATOM     18  H31 UNL     1       2.098   5.219   7.400  1.00  0.00     0.176 HD
ENDBRANCH  14  16
ENDBRANCH  11  14
ENDBRANCH   4  11
BRANCH  10  19
HETATM   19  N7  UNL     1      -0.095  11.438  11.511  1.00  0.00    -0.384 N 
ATOM     20  H72 UNL     1       0.287  11.106  12.396  1.00  0.00     0.157 HD
ATOM     21  H71 UNL     1      -0.584  12.334  11.500  1.00  0.00     0.157 HD
ENDBRANCH  10  19
BRANCH   7  22
HETATM   22  N5  UNL     1      -0.399  11.155   6.951  1.00  0.00    -0.234 N 
ATOM     23  H52 UNL     1      -1.009  10.680   6.287  1.00  0.00     0.174 HD
ATOM     24  H51 UNL     1      -0.027  12.069   6.693  1.00  0.00     0.174 HD
ENDBRANCH   7  22
TORSDOF 6
ENDMDL
MODEL 5
REMARK VINA RESULT: -6.018472014      7.364      8.451
REMARK  6 active torsions:
REMARK  status: ('A' for Active; 'I' for Inactive)
REMARK    1  A    between atoms: C3_4  and  C4_5 
REMARK    2  A    between atoms: C4_5  and  O1_6 
REMARK    3  A    between atoms: C4_5  and  N2_8 
REMARK    4  A    between atoms: N2_8  and  N3_10 
REMARK    5  A    between atoms: C5_15  and  N5_16 
REMARK    6  A    between atoms: C6_21  and  N7_22 
ROOT
HETATM    1  N1  UNL     1       0.575   8.482  12.860  1.00  0.00    -0.191 NA
HETATM    2  C1  UNL     1       0.473   8.895  11.807  1.00  0.00     0.106 C 
HETATM    3  C2  UNL     1       0.305   9.446  10.489  1.00  0.00     0.120 A 
HETATM    4  C3  UNL     1       0.342   8.658   9.384  1.00  0.00     0.125 A 
HETATM    5  N4  UNL     1       0.096   9.281   8.183  1.00  0.00    -0.186 N 
ATOM      6  H4  UNL     1       0.114   8.714   7.335  1.00  0.00     0.184 HD
HETATM    7  C5  UNL     1      -0.166  10.583   8.061  1.00  0.00     0.678 A 
HETATM    8  N6  UNL     1      -0.191  11.337   9.188  1.00  0.00    -0.176 N 
ATOM      9  H6  UNL     1      -0.389  12.334   9.108  1.00  0.00     0.186 HD
HETATM   10  C6  UNL     1       0.034  10.820  10.393  1.00  0.00     0.138 A 
ENDROOT
BRANCH   4  11
HETATM   11  C4  UNL     1       0.682   7.240   9.348  1.00  0.00     0.184 C 
BRANCH  11  12
HETATM   12  O1  UNL     1      -0.237   6.423   8.909  1.00  0.00    -0.343 OA
ATOM     13  H1  UNL     1      -0.864   6.099   9.546  1.00  0.00     0.219 HD
ENDBRANCH  11  12
BRANCH  11  14
HETATM   14  N2  UNL     1       1.872   6.617   9.714  1.00  0.00    -0.285 N 
ATOM     15  H2  UNL     1       2.691   6.651   9.107  1.00  0.00     0.188 HD
BRANCH  14  16
HETATM   16  N3  UNL     1       1.913   5.935  10.958  1.00  0.00    -0.343 N 
ATOM     17  H32 UNL     1       1.209   5.230  11.176  1.00  0.00     0.176 HD
ATOM     18  H31 UNL     1       2.659   6.173  11.611  1.00  0.00     0.176 HD
ENDBRANCH  14  16
ENDBRANCH  11  14
ENDBRANCH   4  11
BRANCH  10  19
HETATM   19  N7  UNL     1       0.009  11.543  11.450  1.00  0.00    -0.384 N 
ATOM     20  H72 UNL     1      -0.869  11.850  11.868  1.00  0.00     0.157 HD
ATOM     21  H71 UNL     1       0.883  11.826  11.894  1.00  0.00     0.157 HD
ENDBRANCH  10  19
BRANCH   7  22
HETATM   22  N5  UNL     1      -0.395  11.138   6.907  1.00  0.00    -0.234 N 
ATOM     23  H52 UNL     1      -1.350  11.195   6.555  1.00  0.00     0.174 HD
ATOM     24  H51 UNL     1       0.353  11.524   6.331  1.00  0.00     0.174 HD
ENDBRANCH   7  22
TORSDOF 6
ENDMDL
