MODEL 1
REMARK VINA RESULT: -6.799220691      0.000      0.000
REMARK  4 active torsions:
REMARK  status: ('A' for Active; 'I' for Inactive)
REMARK    1  A    between atoms: N1_1  and  C1_4 
REMARK    2  A    between atoms: C3_10  and  C4_11 
REMARK    3  A    between atoms: C4_11  and  N4_12 
REMARK    4  A    between atoms: C4_11  and  N5_16 
ROOT
HETATM    1  C1  UNL     1      -0.615   8.031  13.286  1.00  0.00     0.678 A 
HETATM    2  N2  UNL     1      -1.214   9.176  12.920  1.00  0.00    -0.174 N 
ATOM      3  H2  UNL     1      -1.704   9.817  13.543  1.00  0.00     0.186 HD
HETATM    4  C2  UNL     1      -1.060   9.334  11.612  1.00  0.00     0.155 A 
HETATM    5  N3  UNL     1      -1.444  10.281  10.718  1.00  0.00    -0.326 N 
ATOM      6  H3  UNL     1      -1.976  11.087  11.045  1.00  0.00     0.169 HD
HETATM    7  C3  UNL     1      -1.142  10.183   9.418  1.00  0.00     0.144 A 
HETATM    8  N6  UNL     1      -0.444   9.134   8.966  1.00  0.00    -0.308 N 
ATOM      9  H6  UNL     1      -0.219   9.067   7.973  1.00  0.00     0.170 HD
HETATM   10  C5  UNL     1      -0.042   8.177   9.799  1.00  0.00     0.278 A 
HETATM   11  O1  UNL     1       0.616   7.181   9.393  1.00  0.00    -0.265 OA
HETATM   12  C6  UNL     1      -0.344   8.262  11.135  1.00  0.00     0.161 A 
HETATM   13  N7  UNL     1      -0.077   7.464  12.196  1.00  0.00    -0.183 N 
ATOM     14  H7  UNL     1       0.442   6.586  12.171  1.00  0.00     0.184 HD
ENDROOT
BRANCH   7  15
HETATM   15  C4  UNL     1      -1.578  11.238   8.458  1.00  0.00     0.444 C 
BRANCH  15  16
HETATM   16  N4  UNL     1      -0.695  12.380   8.613  1.00  0.00    -0.043 N 
ATOM     17  H43 UNL     1       0.230  12.119   8.954  1.00  0.00     0.277 HD
ATOM     18  H42 UNL     1      -0.406  12.778   7.720  1.00  0.00     0.277 HD
ATOM     19  H41 UNL     1      -1.160  13.060   9.215  1.00  0.00     0.277 HD
ENDBRANCH  15  16
BRANCH  15  20
HETATM   20  N5  UNL     1      -1.316  10.699   7.123  1.00  0.00    -0.043 N 
ATOM     21  H53 UNL     1      -0.637  11.242   6.590  1.00  0.00     0.277 HD
ATOM     22  H52 UNL     1      -0.794   9.823   7.133  1.00  0.00     0.277 HD
ATOM     23  H51 UNL     1      -2.226  10.626   6.668  1.00  0.00     0.277 HD
ENDBRANCH  15  20
ENDBRANCH   7  15
BRANCH   1  24
HETATM   24  N1  UNL     1      -0.568   7.558  14.509  1.00  0.00    -0.234 N 
ATOM     25  H12 UNL     1       0.086   7.841  15.239  1.00  0.00     0.174 HD
ATOM     26  H11 UNL     1      -1.188   6.842  14.888  1.00  0.00     0.174 HD
ENDBRANCH   1  24
TORSDOF 4
ENDMDL
MODEL 2
REMARK VINA RESULT: -6.702831866      0.882      1.071
REMARK  4 active torsions:
REMARK  status: ('A' for Active; 'I' for Inactive)
REMARK    1  A    between atoms: N1_1  and  C1_4 
REMARK    2  A    between atoms: C3_10  and  C4_11 
REMARK    3  A    between atoms: C4_11  and  N4_12 
REMARK    4  A    between atoms: C4_11  and  N5_16 
ROOT
HETATM    1  C1  UNL     1      -0.016   7.705  13.224  1.00  0.00     0.678 A 
HETATM    2  N2  UNL     1      -0.868   8.696  12.915  1.00  0.00    -0.174 N 
ATOM      3  H2  UNL     1      -1.400   9.252  13.583  1.00  0.00     0.186 HD
HETATM    4  C2  UNL     1      -0.901   8.829  11.597  1.00  0.00     0.155 A 
HETATM    5  N3  UNL     1      -1.566   9.647  10.741  1.00  0.00    -0.326 N 
ATOM      6  H3  UNL     1      -2.205  10.346  11.117  1.00  0.00     0.169 HD
HETATM    7  C3  UNL     1      -1.402   9.560   9.416  1.00  0.00     0.144 A 
HETATM    8  N6  UNL     1      -0.568   8.650   8.899  1.00  0.00    -0.308 N 
ATOM      9  H6  UNL     1      -0.450   8.589   7.887  1.00  0.00     0.170 HD
HETATM   10  C5  UNL     1       0.109   7.823   9.692  1.00  0.00     0.278 A 
HETATM   11  O1  UNL     1       0.900   6.959   9.225  1.00  0.00    -0.265 OA
HETATM   12  C6  UNL     1      -0.047   7.899  11.054  1.00  0.00     0.161 A 
HETATM   13  N7  UNL     1       0.494   7.211  12.087  1.00  0.00    -0.183 N 
ATOM     14  H7  UNL     1       1.170   6.451  12.012  1.00  0.00     0.184 HD
ENDROOT
BRANCH   7  15
HETATM   15  C4  UNL     1      -2.147  10.471   8.500  1.00  0.00     0.444 C 
BRANCH  15  16
HETATM   16  N4  UNL     1      -1.357  10.641   7.295  1.00  0.00    -0.043 N 
ATOM     17  H43 UNL     1      -0.521  11.207   7.448  1.00  0.00     0.277 HD
ATOM     18  H42 UNL     1      -0.891   9.782   7.005  1.00  0.00     0.277 HD
ATOM     19  H41 UNL     1      -1.963  11.024   6.570  1.00  0.00     0.277 HD
ENDBRANCH  15  16
BRANCH  15  20
HETATM   20  N5  UNL     1      -3.350   9.741   8.098  1.00  0.00    -0.043 N 
ATOM     21  H53 UNL     1      -3.832   9.290   8.875  1.00  0.00     0.277 HD
ATOM     22  H52 UNL     1      -4.118  10.348   7.813  1.00  0.00     0.277 HD
ATOM     23  H51 UNL     1      -3.053   9.091   7.371  1.00  0.00     0.277 HD
ENDBRANCH  15  20
ENDBRANCH   7  15
BRANCH   1  24
HETATM   24  N1  UNL     1       0.265   7.298  14.440  1.00  0.00    -0.234 N 
ATOM     25  H12 UNL     1      -0.085   7.705  15.307  1.00  0.00     0.174 HD
ATOM     26  H11 UNL     1       0.874   6.513  14.673  1.00  0.00     0.174 HD
ENDBRANCH   1  24
TORSDOF 4
ENDMDL
MODEL 3
REMARK VINA RESULT: -6.572933955      1.292      1.539
REMARK  4 active torsions:
REMARK  status: ('A' for Active; 'I' for Inactive)
REMARK    1  A    between atoms: N1_1  and  C1_4 
REMARK    2  A    between atoms: C3_10  and  C4_11 
REMARK    3  A    between atoms: C4_11  and  N4_12 
REMARK    4  A    between atoms: C4_11  and  N5_16 
ROOT
HETATM    1  C1  UNL     1      -1.755   7.714  13.727  1.00  0.00     0.678 A 
HETATM    2  N2  UNL     1      -1.464   8.995  13.452  1.00  0.00    -0.174 N 
ATOM      3  H2  UNL     1      -1.447   9.760  14.126  1.00  0.00     0.186 HD
HETATM    4  C2  UNL     1      -1.201   9.100  12.156  1.00  0.00     0.155 A 
HETATM    5  N3  UNL     1      -0.855  10.126  11.337  1.00  0.00    -0.326 N 
ATOM      6  H3  UNL     1      -0.754  11.062  11.728  1.00  0.00     0.169 HD
HETATM    7  C3  UNL     1      -0.643   9.939  10.029  1.00  0.00     0.144 A 
HETATM    8  N6  UNL     1      -0.771   8.719   9.493  1.00  0.00    -0.308 N 
ATOM      9  H6  UNL     1      -0.608   8.586   8.495  1.00  0.00     0.170 HD
HETATM   10  C5  UNL     1      -1.108   7.678  10.251  1.00  0.00     0.278 A 
HETATM   11  O1  UNL     1      -1.232   6.521   9.765  1.00  0.00    -0.265 OA
HETATM   12  C6  UNL     1      -1.328   7.852  11.594  1.00  0.00     0.161 A 
HETATM   13  N7  UNL     1      -1.673   7.004  12.592  1.00  0.00    -0.183 N 
ATOM     14  H7  UNL     1      -1.841   6.002  12.497  1.00  0.00     0.184 HD
ENDROOT
BRANCH   7  15
HETATM   15  C4  UNL     1      -0.265  11.085   9.153  1.00  0.00     0.444 C 
BRANCH  15  16
HETATM   16  N4  UNL     1      -1.485  11.694   8.656  1.00  0.00    -0.043 N 
ATOM     17  H43 UNL     1      -2.313  11.128   8.844  1.00  0.00     0.277 HD
ATOM     18  H42 UNL     1      -1.759  12.519   9.189  1.00  0.00     0.277 HD
ATOM     19  H41 UNL     1      -1.360  11.890   7.663  1.00  0.00     0.277 HD
ENDBRANCH  15  16
BRANCH  15  20
HETATM   20  N5  UNL     1       0.355  12.076  10.033  1.00  0.00    -0.043 N 
ATOM     21  H53 UNL     1      -0.149  12.962  10.070  1.00  0.00     0.277 HD
ATOM     22  H52 UNL     1       0.275  11.848  11.024  1.00  0.00     0.277 HD
ATOM     23  H51 UNL     1       1.319  12.170   9.713  1.00  0.00     0.277 HD
ENDBRANCH  15  20
ENDBRANCH   7  15
BRANCH   1  24
HETATM   24  N1  UNL     1      -2.065   7.245  14.914  1.00  0.00    -0.234 N 
ATOM     25  H12 UNL     1      -2.511   6.349  15.109  1.00  0.00     0.174 HD
ATOM     26  H11 UNL     1      -1.895   7.723  15.799  1.00  0.00     0.174 HD
ENDBRANCH   1  24
TORSDOF 4
ENDMDL
MODEL 4
REMARK VINA RESULT: -6.503634558      0.822      1.038
REMARK  4 active torsions:
REMARK  status: ('A' for Active; 'I' for Inactive)
REMARK    1  A    between atoms: N1_1  and  C1_4 
REMARK    2  A    between atoms: C3_10  and  C4_11 
REMARK    3  A    between atoms: C4_11  and  N4_12 
REMARK    4  A    between atoms: C4_11  and  N5_16 
ROOT
HETATM    1  C1  UNL     1      -0.118   7.569  13.262  1.00  0.00     0.678 A 
HETATM    2  N2  UNL     1      -0.694   8.744  12.963  1.00  0.00    -0.174 N 
ATOM      3  H2  UNL     1      -1.121   9.385  13.632  1.00  0.00     0.186 HD
HETATM    4  C2  UNL     1      -0.617   8.932  11.653  1.00  0.00     0.155 A 
HETATM    5  N3  UNL     1      -1.020   9.916  10.808  1.00  0.00    -0.326 N 
ATOM      6  H3  UNL     1      -1.499  10.732  11.188  1.00  0.00     0.169 HD
HETATM    7  C3  UNL     1      -0.802   9.843   9.491  1.00  0.00     0.144 A 
HETATM    8  N6  UNL     1      -0.174   8.782   8.969  1.00  0.00    -0.308 N 
ATOM      9  H6  UNL     1      -0.014   8.734   7.962  1.00  0.00     0.170 HD
HETATM   10  C5  UNL     1       0.242   7.788   9.751  1.00  0.00     0.278 A 
HETATM   11  O1  UNL     1       0.835   6.781   9.279  1.00  0.00    -0.265 OA
HETATM   12  C6  UNL     1       0.027   7.848  11.105  1.00  0.00     0.161 A 
HETATM   13  N7  UNL     1       0.329   7.012  12.127  1.00  0.00    -0.183 N 
ATOM     14  H7  UNL     1       0.812   6.117  12.047  1.00  0.00     0.184 HD
ENDROOT
BRANCH   7  15
HETATM   15  C4  UNL     1      -1.257  10.939   8.587  1.00  0.00     0.444 C 
BRANCH  15  16
HETATM   16  N4  UNL     1      -2.630  11.262   8.926  1.00  0.00    -0.043 N 
ATOM     17  H43 UNL     1      -2.871  12.230   8.714  1.00  0.00     0.277 HD
ATOM     18  H42 UNL     1      -3.305  10.813   8.306  1.00  0.00     0.277 HD
ATOM     19  H41 UNL     1      -2.778  11.024   9.906  1.00  0.00     0.277 HD
ENDBRANCH  15  16
BRANCH  15  20
HETATM   20  N5  UNL     1      -0.461  12.113   8.948  1.00  0.00    -0.043 N 
ATOM     21  H53 UNL     1      -1.022  12.944   9.135  1.00  0.00     0.277 HD
ATOM     22  H52 UNL     1      -0.031  12.046   9.870  1.00  0.00     0.277 HD
ATOM     23  H51 UNL     1       0.212  12.238   8.192  1.00  0.00     0.277 HD
ENDBRANCH  15  20
ENDBRANCH   7  15
BRANCH   1  24
HETATM   24  N1  UNL     1      -0.013   7.061  14.468  1.00  0.00    -0.234 N 
ATOM     25  H12 UNL     1       0.303   7.554  15.303  1.00  0.00     0.174 HD
ATOM     26  H11 UNL     1      -0.240   6.100  14.725  1.00  0.00     0.174 HD
ENDBRANCH   1  24
TORSDOF 4
ENDMDL
MODEL 5
REMARK VINA RESULT: -6.371255370      3.633      7.032
REMARK  4 active torsions:
REMARK  status: ('A' for Active; 'I' for Inactive)
REMARK    1  A    between atoms: N1_1  and  C1_4 
REMARK    2  A    between atoms: C3_10  and  C4_11 
REMARK    3  A    between atoms: C4_11  and  N4_12 
REMARK    4  A    between atoms: C4_11  and  N5_16 
ROOT
HETATM    1  C1  UNL     1      -0.762   8.383  12.524  1.00  0.00     0.678 A 
HETATM    2  N2  UNL     1      -1.062   7.124  12.883  1.00  0.00    -0.174 N 
ATOM      3  H2  UNL     1      -0.831   6.283  12.355  1.00  0.00     0.186 HD
HETATM    4  C2  UNL     1      -1.709   7.158  14.040  1.00  0.00     0.155 A 
HETATM    5  N3  UNL     1      -2.242   6.214  14.859  1.00  0.00    -0.326 N 
ATOM      6  H3  UNL     1      -2.172   5.231  14.596  1.00  0.00     0.169 HD
HETATM    7  C3  UNL     1      -2.856   6.541  16.001  1.00  0.00     0.144 A 
HETATM    8  N6  UNL     1      -2.960   7.825  16.366  1.00  0.00    -0.308 N 
ATOM      9  H6  UNL     1      -3.431   8.065  17.239  1.00  0.00     0.170 HD
HETATM   10  C5  UNL     1      -2.456   8.790  15.602  1.00  0.00     0.278 A 
HETATM   11  O1  UNL     1      -2.543  10.005  15.928  1.00  0.00    -0.265 OA
HETATM   12  C6  UNL     1      -1.822   8.472  14.426  1.00  0.00     0.161 A 
HETATM   13  N7  UNL     1      -1.224   9.217  13.467  1.00  0.00    -0.183 N 
ATOM     14  H7  UNL     1      -1.140  10.234  13.462  1.00  0.00     0.184 HD
ENDROOT
BRANCH   7  15
HETATM   15  C4  UNL     1      -3.433   5.483  16.880  1.00  0.00     0.444 C 
BRANCH  15  16
HETATM   16  N4  UNL     1      -2.498   5.237  17.962  1.00  0.00    -0.043 N 
ATOM     17  H43 UNL     1      -2.268   6.083  18.484  1.00  0.00     0.277 HD
ATOM     18  H42 UNL     1      -2.913   4.710  18.729  1.00  0.00     0.277 HD
ATOM     19  H41 UNL     1      -1.674   4.781  17.571  1.00  0.00     0.277 HD
ENDBRANCH  15  16
BRANCH  15  20
HETATM   20  N5  UNL     1      -4.621   6.076  17.495  1.00  0.00    -0.043 N 
ATOM     21  H53 UNL     1      -4.456   6.439  18.434  1.00  0.00     0.277 HD
ATOM     22  H52 UNL     1      -4.903   6.959  17.070  1.00  0.00     0.277 HD
ATOM     23  H51 UNL     1      -5.343   5.357  17.458  1.00  0.00     0.277 HD
ENDBRANCH  15  20
ENDBRANCH   7  15
BRANCH   1  24
HETATM   24  N1  UNL     1      -0.121   8.727  11.431  1.00  0.00    -0.234 N 
ATOM     25  H12 UNL     1       0.874   8.938  11.358  1.00  0.00     0.174 HD
ATOM     26  H11 UNL     1      -0.542   8.825  10.507  1.00  0.00     0.174 HD
ENDBRANCH   1  24
TORSDOF 4
ENDMDL
