MODEL 1
REMARK VINA RESULT: -6.778989138      0.000      0.000
REMARK  4 active torsions:
REMARK  status: ('A' for Active; 'I' for Inactive)
REMARK    1  A    between atoms: N1_1  and  C1_4 
REMARK    2  A    between atoms: C3_6  and  C4_7 
REMARK       I    between atoms: C4_7  and  N2_9 
REMARK    3  A    between atoms: N2_9  and  N3_11 
REMARK       I    between atoms: N5_16  and  C5_17 
REMARK       I    between atoms: C5_17  and  N6_19 
REMARK    4  A    between atoms: N6_19  and  N7_21 
ROOT
HETATM    1  C1  UNL     1      -1.171   7.707  11.247  1.00  0.00     0.128 A 
HETATM    2  C2  UNL     1      -1.603   7.226  12.501  1.00  0.00     0.086 A 
HETATM    3  C3  UNL     1      -1.553   8.305  13.336  1.00  0.00     0.121 A 
HETATM    4  N4  UNL     1      -1.132   9.363  12.673  1.00  0.00    -0.283 N 
ATOM      5  H4  UNL     1      -1.006  10.296  13.067  1.00  0.00     0.188 HD
HETATM    6  N5  UNL     1      -0.896   9.022  11.407  1.00  0.00    -0.188 N 
HETATM    7  C5  UNL     1      -0.427   9.940  10.426  1.00  0.00     0.361 C 
HETATM    8  O2  UNL     1      -0.233   9.529   9.259  1.00  0.00    -0.243 OA
HETATM    9  N6  UNL     1      -0.180  11.295  10.737  1.00  0.00    -0.256 N 
ATOM     10  H6  UNL     1      -0.339  11.631  11.687  1.00  0.00     0.191 HD
ENDROOT
BRANCH   3  11
HETATM   11  C4  UNL     1      -1.909   8.312  14.757  1.00  0.00     0.287 C 
HETATM   12  O1  UNL     1      -2.263   9.372  15.340  1.00  0.00    -0.264 OA
HETATM   13  N2  UNL     1      -1.861   7.114  15.509  1.00  0.00    -0.271 N 
ATOM     14  H2  UNL     1      -1.578   6.239  15.068  1.00  0.00     0.189 HD
BRANCH  13  15
HETATM   15  N3  UNL     1      -2.203   7.143  16.849  1.00  0.00    -0.342 N 
ATOM     16  H32 UNL     1      -2.885   7.826  17.178  1.00  0.00     0.176 HD
ATOM     17  H31 UNL     1      -1.766   6.479  17.490  1.00  0.00     0.176 HD
ENDBRANCH  13  15
ENDBRANCH   3  11
BRANCH   1  18
HETATM   18  N1  UNL     1      -1.088   6.978  10.220  1.00  0.00    -0.384 N 
ATOM     19  H12 UNL     1      -1.728   6.267   9.865  1.00  0.00     0.157 HD
ATOM     20  H11 UNL     1      -0.302   7.017   9.571  1.00  0.00     0.157 HD
ENDBRANCH   1  18
BRANCH   9  21
HETATM   21  N7  UNL     1       0.280  12.182   9.759  1.00  0.00    -0.341 N 
ATOM     22  H72 UNL     1       1.245  12.101   9.441  1.00  0.00     0.177 HD
ATOM     23  H71 UNL     1      -0.336  12.897   9.371  1.00  0.00     0.177 HD
ENDBRANCH   9  21
TORSDOF 4
ENDMDL
MODEL 2
REMARK VINA RESULT: -6.650628171      1.061      1.061
REMARK  4 active torsions:
REMARK  status: ('A' for Active; 'I' for Inactive)
REMARK    1  A    between atoms: N1_1  and  C1_4 
REMARK    2  A    between atoms: C3_6  and  C4_7 
REMARK       I    between atoms: C4_7  and  N2_9 
REMARK    3  A    between atoms: N2_9  and  N3_11 
REMARK       I    between atoms: N5_16  and  C5_17 
REMARK       I    between atoms: C5_17  and  N6_19 
REMARK    4  A    between atoms: N6_19  and  N7_21 
ROOT
HETATM    1  C1  UNL     1      -1.023   7.557  10.771  1.00  0.00     0.128 A 
HETATM    2  C2  UNL     1      -1.265   6.868  11.978  1.00  0.00     0.086 A 
HETATM    3  C3  UNL     1      -1.069   7.791  12.964  1.00  0.00     0.121 A 
HETATM    4  N4  UNL     1      -0.738   8.950  12.432  1.00  0.00    -0.283 N 
ATOM      5  H4  UNL     1      -0.538   9.804  12.953  1.00  0.00     0.188 HD
HETATM    6  N5  UNL     1      -0.705   8.829  11.105  1.00  0.00    -0.188 N 
HETATM    7  C5  UNL     1      -0.378   9.903  10.231  1.00  0.00     0.361 C 
HETATM    8  O2  UNL     1      -0.371   9.696   8.997  1.00  0.00    -0.243 OA
HETATM    9  N6  UNL     1      -0.063  11.189  10.724  1.00  0.00    -0.256 N 
ATOM     10  H6  UNL     1      -0.068  11.359  11.730  1.00  0.00     0.191 HD
ENDROOT
BRANCH   3  11
HETATM   11  C4  UNL     1      -1.203   7.555  14.404  1.00  0.00     0.287 C 
HETATM   12  O1  UNL     1      -0.360   6.862  15.035  1.00  0.00    -0.264 OA
HETATM   13  N2  UNL     1      -2.292   8.106  15.120  1.00  0.00    -0.271 N 
ATOM     14  H2  UNL     1      -2.991   8.671  14.639  1.00  0.00     0.189 HD
BRANCH  13  15
HETATM   15  N3  UNL     1      -2.397   7.871  16.479  1.00  0.00    -0.342 N 
ATOM     16  H32 UNL     1      -2.538   6.918  16.812  1.00  0.00     0.176 HD
ATOM     17  H31 UNL     1      -2.332   8.656  17.127  1.00  0.00     0.176 HD
ENDBRANCH  13  15
ENDBRANCH   3  11
BRANCH   1  18
HETATM   18  N1  UNL     1      -1.111   7.012   9.636  1.00  0.00    -0.384 N 
ATOM     19  H12 UNL     1      -1.852   6.434   9.240  1.00  0.00     0.157 HD
ATOM     20  H11 UNL     1      -0.387   7.092   8.922  1.00  0.00     0.157 HD
ENDBRANCH   1  18
BRANCH   9  21
HETATM   21  N7  UNL     1       0.255  12.233   9.850  1.00  0.00    -0.341 N 
ATOM     22  H72 UNL     1       0.069  12.110   8.855  1.00  0.00     0.177 HD
ATOM     23  H71 UNL     1       0.665  13.100  10.197  1.00  0.00     0.177 HD
ENDBRANCH   9  21
TORSDOF 4
ENDMDL
MODEL 3
REMARK VINA RESULT: -6.606359746      3.202      5.631
REMARK  4 active torsions:
REMARK  status: ('A' for Active; 'I' for Inactive)
REMARK    1  A    between atoms: N1_1  and  C1_4 
REMARK    2  A    between atoms: C3_6  and  C4_7 
REMARK       I    between atoms: C4_7  and  N2_9 
REMARK    3  A    between atoms: N2_9  and  N3_11 
REMARK       I    between atoms: N5_16  and  C5_17 
REMARK       I    between atoms: C5_17  and  N6_19 
REMARK    4  A    between atoms: N6_19  and  N7_21 
ROOT
HETATM    1  C1  UNL     1       0.445   7.622  10.981  1.00  0.00     0.128 A 
HETATM    2  C2  UNL     1       0.919   6.390  10.485  1.00  0.00     0.086 A 
HETATM    3  C3  UNL     1       0.396   6.283   9.228  1.00  0.00     0.121 A 
HETATM    4  N4  UNL     1      -0.336   7.345   8.958  1.00  0.00    -0.283 N 
ATOM      5  H4  UNL     1      -0.837   7.510   8.085  1.00  0.00     0.188 HD
HETATM    6  N5  UNL     1      -0.319   8.168  10.006  1.00  0.00    -0.188 N 
HETATM    7  C5  UNL     1      -1.015   9.408  10.036  1.00  0.00     0.361 C 
HETATM    8  O2  UNL     1      -0.941  10.117  11.065  1.00  0.00    -0.243 OA
HETATM    9  N6  UNL     1      -1.781   9.855   8.936  1.00  0.00    -0.256 N 
ATOM     10  H6  UNL     1      -1.841   9.279   8.096  1.00  0.00     0.191 HD
ENDROOT
BRANCH   3  11
HETATM   11  C4  UNL     1       0.602   5.168   8.301  1.00  0.00     0.287 C 
HETATM   12  O1  UNL     1       1.143   4.093   8.679  1.00  0.00    -0.264 OA
HETATM   13  N2  UNL     1       0.193   5.277   6.951  1.00  0.00    -0.271 N 
ATOM     14  H2  UNL     1      -0.246   6.133   6.614  1.00  0.00     0.189 HD
BRANCH  13  15
HETATM   15  N3  UNL     1       0.397   4.211   6.094  1.00  0.00    -0.342 N 
ATOM     16  H32 UNL     1       0.893   3.386   6.430  1.00  0.00     0.176 HD
ATOM     17  H31 UNL     1       0.047   4.266   5.137  1.00  0.00     0.176 HD
ENDBRANCH  13  15
ENDBRANCH   3  11
BRANCH   1  18
HETATM   18  N1  UNL     1       0.730   8.059  12.130  1.00  0.00    -0.384 N 
ATOM     19  H12 UNL     1       1.454   7.763  12.785  1.00  0.00     0.157 HD
ATOM     20  H11 UNL     1       0.225   8.824  12.577  1.00  0.00     0.157 HD
ENDBRANCH   1  18
BRANCH   9  21
HETATM   21  N7  UNL     1      -2.457  11.077   8.983  1.00  0.00    -0.341 N 
ATOM     22  H72 UNL     1      -3.285  11.154   9.572  1.00  0.00     0.177 HD
ATOM     23  H71 UNL     1      -2.130  11.877   8.442  1.00  0.00     0.177 HD
ENDBRANCH   9  21
TORSDOF 4
ENDMDL
MODEL 4
REMARK VINA RESULT: -6.533212208      3.431      5.425
REMARK  4 active torsions:
REMARK  status: ('A' for Active; 'I' for Inactive)
REMARK    1  A    between atoms: N1_1  and  C1_4 
REMARK    2  A    between atoms: C3_6  and  C4_7 
REMARK       I    between atoms: C4_7  and  N2_9 
REMARK    3  A    between atoms: N2_9  and  N3_11 
REMARK       I    between atoms: N5_16  and  C5_17 
REMARK       I    between atoms: C5_17  and  N6_19 
REMARK    4  A    between atoms: N6_19  and  N7_21 
ROOT
HETATM    1  C1  UNL     1       1.043   5.827  10.444  1.00  0.00     0.128 A 
HETATM    2  C2  UNL     1       0.819   7.075  11.061  1.00  0.00     0.086 A 
HETATM    3  C3  UNL     1       0.263   7.860  10.092  1.00  0.00     0.121 A 
HETATM    4  N4  UNL     1       0.147   7.174   8.973  1.00  0.00    -0.283 N 
ATOM      5  H4  UNL     1      -0.238   7.531   8.099  1.00  0.00     0.188 HD
HETATM    6  N5  UNL     1       0.614   5.941   9.166  1.00  0.00    -0.188 N 
HETATM    7  C5  UNL     1       0.632   4.946   8.148  1.00  0.00     0.361 C 
HETATM    8  O2  UNL     1       1.090   3.813   8.420  1.00  0.00    -0.243 OA
HETATM    9  N6  UNL     1       0.147   5.207   6.847  1.00  0.00    -0.256 N 
ATOM     10  H6  UNL     1      -0.227   6.130   6.625  1.00  0.00     0.191 HD
ENDROOT
BRANCH   3  11
HETATM   11  C4  UNL     1      -0.151   9.257  10.248  1.00  0.00     0.287 C 
HETATM   12  O1  UNL     1      -0.026  10.087   9.308  1.00  0.00    -0.264 OA
HETATM   13  N2  UNL     1      -0.705   9.704  11.472  1.00  0.00    -0.271 N 
ATOM     14  H2  UNL     1      -0.818   9.059  12.252  1.00  0.00     0.189 HD
BRANCH  13  15
HETATM   15  N3  UNL     1      -1.090  11.027  11.596  1.00  0.00    -0.342 N 
ATOM     16  H32 UNL     1      -0.377  11.756  11.616  1.00  0.00     0.176 HD
ATOM     17  H31 UNL     1      -2.082  11.254  11.667  1.00  0.00     0.176 HD
ENDBRANCH  13  15
ENDBRANCH   3  11
BRANCH   1  18
HETATM   18  N1  UNL     1       1.553   4.842  11.046  1.00  0.00    -0.384 N 
ATOM     19  H12 UNL     1       1.694   4.681  12.043  1.00  0.00     0.157 HD
ATOM     20  H11 UNL     1       1.916   4.020  10.562  1.00  0.00     0.157 HD
ENDBRANCH   1  18
BRANCH   9  21
HETATM   21  N7  UNL     1       0.173   4.218   5.861  1.00  0.00    -0.341 N 
ATOM     22  H72 UNL     1       0.041   4.494   4.889  1.00  0.00     0.177 HD
ATOM     23  H71 UNL     1       0.321   3.239   6.106  1.00  0.00     0.177 HD
ENDBRANCH   9  21
TORSDOF 4
ENDMDL
MODEL 5
REMARK VINA RESULT: -6.468747357      1.604      5.304
REMARK  4 active torsions:
REMARK  status: ('A' for Active; 'I' for Inactive)
REMARK    1  A    between atoms: N1_1  and  C1_4 
REMARK    2  A    between atoms: C3_6  and  C4_7 
REMARK       I    between atoms: C4_7  and  N2_9 
REMARK    3  A    between atoms: N2_9  and  N3_11 
REMARK       I    between atoms: N5_16  and  C5_17 
REMARK       I    between atoms: C5_17  and  N6_19 
REMARK    4  A    between atoms: N6_19  and  N7_21 
ROOT
HETATM    1  C1  UNL     1       0.099   7.585  11.805  1.00  0.00     0.128 A 
HETATM    2  C2  UNL     1       0.314   8.147  10.529  1.00  0.00     0.086 A 
HETATM    3  C3  UNL     1      -0.328   9.352  10.555  1.00  0.00     0.121 A 
HETATM    4  N4  UNL     1      -0.893   9.532  11.731  1.00  0.00    -0.283 N 
ATOM      5  H4  UNL     1      -1.434  10.352  12.008  1.00  0.00     0.188 HD
HETATM    6  N5  UNL     1      -0.646   8.474  12.503  1.00  0.00    -0.188 N 
HETATM    7  C5  UNL     1      -1.119   8.355  13.839  1.00  0.00     0.361 C 
HETATM    8  O2  UNL     1      -0.837   7.322  14.489  1.00  0.00    -0.243 OA
HETATM    9  N6  UNL     1      -1.893   9.370  14.444  1.00  0.00    -0.256 N 
ATOM     10  H6  UNL     1      -2.122  10.211  13.916  1.00  0.00     0.191 HD
ENDROOT
BRANCH   3  11
HETATM   11  C4  UNL     1      -0.393  10.316   9.454  1.00  0.00     0.287 C 
HETATM   12  O1  UNL     1      -0.450   9.937   8.253  1.00  0.00    -0.264 OA
HETATM   13  N2  UNL     1      -0.395  11.706   9.721  1.00  0.00    -0.271 N 
ATOM     14  H2  UNL     1      -0.349  12.045  10.682  1.00  0.00     0.189 HD
BRANCH  13  15
HETATM   15  N3  UNL     1      -0.458  12.598   8.667  1.00  0.00    -0.342 N 
ATOM     16  H32 UNL     1      -0.511  12.242   7.712  1.00  0.00     0.176 HD
ATOM     17  H31 UNL     1      -0.451  13.600   8.859  1.00  0.00     0.176 HD
ENDBRANCH  13  15
ENDBRANCH   3  11
BRANCH   1  18
HETATM   18  N1  UNL     1       0.553   6.458  12.147  1.00  0.00    -0.384 N 
ATOM     19  H12 UNL     1       1.302   6.221  12.797  1.00  0.00     0.157 HD
ATOM     20  H11 UNL     1       0.191   5.577  11.781  1.00  0.00     0.157 HD
ENDBRANCH   1  18
BRANCH   9  21
HETATM   21  N7  UNL     1      -2.348   9.235  15.759  1.00  0.00    -0.341 N 
ATOM     22  H72 UNL     1      -1.923   8.524  16.352  1.00  0.00     0.177 HD
ATOM     23  H71 UNL     1      -3.090   9.835  16.119  1.00  0.00     0.177 HD
ENDBRANCH   9  21
TORSDOF 4
ENDMDL
