MODEL 1
REMARK VINA RESULT: -7.143715081      0.000      0.000
REMARK  4 active torsions:
REMARK  status: ('A' for Active; 'I' for Inactive)
REMARK    1  A    between atoms: N1_1  and  C1_4 
REMARK    2  A    between atoms: C2_7  and  C3_8 
REMARK       I    between atoms: C3_8  and  N3_10 
REMARK    3  A    between atoms: N3_10  and  N4_12 
REMARK    4  A    between atoms: C5_21  and  N7_22 
ROOT
HETATM    1  C1  UNL     1      -2.218   9.948   8.774  1.00  0.00     0.145 C 
HETATM    2  N2  UNL     1      -2.170   9.371  10.005  1.00  0.00    -0.321 N 
ATOM      3  H2  UNL     1      -2.848   8.626  10.167  1.00  0.00     0.169 HD
HETATM    4  C2  UNL     1      -1.355   9.646  11.040  1.00  0.00     0.181 C 
HETATM    5  N5  UNL     1      -0.457  10.644  11.084  1.00  0.00    -0.290 N 
ATOM      6  H5  UNL     1      -0.075  10.835  12.011  1.00  0.00     0.172 HD
HETATM    7  C4  UNL     1       0.025  11.441  10.094  1.00  0.00     0.327 C 
HETATM    8  O2  UNL     1       1.042  12.142  10.328  1.00  0.00    -0.247 OA
HETATM    9  N6  UNL     1      -0.449  11.596   8.845  1.00  0.00    -0.292 N 
ATOM     10  H6  UNL     1      -0.066  12.386   8.327  1.00  0.00     0.172 HD
HETATM   11  C5  UNL     1      -1.364  10.851   8.177  1.00  0.00     0.147 C 
ENDROOT
BRANCH   4  12
HETATM   12  C3  UNL     1      -1.456   8.786  12.219  1.00  0.00     0.303 C 
HETATM   13  O1  UNL     1      -2.479   8.064  12.333  1.00  0.00    -0.263 OA
HETATM   14  N3  UNL     1      -0.459   8.739  13.218  1.00  0.00    -0.270 N 
ATOM     15  H3  UNL     1       0.372   9.324  13.130  1.00  0.00     0.189 HD
BRANCH  14  16
HETATM   16  N4  UNL     1      -0.600   7.904  14.322  1.00  0.00    -0.342 N 
ATOM     17  H42 UNL     1      -1.399   8.042  14.941  1.00  0.00     0.176 HD
ATOM     18  H41 UNL     1       0.083   7.170  14.509  1.00  0.00     0.176 HD
ENDBRANCH  14  16
ENDBRANCH   4  12
BRANCH   1  19
HETATM   19  N1  UNL     1      -3.212   9.605   8.038  1.00  0.00    -0.382 N 
ATOM     20  H12 UNL     1      -3.525   8.646   8.184  1.00  0.00     0.157 HD
ATOM     21  H11 UNL     1      -3.563  10.325   7.407  1.00  0.00     0.157 HD
ENDBRANCH   1  19
BRANCH  11  22
HETATM   22  N7  UNL     1      -1.430  11.007   6.901  1.00  0.00    -0.382 N 
ATOM     23  H72 UNL     1      -1.811  10.234   6.356  1.00  0.00     0.157 HD
ATOM     24  H71 UNL     1      -1.102  11.886   6.500  1.00  0.00     0.157 HD
ENDBRANCH  11  22
TORSDOF 4
ENDMDL
MODEL 2
REMARK VINA RESULT: -6.611600873      1.776      2.683
REMARK  4 active torsions:
REMARK  status: ('A' for Active; 'I' for Inactive)
REMARK    1  A    between atoms: N1_1  and  C1_4 
REMARK    2  A    between atoms: C2_7  and  C3_8 
REMARK       I    between atoms: C3_8  and  N3_10 
REMARK    3  A    between atoms: N3_10  and  N4_12 
REMARK    4  A    between atoms: C5_21  and  N7_22 
ROOT
HETATM    1  C1  UNL     1      -0.211  11.059  10.138  1.00  0.00     0.145 C 
HETATM    2  N2  UNL     1      -0.449  10.140  11.113  1.00  0.00    -0.321 N 
ATOM      3  H2  UNL     1       0.216  10.137  11.885  1.00  0.00     0.169 HD
HETATM    4  C2  UNL     1      -1.440   9.234  11.200  1.00  0.00     0.181 C 
HETATM    5  N5  UNL     1      -2.367   8.996  10.258  1.00  0.00    -0.290 N 
ATOM      6  H5  UNL     1      -2.910   8.143  10.398  1.00  0.00     0.172 HD
HETATM    7  C4  UNL     1      -2.700   9.708   9.148  1.00  0.00     0.327 C 
HETATM    8  O2  UNL     1      -3.767   9.421   8.548  1.00  0.00    -0.247 OA
HETATM    9  N6  UNL     1      -2.024  10.718   8.574  1.00  0.00    -0.292 N 
ATOM     10  H6  UNL     1      -2.340  10.981   7.641  1.00  0.00     0.172 HD
HETATM   11  C5  UNL     1      -0.981  11.437   9.059  1.00  0.00     0.147 C 
ENDROOT
BRANCH   4  12
HETATM   12  C3  UNL     1      -1.513   8.437  12.425  1.00  0.00     0.303 C 
HETATM   13  O1  UNL     1      -2.537   7.728  12.603  1.00  0.00    -0.263 OA
HETATM   14  N3  UNL     1      -0.492   8.438  13.401  1.00  0.00    -0.270 N 
ATOM     15  H3  UNL     1       0.339   9.013  13.260  1.00  0.00     0.189 HD
BRANCH  14  16
HETATM   16  N4  UNL     1      -0.608   7.664  14.550  1.00  0.00    -0.342 N 
ATOM     17  H42 UNL     1      -0.403   8.093  15.453  1.00  0.00     0.176 HD
ATOM     18  H41 UNL     1      -0.893   6.686  14.492  1.00  0.00     0.176 HD
ENDBRANCH  14  16
ENDBRANCH   4  12
BRANCH   1  19
HETATM   19  N1  UNL     1       0.907  11.683  10.226  1.00  0.00    -0.382 N 
ATOM     20  H12 UNL     1       1.503  11.362  10.988  1.00  0.00     0.157 HD
ATOM     21  H11 UNL     1       1.060  12.414   9.531  1.00  0.00     0.157 HD
ENDBRANCH   1  19
BRANCH  11  22
HETATM   22  N7  UNL     1      -0.702  12.542   8.462  1.00  0.00    -0.382 N 
ATOM     23  H72 UNL     1       0.237  12.919   8.595  1.00  0.00     0.157 HD
ATOM     24  H71 UNL     1      -1.423  12.983   7.892  1.00  0.00     0.157 HD
ENDBRANCH  11  22
TORSDOF 4
ENDMDL
MODEL 3
REMARK VINA RESULT: -6.363370821      3.006      5.331
REMARK  4 active torsions:
REMARK  status: ('A' for Active; 'I' for Inactive)
REMARK    1  A    between atoms: N1_1  and  C1_4 
REMARK    2  A    between atoms: C2_7  and  C3_8 
REMARK       I    between atoms: C3_8  and  N3_10 
REMARK    3  A    between atoms: N3_10  and  N4_12 
REMARK    4  A    between atoms: C5_21  and  N7_22 
ROOT
HETATM    1  C1  UNL     1       0.269   7.877  11.821  1.00  0.00     0.145 C 
HETATM    2  N2  UNL     1      -0.043   8.891  10.969  1.00  0.00    -0.321 N 
ATOM      3  H2  UNL     1      -0.272   9.781  11.412  1.00  0.00     0.169 HD
HETATM    4  C2  UNL     1      -0.092   8.885   9.625  1.00  0.00     0.181 C 
HETATM    5  N5  UNL     1       0.078   7.808   8.841  1.00  0.00    -0.290 N 
ATOM      6  H5  UNL     1      -0.195   7.940   7.867  1.00  0.00     0.172 HD
HETATM    7  C4  UNL     1       0.555   6.569   9.136  1.00  0.00     0.327 C 
HETATM    8  O2  UNL     1       0.855   5.800   8.189  1.00  0.00    -0.247 OA
HETATM    9  N6  UNL     1       0.761   6.023  10.347  1.00  0.00    -0.292 N 
ATOM     10  H6  UNL     1       0.932   5.018  10.351  1.00  0.00     0.172 HD
HETATM   11  C5  UNL     1       0.772   6.619  11.566  1.00  0.00     0.147 C 
ENDROOT
BRANCH   4  12
HETATM   12  C3  UNL     1      -0.355  10.161   8.958  1.00  0.00     0.303 C 
HETATM   13  O1  UNL     1      -0.759  10.128   7.768  1.00  0.00    -0.263 OA
HETATM   14  N3  UNL     1      -0.171  11.408   9.594  1.00  0.00    -0.270 N 
ATOM     15  H3  UNL     1       0.158  11.439  10.559  1.00  0.00     0.189 HD
BRANCH  14  16
HETATM   16  N4  UNL     1      -0.433  12.595   8.918  1.00  0.00    -0.342 N 
ATOM     17  H42 UNL     1       0.349  13.202   8.672  1.00  0.00     0.176 HD
ATOM     18  H41 UNL     1      -1.389  12.853   8.673  1.00  0.00     0.176 HD
ENDBRANCH  14  16
ENDBRANCH   4  12
BRANCH   1  19
HETATM   19  N1  UNL     1       0.070   8.117  13.066  1.00  0.00    -0.382 N 
ATOM     20  H12 UNL     1      -0.769   7.678  13.443  1.00  0.00     0.157 HD
ATOM     21  H11 UNL     1       0.768   8.707  13.519  1.00  0.00     0.157 HD
ENDBRANCH   1  19
BRANCH  11  22
HETATM   22  N7  UNL     1       1.289   5.955  12.539  1.00  0.00    -0.382 N 
ATOM     23  H72 UNL     1       1.351   6.425  13.442  1.00  0.00     0.157 HD
ATOM     24  H71 UNL     1       1.608   5.002  12.364  1.00  0.00     0.157 HD
ENDBRANCH  11  22
TORSDOF 4
ENDMDL
MODEL 4
REMARK VINA RESULT: -6.305669634      2.419      3.211
REMARK  4 active torsions:
REMARK  status: ('A' for Active; 'I' for Inactive)
REMARK    1  A    between atoms: N1_1  and  C1_4 
REMARK    2  A    between atoms: C2_7  and  C3_8 
REMARK       I    between atoms: C3_8  and  N3_10 
REMARK    3  A    between atoms: N3_10  and  N4_12 
REMARK    4  A    between atoms: C5_21  and  N7_22 
ROOT
HETATM    1  C1  UNL     1      -0.680  10.137  10.775  1.00  0.00     0.145 C 
HETATM    2  N2  UNL     1      -1.102   9.653  11.975  1.00  0.00    -0.321 N 
ATOM      3  H2  UNL     1      -1.209  10.347  12.714  1.00  0.00     0.169 HD
HETATM    4  C2  UNL     1      -1.397   8.387  12.322  1.00  0.00     0.181 C 
HETATM    5  N5  UNL     1      -1.238   7.305  11.543  1.00  0.00    -0.290 N 
ATOM      6  H5  UNL     1      -1.315   6.412  12.030  1.00  0.00     0.172 HD
HETATM    7  C4  UNL     1      -0.993   7.207  10.209  1.00  0.00     0.327 C 
HETATM    8  O2  UNL     1      -1.129   6.088   9.654  1.00  0.00    -0.247 OA
HETATM    9  N6  UNL     1      -0.607   8.176   9.361  1.00  0.00    -0.292 N 
ATOM     10  H6  UNL     1      -0.284   7.856   8.448  1.00  0.00     0.172 HD
HETATM   11  C5  UNL     1      -0.587   9.520   9.546  1.00  0.00     0.147 C 
ENDROOT
BRANCH   4  12
HETATM   12  C3  UNL     1      -1.936   8.169  13.665  1.00  0.00     0.303 C 
HETATM   13  O1  UNL     1      -2.442   7.046  13.919  1.00  0.00    -0.263 OA
HETATM   14  N3  UNL     1      -1.910   9.161  14.670  1.00  0.00    -0.270 N 
ATOM     15  H3  UNL     1      -1.501  10.074  14.468  1.00  0.00     0.189 HD
BRANCH  14  16
HETATM   16  N4  UNL     1      -2.436   8.906  15.932  1.00  0.00    -0.342 N 
ATOM     17  H42 UNL     1      -2.125   8.073  16.433  1.00  0.00     0.176 HD
ATOM     18  H41 UNL     1      -3.118   9.539  16.348  1.00  0.00     0.176 HD
ENDBRANCH  14  16
ENDBRANCH   4  12
BRANCH   1  19
HETATM   19  N1  UNL     1      -0.308  11.365  10.772  1.00  0.00    -0.382 N 
ATOM     20  H12 UNL     1      -0.256  11.785  11.699  1.00  0.00     0.157 HD
ATOM     21  H11 UNL     1      -0.112  11.765   9.854  1.00  0.00     0.157 HD
ENDBRANCH   1  19
BRANCH  11  22
HETATM   22  N7  UNL     1      -0.470  10.255   8.496  1.00  0.00    -0.382 N 
ATOM     23  H72 UNL     1       0.084  11.107   8.584  1.00  0.00     0.157 HD
ATOM     24  H71 UNL     1      -0.932   9.956   7.638  1.00  0.00     0.157 HD
ENDBRANCH  11  22
TORSDOF 4
ENDMDL
MODEL 5
REMARK VINA RESULT: -6.286439035      1.086      1.092
REMARK  4 active torsions:
REMARK  status: ('A' for Active; 'I' for Inactive)
REMARK    1  A    between atoms: N1_1  and  C1_4 
REMARK    2  A    between atoms: C2_7  and  C3_8 
REMARK       I    between atoms: C3_8  and  N3_10 
REMARK    3  A    between atoms: N3_10  and  N4_12 
REMARK    4  A    between atoms: C5_21  and  N7_22 
ROOT
HETATM    1  C1  UNL     1      -2.293   9.312   9.274  1.00  0.00     0.145 C 
HETATM    2  N2  UNL     1      -1.778   8.672  10.359  1.00  0.00    -0.321 N 
ATOM      3  H2  UNL     1      -2.243   7.802  10.615  1.00  0.00     0.169 HD
HETATM    4  C2  UNL     1      -0.742   9.026  11.140  1.00  0.00     0.181 C 
HETATM    5  N5  UNL     1      -0.048  10.172  11.046  1.00  0.00    -0.290 N 
ATOM      6  H5  UNL     1       0.563  10.369  11.840  1.00  0.00     0.172 HD
HETATM    7  C4  UNL     1      -0.027  11.113  10.065  1.00  0.00     0.327 C 
HETATM    8  O2  UNL     1       0.885  11.978  10.081  1.00  0.00    -0.247 OA
HETATM    9  N6  UNL     1      -0.878  11.260   9.035  1.00  0.00    -0.292 N 
ATOM     10  H6  UNL     1      -0.806  12.143   8.530  1.00  0.00     0.172 HD
HETATM   11  C5  UNL     1      -1.820  10.401   8.572  1.00  0.00     0.147 C 
ENDROOT
BRANCH   4  12
HETATM   12  C3  UNL     1      -0.336   8.083  12.183  1.00  0.00     0.303 C 
HETATM   13  O1  UNL     1       0.073   6.950  11.822  1.00  0.00    -0.263 OA
HETATM   14  N3  UNL     1      -0.389   8.396  13.559  1.00  0.00    -0.270 N 
ATOM     15  H3  UNL     1      -0.722   9.313  13.856  1.00  0.00     0.189 HD
BRANCH  14  16
HETATM   16  N4  UNL     1       0.008   7.465  14.514  1.00  0.00    -0.342 N 
ATOM     17  H42 UNL     1       0.938   7.550  14.923  1.00  0.00     0.176 HD
ATOM     18  H41 UNL     1      -0.619   6.712  14.798  1.00  0.00     0.176 HD
ENDBRANCH  14  16
ENDBRANCH   4  12
BRANCH   1  19
HETATM   19  N1  UNL     1      -3.395   8.836   8.819  1.00  0.00    -0.382 N 
ATOM     20  H12 UNL     1      -3.778   8.073   9.376  1.00  0.00     0.157 HD
ATOM     21  H11 UNL     1      -3.747   9.275   7.968  1.00  0.00     0.157 HD
ENDBRANCH   1  19
BRANCH  11  22
HETATM   22  N7  UNL     1      -2.297  10.629   7.398  1.00  0.00    -0.382 N 
ATOM     23  H72 UNL     1      -2.235   9.874   6.716  1.00  0.00     0.157 HD
ATOM     24  H71 UNL     1      -2.708  11.543   7.209  1.00  0.00     0.157 HD
ENDBRANCH  11  22
TORSDOF 4
ENDMDL
