MODEL 1
REMARK VINA RESULT: -6.591492754      0.000      0.000
REMARK  1 active torsions:
REMARK  status: ('A' for Active; 'I' for Inactive)
REMARK       I    between atoms: N1_5  and  C4_6 
REMARK       I    between atoms: C4_6  and  N2_7 
REMARK       I    between atoms: C4_6  and  N3_11 
REMARK    1  A    between atoms: N3_11  and  N4_12 
ROOT
HETATM    1  C1  UNL     1      31.026  22.431  39.722  1.00  0.00     0.081 C 
HETATM    2  C2  UNL     1      31.187  23.544  38.704  1.00  0.00     0.196 C 
HETATM    3  C3  UNL     1      30.380  23.141  37.483  1.00  0.00     0.081 C 
HETATM    4  O1  UNL     1      32.519  23.716  38.339  1.00  0.00    -0.234 OA
HETATM    5  N1  UNL     1      32.858  24.994  38.141  1.00  0.00     0.001 NA
HETATM    6  C4  UNL     1      33.943  25.156  37.195  1.00  0.00     0.425 C 
HETATM    7  N2  UNL     1      33.546  24.605  35.932  1.00  0.00    -0.043 N 
ATOM      8  H21 UNL     1      34.310  24.720  35.266  1.00  0.00     0.278 HD
ATOM      9  H22 UNL     1      32.671  25.004  35.591  1.00  0.00     0.278 HD
ATOM     10  H23 UNL     1      33.239  23.636  36.010  1.00  0.00     0.278 HD
HETATM   11  N3  UNL     1      34.150  26.583  37.024  1.00  0.00    -0.095 NA
HETATM   12  O2  UNL     1      33.230  25.490  39.369  1.00  0.00    -0.146 OA
HETATM   13  S1  UNL     1      31.812  25.332  40.335  1.00  0.00     0.328 S 
HETATM   14  O3  UNL     1      32.108  24.269  41.384  1.00  0.00    -0.195 OA
HETATM   15  O4  UNL     1      30.628  24.686  39.262  1.00  0.00    -0.232 OA
ENDROOT
BRANCH  11  16
HETATM   16  N4  UNL     1      33.036  27.233  36.546  1.00  0.00    -0.345 N 
ATOM     17  H42 UNL     1      32.176  26.743  36.299  1.00  0.00     0.172 HD
ATOM     18  H41 UNL     1      33.165  28.242  36.468  1.00  0.00     0.172 HD
ENDBRANCH  11  16
TORSDOF 1
ENDMDL
MODEL 2
REMARK VINA RESULT: -6.144855188      1.923      2.864
REMARK  1 active torsions:
REMARK  status: ('A' for Active; 'I' for Inactive)
REMARK       I    between atoms: N1_5  and  C4_6 
REMARK       I    between atoms: C4_6  and  N2_7 
REMARK       I    between atoms: C4_6  and  N3_11 
REMARK    1  A    between atoms: N3_11  and  N4_12 
ROOT
HETATM    1  C1  UNL     1      30.668  25.070  40.225  1.00  0.00     0.081 C 
HETATM    2  C2  UNL     1      32.008  24.689  39.625  1.00  0.00     0.196 C 
HETATM    3  C3  UNL     1      33.068  25.077  40.639  1.00  0.00     0.081 C 
HETATM    4  O1  UNL     1      32.245  25.361  38.430  1.00  0.00    -0.234 OA
HETATM    5  N1  UNL     1      32.876  24.620  37.515  1.00  0.00     0.001 NA
HETATM    6  C4  UNL     1      33.671  25.405  36.593  1.00  0.00     0.425 C 
HETATM    7  N2  UNL     1      34.664  26.128  37.334  1.00  0.00    -0.043 N 
ATOM      8  H21 UNL     1      35.223  26.680  36.685  1.00  0.00     0.278 HD
ATOM      9  H22 UNL     1      35.235  25.517  37.918  1.00  0.00     0.278 HD
ATOM     10  H23 UNL     1      34.257  26.695  38.078  1.00  0.00     0.278 HD
HETATM   11  N3  UNL     1      34.351  24.470  35.714  1.00  0.00    -0.095 NA
HETATM   12  O2  UNL     1      31.898  23.940  36.827  1.00  0.00    -0.146 OA
HETATM   13  S1  UNL     1      31.126  22.977  38.031  1.00  0.00     0.328 S 
HETATM   14  O3  UNL     1      29.721  23.536  38.210  1.00  0.00    -0.195 OA
HETATM   15  O4  UNL     1      32.005  23.308  39.476  1.00  0.00    -0.232 OA
ENDROOT
BRANCH  11  16
HETATM   16  N4  UNL     1      35.175  23.600  36.390  1.00  0.00    -0.345 N 
ATOM     17  H42 UNL     1      35.056  22.588  36.352  1.00  0.00     0.172 HD
ATOM     18  H41 UNL     1      35.905  24.075  36.922  1.00  0.00     0.172 HD
ENDBRANCH  11  16
TORSDOF 1
ENDMDL
MODEL 3
REMARK VINA RESULT: -5.925909778      2.273      3.185
REMARK  1 active torsions:
REMARK  status: ('A' for Active; 'I' for Inactive)
REMARK       I    between atoms: N1_5  and  C4_6 
REMARK       I    between atoms: C4_6  and  N2_7 
REMARK       I    between atoms: C4_6  and  N3_11 
REMARK    1  A    between atoms: N3_11  and  N4_12 
ROOT
HETATM    1  C1  UNL     1      29.627  25.053  41.014  1.00  0.00     0.081 C 
HETATM    2  C2  UNL     1      31.106  24.765  40.839  1.00  0.00     0.196 C 
HETATM    3  C3  UNL     1      31.849  25.721  41.752  1.00  0.00     0.081 C 
HETATM    4  O1  UNL     1      31.516  24.970  39.525  1.00  0.00    -0.234 OA
HETATM    5  N1  UNL     1      32.430  24.089  39.106  1.00  0.00     0.001 NA
HETATM    6  C4  UNL     1      33.302  24.617  38.077  1.00  0.00     0.425 C 
HETATM    7  N2  UNL     1      33.998  25.758  38.598  1.00  0.00    -0.043 N 
ATOM      8  H21 UNL     1      34.612  26.129  37.873  1.00  0.00     0.278 HD
ATOM      9  H22 UNL     1      34.498  25.549  39.462  1.00  0.00     0.278 HD
ATOM     10  H23 UNL     1      33.363  26.464  38.969  1.00  0.00     0.278 HD
HETATM   11  N3  UNL     1      34.280  23.586  37.778  1.00  0.00    -0.095 NA
HETATM   12  O2  UNL     1      31.730  23.010  38.618  1.00  0.00    -0.146 OA
HETATM   13  S1  UNL     1      30.840  22.433  39.976  1.00  0.00     0.328 S 
HETATM   14  O3  UNL     1      29.370  22.709  39.690  1.00  0.00    -0.195 OA
HETATM   15  O4  UNL     1      31.318  23.463  41.273  1.00  0.00    -0.232 OA
ENDROOT
BRANCH  11  16
HETATM   16  N4  UNL     1      35.037  23.231  38.870  1.00  0.00    -0.345 N 
ATOM     17  H42 UNL     1      34.863  23.601  39.804  1.00  0.00     0.172 HD
ATOM     18  H41 UNL     1      35.777  22.567  38.642  1.00  0.00     0.172 HD
ENDBRANCH  11  16
TORSDOF 1
ENDMDL
MODEL 4
REMARK VINA RESULT: -5.839285545      2.257      3.210
REMARK  1 active torsions:
REMARK  status: ('A' for Active; 'I' for Inactive)
REMARK       I    between atoms: N1_5  and  C4_6 
REMARK       I    between atoms: C4_6  and  N2_7 
REMARK       I    between atoms: C4_6  and  N3_11 
REMARK    1  A    between atoms: N3_11  and  N4_12 
ROOT
HETATM    1  C1  UNL     1      29.241  24.276  40.266  1.00  0.00     0.081 C 
HETATM    2  C2  UNL     1      30.655  23.735  40.186  1.00  0.00     0.196 C 
HETATM    3  C3  UNL     1      31.112  23.487  41.611  1.00  0.00     0.081 C 
HETATM    4  O1  UNL     1      31.518  24.643  39.577  1.00  0.00    -0.234 OA
HETATM    5  N1  UNL     1      32.438  24.067  38.798  1.00  0.00     0.001 NA
HETATM    6  C4  UNL     1      33.659  24.839  38.691  1.00  0.00     0.425 C 
HETATM    7  N2  UNL     1      34.225  24.997  40.000  1.00  0.00    -0.043 N 
ATOM      8  H21 UNL     1      35.085  25.541  39.924  1.00  0.00     0.278 HD
ATOM      9  H22 UNL     1      34.370  24.105  40.472  1.00  0.00     0.278 HD
ATOM     10  H23 UNL     1      33.565  25.403  40.662  1.00  0.00     0.278 HD
HETATM   11  N3  UNL     1      34.585  24.062  37.886  1.00  0.00    -0.095 NA
HETATM   12  O2  UNL     1      31.863  23.928  37.557  1.00  0.00    -0.146 OA
HETATM   13  S1  UNL     1      30.505  22.902  37.833  1.00  0.00     0.328 S 
HETATM   14  O3  UNL     1      29.259  23.750  37.614  1.00  0.00    -0.195 OA
HETATM   15  O4  UNL     1      30.586  22.523  39.512  1.00  0.00    -0.232 OA
ENDROOT
BRANCH  11  16
HETATM   16  N4  UNL     1      34.876  22.835  38.436  1.00  0.00    -0.345 N 
ATOM     17  H42 UNL     1      34.195  22.296  38.969  1.00  0.00     0.172 HD
ATOM     18  H41 UNL     1      35.833  22.533  38.252  1.00  0.00     0.172 HD
ENDBRANCH  11  16
TORSDOF 1
ENDMDL
MODEL 5
REMARK VINA RESULT: -5.831939058      7.761      9.117
REMARK  1 active torsions:
REMARK  status: ('A' for Active; 'I' for Inactive)
REMARK       I    between atoms: N1_5  and  C4_6 
REMARK       I    between atoms: C4_6  and  N2_7 
REMARK       I    between atoms: C4_6  and  N3_11 
REMARK    1  A    between atoms: N3_11  and  N4_12 
ROOT
HETATM    1  C1  UNL     1      28.470  27.731  43.154  1.00  0.00     0.081 C 
HETATM    2  C2  UNL     1      28.204  26.318  43.639  1.00  0.00     0.196 C 
HETATM    3  C3  UNL     1      27.960  25.470  42.404  1.00  0.00     0.081 C 
HETATM    4  O1  UNL     1      27.087  26.261  44.466  1.00  0.00    -0.234 OA
HETATM    5  N1  UNL     1      27.213  25.396  45.478  1.00  0.00     0.001 NA
HETATM    6  C4  UNL     1      25.947  24.855  45.927  1.00  0.00     0.425 C 
HETATM    7  N2  UNL     1      25.322  24.167  44.836  1.00  0.00    -0.043 N 
ATOM      8  H21 UNL     1      24.430  23.786  45.153  1.00  0.00     0.278 HD
ATOM      9  H22 UNL     1      25.926  23.454  44.428  1.00  0.00     0.278 HD
ATOM     10  H23 UNL     1      25.221  24.757  44.011  1.00  0.00     0.278 HD
HETATM   11  N3  UNL     1      26.244  23.885  46.967  1.00  0.00    -0.095 NA
HETATM   12  O2  UNL     1      27.818  26.086  46.502  1.00  0.00    -0.146 OA
HETATM   13  S1  UNL     1      29.342  26.560  45.852  1.00  0.00     0.328 S 
HETATM   14  O3  UNL     1      29.307  28.075  45.702  1.00  0.00    -0.195 OA
HETATM   15  O4  UNL     1      29.363  25.883  44.268  1.00  0.00    -0.232 OA
ENDROOT
BRANCH  11  16
HETATM   16  N4  UNL     1      27.043  22.854  46.527  1.00  0.00    -0.345 N 
ATOM     17  H42 UNL     1      27.881  23.009  45.967  1.00  0.00     0.172 HD
ATOM     18  H41 UNL     1      26.706  21.937  46.820  1.00  0.00     0.172 HD
ENDBRANCH  11  16
TORSDOF 1
ENDMDL
