MODEL 1
REMARK VINA RESULT: -7.105849038      0.000      0.000
REMARK  3 active torsions:
REMARK  status: ('A' for Active; 'I' for Inactive)
REMARK    1  A    between atoms: C2_5  and  N3_6 
REMARK    2  A    between atoms: N3_6  and  C3_8 
REMARK    3  A    between atoms: N4_14  and  N5_15 
ROOT
HETATM    1  N1  UNL     1      35.849  22.459  38.558  1.00  0.00    -0.079 NA
HETATM    2  C1  UNL     1      34.892  23.501  38.421  1.00  0.00     0.161 C 
HETATM    3  N2  UNL     1      34.325  23.961  39.552  1.00  0.00    -0.325 N 
ATOM      4  H2  UNL     1      34.688  23.580  40.426  1.00  0.00     0.169 HD
HETATM    5  C2  UNL     1      33.318  24.878  39.666  1.00  0.00     0.165 C 
HETATM    6  C4  UNL     1      32.951  25.881  38.793  1.00  0.00     0.285 C 
HETATM    7  O2  UNL     1      32.393  26.903  39.266  1.00  0.00    -0.278 OA
HETATM    8  C5  UNL     1      33.162  25.831  37.410  1.00  0.00     0.321 C 
HETATM    9  O3  UNL     1      32.540  26.732  36.795  1.00  0.00    -0.262 OA
HETATM   10  N4  UNL     1      33.909  24.986  36.688  1.00  0.00    -0.206 N 
HETATM   11  C6  UNL     1      34.635  23.946  37.118  1.00  0.00     0.182 C 
HETATM   12  N6  UNL     1      35.279  23.118  36.145  1.00  0.00    -0.077 NA
ENDROOT
BRANCH   5  13
HETATM   13  N3  UNL     1      32.611  24.801  40.734  1.00  0.00    -0.317 N 
ATOM     14  H3  UNL     1      32.842  25.419  41.512  1.00  0.00     0.169 HD
BRANCH  13  15
HETATM   15  C3  UNL     1      31.533  23.906  40.890  1.00  0.00     0.354 C 
HETATM   16  O1  UNL     1      31.383  23.002  40.008  1.00  0.00    -0.283 OA
ENDBRANCH  13  15
ENDBRANCH   5  13
BRANCH  10  17
HETATM   17  N5  UNL     1      33.947  25.197  35.315  1.00  0.00    -0.334 N 
ATOM     18  H52 UNL     1      33.454  26.032  34.996  1.00  0.00     0.177 HD
ATOM     19  H51 UNL     1      34.455  24.511  34.757  1.00  0.00     0.177 HD
ENDBRANCH  10  17
TORSDOF 3
ENDMDL
MODEL 2
REMARK VINA RESULT: -6.274942351      7.635      9.418
REMARK  3 active torsions:
REMARK  status: ('A' for Active; 'I' for Inactive)
REMARK    1  A    between atoms: C2_5  and  N3_6 
REMARK    2  A    between atoms: N3_6  and  C3_8 
REMARK    3  A    between atoms: N4_14  and  N5_15 
ROOT
HETATM    1  N1  UNL     1      26.821  27.161  43.615  1.00  0.00    -0.079 NA
HETATM    2  C1  UNL     1      27.607  26.196  44.304  1.00  0.00     0.161 C 
HETATM    3  N2  UNL     1      28.849  26.567  44.666  1.00  0.00    -0.325 N 
ATOM      4  H2  UNL     1      29.099  27.541  44.490  1.00  0.00     0.169 HD
HETATM    5  C2  UNL     1      29.815  25.791  45.243  1.00  0.00     0.165 C 
HETATM    6  C4  UNL     1      29.676  24.652  46.008  1.00  0.00     0.285 C 
HETATM    7  O2  UNL     1      30.571  24.392  46.851  1.00  0.00    -0.278 OA
HETATM    8  C5  UNL     1      28.596  23.768  45.905  1.00  0.00     0.321 C 
HETATM    9  O3  UNL     1      28.797  22.690  46.520  1.00  0.00    -0.262 OA
HETATM   10  N4  UNL     1      27.429  23.912  45.266  1.00  0.00    -0.206 N 
HETATM   11  C6  UNL     1      27.006  24.953  44.536  1.00  0.00     0.182 C 
HETATM   12  N6  UNL     1      25.749  24.843  43.861  1.00  0.00    -0.077 NA
ENDROOT
BRANCH   5  13
HETATM   13  N3  UNL     1      31.026  26.171  45.048  1.00  0.00    -0.317 N 
ATOM     14  H3  UNL     1      31.780  25.594  45.419  1.00  0.00     0.169 HD
BRANCH  13  15
HETATM   15  C3  UNL     1      31.368  27.346  44.347  1.00  0.00     0.354 C 
HETATM   16  O1  UNL     1      30.946  28.454  44.809  1.00  0.00    -0.283 OA
ENDBRANCH  13  15
ENDBRANCH   5  13
BRANCH  10  17
HETATM   17  N5  UNL     1      26.527  22.860  45.360  1.00  0.00    -0.334 N 
ATOM     18  H52 UNL     1      25.598  23.119  45.695  1.00  0.00     0.177 HD
ATOM     19  H51 UNL     1      26.866  21.936  45.092  1.00  0.00     0.177 HD
ENDBRANCH  10  17
TORSDOF 3
ENDMDL
MODEL 3
REMARK VINA RESULT: -6.206128519      2.570      4.485
REMARK  3 active torsions:
REMARK  status: ('A' for Active; 'I' for Inactive)
REMARK    1  A    between atoms: C2_5  and  N3_6 
REMARK    2  A    between atoms: N3_6  and  C3_8 
REMARK    3  A    between atoms: N4_14  and  N5_15 
ROOT
HETATM    1  N1  UNL     1      29.845  22.407  37.075  1.00  0.00    -0.079 NA
HETATM    2  C1  UNL     1      30.877  23.162  37.697  1.00  0.00     0.161 C 
HETATM    3  N2  UNL     1      31.663  23.901  36.893  1.00  0.00    -0.325 N 
ATOM      4  H2  UNL     1      31.403  23.925  35.906  1.00  0.00     0.169 HD
HETATM    5  C2  UNL     1      32.769  24.623  37.243  1.00  0.00     0.165 C 
HETATM    6  C4  UNL     1      33.101  25.171  38.464  1.00  0.00     0.285 C 
HETATM    7  O2  UNL     1      33.835  26.190  38.477  1.00  0.00    -0.278 OA
HETATM    8  C5  UNL     1      32.669  24.660  39.694  1.00  0.00     0.321 C 
HETATM    9  O3  UNL     1      33.282  25.166  40.667  1.00  0.00    -0.262 OA
HETATM   10  N4  UNL     1      31.730  23.743  39.958  1.00  0.00    -0.206 N 
HETATM   11  C6  UNL     1      30.971  23.059  39.091  1.00  0.00     0.182 C 
HETATM   12  N6  UNL     1      30.095  22.051  39.604  1.00  0.00    -0.077 NA
ENDROOT
BRANCH   5  13
HETATM   13  N3  UNL     1      33.623  24.824  36.306  1.00  0.00    -0.317 N 
ATOM     14  H3  UNL     1      33.406  25.523  35.596  1.00  0.00     0.169 HD
BRANCH  13  15
HETATM   15  C3  UNL     1      34.846  24.129  36.207  1.00  0.00     0.354 C 
HETATM   16  O1  UNL     1      34.853  22.897  36.524  1.00  0.00    -0.283 OA
ENDBRANCH  13  15
ENDBRANCH   5  13
BRANCH  10  17
HETATM   17  N5  UNL     1      31.499  23.448  41.296  1.00  0.00    -0.334 N 
ATOM     18  H52 UNL     1      32.269  23.676  41.925  1.00  0.00     0.177 HD
ATOM     19  H51 UNL     1      30.594  23.036  41.528  1.00  0.00     0.177 HD
ENDBRANCH  10  17
TORSDOF 3
ENDMDL
MODEL 4
REMARK VINA RESULT: -6.040003451      4.868      8.309
REMARK  3 active torsions:
REMARK  status: ('A' for Active; 'I' for Inactive)
REMARK    1  A    between atoms: C2_5  and  N3_6 
REMARK    2  A    between atoms: N3_6  and  C3_8 
REMARK    3  A    between atoms: N4_14  and  N5_15 
ROOT
HETATM    1  N1  UNL     1      30.928  28.237  44.647  1.00  0.00    -0.079 NA
HETATM    2  C1  UNL     1      30.404  26.920  44.536  1.00  0.00     0.161 C 
HETATM    3  N2  UNL     1      30.995  26.101  43.647  1.00  0.00    -0.325 N 
ATOM      4  H2  UNL     1      31.826  26.466  43.180  1.00  0.00     0.169 HD
HETATM    5  C2  UNL     1      30.612  24.837  43.295  1.00  0.00     0.165 C 
HETATM    6  C4  UNL     1      29.884  23.914  44.018  1.00  0.00     0.285 C 
HETATM    7  O2  UNL     1      30.072  22.695  43.781  1.00  0.00    -0.278 OA
HETATM    8  C5  UNL     1      28.948  24.254  45.001  1.00  0.00     0.321 C 
HETATM    9  O3  UNL     1      28.242  23.276  45.352  1.00  0.00    -0.262 OA
HETATM   10  N4  UNL     1      28.717  25.433  45.592  1.00  0.00    -0.206 N 
HETATM   11  C6  UNL     1      29.322  26.607  45.368  1.00  0.00     0.182 C 
HETATM   12  N6  UNL     1      28.837  27.763  46.057  1.00  0.00    -0.077 NA
ENDROOT
BRANCH   5  13
HETATM   13  N3  UNL     1      30.978  24.447  42.128  1.00  0.00    -0.317 N 
ATOM     14  H3  UNL     1      30.446  23.703  41.677  1.00  0.00     0.169 HD
BRANCH  13  15
HETATM   15  C3  UNL     1      32.079  24.994  41.437  1.00  0.00     0.354 C 
HETATM   16  O1  UNL     1      31.896  26.076  40.795  1.00  0.00    -0.283 OA
ENDBRANCH  13  15
ENDBRANCH   5  13
BRANCH  10  17
HETATM   17  N5  UNL     1      27.724  25.464  46.565  1.00  0.00    -0.334 N 
ATOM     18  H52 UNL     1      27.962  25.995  47.403  1.00  0.00     0.177 HD
ATOM     19  H51 UNL     1      26.860  24.962  46.359  1.00  0.00     0.177 HD
ENDBRANCH  10  17
TORSDOF 3
ENDMDL
MODEL 5
REMARK VINA RESULT: -5.961412855      2.830      4.913
REMARK  3 active torsions:
REMARK  status: ('A' for Active; 'I' for Inactive)
REMARK    1  A    between atoms: C2_5  and  N3_6 
REMARK    2  A    between atoms: N3_6  and  C3_8 
REMARK    3  A    between atoms: N4_14  and  N5_15 
ROOT
HETATM    1  N1  UNL     1      29.586  22.690  36.628  1.00  0.00    -0.079 NA
HETATM    2  C1  UNL     1      30.466  23.102  37.666  1.00  0.00     0.161 C 
HETATM    3  N2  UNL     1      31.641  23.643  37.291  1.00  0.00    -0.325 N 
ATOM      4  H2  UNL     1      31.771  23.790  36.290  1.00  0.00     0.169 HD
HETATM    5  C2  UNL     1      32.680  24.019  38.096  1.00  0.00     0.165 C 
HETATM    6  C4  UNL     1      32.663  24.390  39.425  1.00  0.00     0.285 C 
HETATM    7  O2  UNL     1      33.558  25.171  39.833  1.00  0.00    -0.278 OA
HETATM    8  C5  UNL     1      31.707  23.949  40.347  1.00  0.00     0.321 C 
HETATM    9  O3  UNL     1      32.023  24.218  41.533  1.00  0.00    -0.262 OA
HETATM   10  N4  UNL     1      30.549  23.308  40.141  1.00  0.00    -0.206 N 
HETATM   11  C6  UNL     1      30.021  22.903  38.979  1.00  0.00     0.182 C 
HETATM   12  N6  UNL     1      28.808  22.144  39.012  1.00  0.00    -0.077 NA
ENDROOT
BRANCH   5  13
HETATM   13  N3  UNL     1      33.838  24.032  37.543  1.00  0.00    -0.317 N 
ATOM     14  H3  UNL     1      34.544  23.381  37.885  1.00  0.00     0.169 HD
BRANCH  13  15
HETATM   15  C3  UNL     1      34.184  24.898  36.485  1.00  0.00     0.354 C 
HETATM   16  O1  UNL     1      34.179  24.423  35.306  1.00  0.00    -0.283 OA
ENDBRANCH  13  15
ENDBRANCH   5  13
BRANCH  10  17
HETATM   17  N5  UNL     1      29.785  23.015  41.264  1.00  0.00    -0.334 N 
ATOM     18  H52 UNL     1      29.872  22.057  41.604  1.00  0.00     0.177 HD
ATOM     19  H51 UNL     1      29.214  23.771  41.643  1.00  0.00     0.177 HD
ENDBRANCH  10  17
TORSDOF 3
ENDMDL
