MODEL 1
REMARK VINA RESULT: -8.803028960      0.000      0.000
REMARK  4 active torsions:
REMARK  status: ('A' for Active; 'I' for Inactive)
REMARK    1  A    between atoms: N1_1  and  C1_4 
REMARK    2  A    between atoms: C2_9  and  C3_10 
REMARK       I    between atoms: C3_10  and  N4_12 
REMARK    3  A    between atoms: N4_12  and  N5_14 
REMARK       I    between atoms: N5_14  and  C4_16 
REMARK    4  A    between atoms: C4_16  and  C5_18 
ROOT
HETATM    1  C3  UNL     1      -1.616   9.408  11.528  1.00  0.00     0.312 C 
HETATM    2  O1  UNL     1      -2.677   8.790  11.220  1.00  0.00    -0.262 OA
HETATM    3  N4  UNL     1      -1.034   9.126  12.784  1.00  0.00    -0.260 N 
ATOM      4  H4  UNL     1      -0.179   9.615  13.049  1.00  0.00     0.190 HD
ENDROOT
BRANCH   3   5
HETATM    5  N5  UNL     1      -1.579   8.213  13.668  1.00  0.00    -0.262 N 
HETATM    6  C4  UNL     1      -2.149   8.663  14.883  1.00  0.00     0.289 C 
HETATM    7  O2  UNL     1      -2.143   9.892  15.130  1.00  0.00    -0.264 OA
ATOM      8  H5  UNL     1      -1.571   7.219  13.444  1.00  0.00     0.190 HD
BRANCH   6   9
HETATM    9  C5  UNL     1      -2.728   7.699  15.824  1.00  0.00     0.142 A 
HETATM   10  N6  UNL     1      -4.024   7.723  16.169  1.00  0.00    -0.294 N 
HETATM   11  N7  UNL     1      -4.538   6.848  17.019  1.00  0.00    -0.311 N 
ATOM     12  H6  UNL     1      -4.631   8.435  15.764  1.00  0.00     0.187 HD
HETATM   13  C6  UNL     1      -3.830   5.871  17.609  1.00  0.00     0.109 A 
ATOM     14  H7  UNL     1      -5.531   6.921  17.240  1.00  0.00     0.186 HD
HETATM   15  C7  UNL     1      -2.491   5.794  17.294  1.00  0.00     0.047 A 
HETATM   16  C8  UNL     1      -1.954   6.718  16.398  1.00  0.00     0.081 A 
HETATM   17  N8  UNL     1      -0.587   6.668  16.055  1.00  0.00    -0.100 NA
ENDBRANCH   6   9
ENDBRANCH   3   5
BRANCH   1  18
HETATM   18  C2  UNL     1      -1.000  10.376  10.637  1.00  0.00     0.236 A 
HETATM   19  N3  UNL     1      -0.212  11.388  11.002  1.00  0.00    -0.272 N 
HETATM   20  N2  UNL     1       0.181  12.080   9.941  1.00  0.00    -0.263 N 
ATOM     21  H3  UNL     1       0.053  11.600  11.964  1.00  0.00     0.189 HD
HETATM   22  C1  UNL     1      -0.395  11.461   8.898  1.00  0.00     0.238 A 
ATOM     23  H2  UNL     1       0.786  12.901   9.921  1.00  0.00     0.190 HD
HETATM   24  O3  UNL     1      -1.114  10.424   9.327  1.00  0.00    -0.254 OA
BRANCH  22  25
HETATM   25  N1  UNL     1      -0.319  11.757   7.645  1.00  0.00    -0.364 N 
ATOM     26  H12 UNL     1      -0.800  12.569   7.259  1.00  0.00     0.159 HD
ATOM     27  H11 UNL     1       0.191  11.271   6.907  1.00  0.00     0.159 HD
ENDBRANCH  22  25
ENDBRANCH   1  18
TORSDOF 4
ENDMDL
MODEL 2
REMARK VINA RESULT: -8.625621273      1.655      7.746
REMARK  4 active torsions:
REMARK  status: ('A' for Active; 'I' for Inactive)
REMARK    1  A    between atoms: N1_1  and  C1_4 
REMARK    2  A    between atoms: C2_9  and  C3_10 
REMARK       I    between atoms: C3_10  and  N4_12 
REMARK    3  A    between atoms: N4_12  and  N5_14 
REMARK       I    between atoms: N5_14  and  C4_16 
REMARK    4  A    between atoms: C4_16  and  C5_18 
ROOT
HETATM    1  C3  UNL     1      -2.189   8.705  15.330  1.00  0.00     0.312 C 
HETATM    2  O1  UNL     1      -2.514   9.902  15.584  1.00  0.00    -0.262 OA
HETATM    3  N4  UNL     1      -1.796   8.398  14.009  1.00  0.00    -0.260 N 
ATOM      4  H4  UNL     1      -1.532   7.439  13.787  1.00  0.00     0.190 HD
ENDROOT
BRANCH   3   5
HETATM    5  N5  UNL     1      -1.756   9.349  13.006  1.00  0.00    -0.262 N 
HETATM    6  C4  UNL     1      -1.030   9.090  11.819  1.00  0.00     0.289 C 
HETATM    7  O2  UNL     1      -0.433   7.993  11.707  1.00  0.00    -0.264 OA
ATOM      8  H5  UNL     1      -2.249  10.234  13.120  1.00  0.00     0.190 HD
BRANCH   6   9
HETATM    9  C5  UNL     1      -0.983  10.095  10.752  1.00  0.00     0.142 A 
HETATM   10  N6  UNL     1      -0.025  11.033  10.690  1.00  0.00    -0.294 N 
HETATM   11  N7  UNL     1       0.008  11.935   9.722  1.00  0.00    -0.311 N 
ATOM     12  H6  UNL     1       0.697  11.050  11.409  1.00  0.00     0.187 HD
HETATM   13  C6  UNL     1      -0.892  12.001   8.727  1.00  0.00     0.109 A 
ATOM     14  H7  UNL     1       0.763  12.621   9.732  1.00  0.00     0.186 HD
HETATM   15  C7  UNL     1      -1.901  11.063   8.736  1.00  0.00     0.047 A 
HETATM   16  C8  UNL     1      -1.933  10.115   9.757  1.00  0.00     0.081 A 
HETATM   17  N8  UNL     1      -2.952   9.142   9.796  1.00  0.00    -0.100 NA
ENDBRANCH   6   9
ENDBRANCH   3   5
BRANCH   1  18
HETATM   18  C2  UNL     1      -2.212   7.667  16.347  1.00  0.00     0.236 A 
HETATM   19  N3  UNL     1      -3.284   6.976  16.738  1.00  0.00    -0.272 N 
HETATM   20  N2  UNL     1      -2.957   6.106  17.685  1.00  0.00    -0.263 N 
ATOM     21  H3  UNL     1      -4.223   7.100  16.362  1.00  0.00     0.189 HD
HETATM   22  C1  UNL     1      -1.640   6.282  17.870  1.00  0.00     0.238 A 
ATOM     23  H2  UNL     1      -3.572   5.449  18.165  1.00  0.00     0.190 HD
HETATM   24  O3  UNL     1      -1.190   7.235  17.054  1.00  0.00    -0.254 OA
BRANCH  22  25
HETATM   25  N1  UNL     1      -0.854   5.670  18.689  1.00  0.00    -0.364 N 
ATOM     26  H12 UNL     1      -1.168   4.860  19.224  1.00  0.00     0.159 HD
ATOM     27  H11 UNL     1       0.120   5.877  18.912  1.00  0.00     0.159 HD
ENDBRANCH  22  25
ENDBRANCH   1  18
TORSDOF 4
ENDMDL
MODEL 3
REMARK VINA RESULT: -8.337065510      1.972      2.137
REMARK  4 active torsions:
REMARK  status: ('A' for Active; 'I' for Inactive)
REMARK    1  A    between atoms: N1_1  and  C1_4 
REMARK    2  A    between atoms: C2_9  and  C3_10 
REMARK       I    between atoms: C3_10  and  N4_12 
REMARK    3  A    between atoms: N4_12  and  N5_14 
REMARK       I    between atoms: N5_14  and  C4_16 
REMARK    4  A    between atoms: C4_16  and  C5_18 
ROOT
HETATM    1  C3  UNL     1      -0.754   8.909  11.426  1.00  0.00     0.312 C 
HETATM    2  O1  UNL     1      -0.003   7.898  11.292  1.00  0.00    -0.262 OA
HETATM    3  N4  UNL     1      -1.150   9.263  12.734  1.00  0.00    -0.260 N 
ATOM      4  H4  UNL     1      -1.755  10.074  12.860  1.00  0.00     0.190 HD
ENDROOT
BRANCH   3   5
HETATM    5  N5  UNL     1      -0.748   8.553  13.850  1.00  0.00    -0.262 N 
HETATM    6  C4  UNL     1      -1.638   7.639  14.462  1.00  0.00     0.289 C 
HETATM    7  O2  UNL     1      -2.782   7.496  13.971  1.00  0.00    -0.264 OA
ATOM      8  H5  UNL     1       0.188   8.688  14.231  1.00  0.00     0.190 HD
BRANCH   6   9
HETATM    9  C5  UNL     1      -1.217   6.884  15.646  1.00  0.00     0.142 A 
HETATM   10  N6  UNL     1      -1.733   7.112  16.864  1.00  0.00    -0.294 N 
HETATM   11  N7  UNL     1      -1.347   6.424  17.927  1.00  0.00    -0.311 N 
ATOM     12  H6  UNL     1      -2.443   7.835  16.973  1.00  0.00     0.187 HD
HETATM   13  C6  UNL     1      -0.421   5.451  17.895  1.00  0.00     0.109 A 
ATOM     14  H7  UNL     1      -1.778   6.647  18.824  1.00  0.00     0.186 HD
HETATM   15  C7  UNL     1       0.146   5.170  16.671  1.00  0.00     0.047 A 
HETATM   16  C8  UNL     1      -0.263   5.897  15.555  1.00  0.00     0.081 A 
HETATM   17  N8  UNL     1       0.297   5.635  14.288  1.00  0.00    -0.100 NA
ENDBRANCH   6   9
ENDBRANCH   3   5
BRANCH   1  18
HETATM   18  C2  UNL     1      -1.205   9.691  10.287  1.00  0.00     0.236 A 
HETATM   19  N3  UNL     1      -1.942  10.801  10.341  1.00  0.00    -0.272 N 
HETATM   20  N2  UNL     1      -2.178  11.264   9.120  1.00  0.00    -0.263 N 
ATOM     21  H3  UNL     1      -2.277  11.234  11.201  1.00  0.00     0.189 HD
HETATM   22  C1  UNL     1      -1.560  10.398   8.302  1.00  0.00     0.238 A 
ATOM     23  H2  UNL     1      -2.710  12.094   8.861  1.00  0.00     0.190 HD
HETATM   24  O3  UNL     1      -0.969   9.441   9.017  1.00  0.00    -0.254 OA
BRANCH  22  25
HETATM   25  N1  UNL     1      -1.498  10.413   7.014  1.00  0.00    -0.364 N 
ATOM     26  H12 UNL     1      -1.006  11.153   6.512  1.00  0.00     0.159 HD
ATOM     27  H11 UNL     1      -1.893   9.747   6.350  1.00  0.00     0.159 HD
ENDBRANCH  22  25
ENDBRANCH   1  18
TORSDOF 4
ENDMDL
MODEL 4
REMARK VINA RESULT: -8.315671452      0.998      1.321
REMARK  4 active torsions:
REMARK  status: ('A' for Active; 'I' for Inactive)
REMARK    1  A    between atoms: N1_1  and  C1_4 
REMARK    2  A    between atoms: C2_9  and  C3_10 
REMARK       I    between atoms: C3_10  and  N4_12 
REMARK    3  A    between atoms: N4_12  and  N5_14 
REMARK       I    between atoms: N5_14  and  C4_16 
REMARK    4  A    between atoms: C4_16  and  C5_18 
ROOT
HETATM    1  C3  UNL     1      -1.445   9.316  11.539  1.00  0.00     0.312 C 
HETATM    2  O1  UNL     1      -2.543   8.721  11.333  1.00  0.00    -0.262 OA
HETATM    3  N4  UNL     1      -0.727   8.983  12.708  1.00  0.00    -0.260 N 
ATOM      4  H4  UNL     1       0.160   9.453  12.891  1.00  0.00     0.190 HD
ENDROOT
BRANCH   3   5
HETATM    5  N5  UNL     1      -1.180   8.043  13.616  1.00  0.00    -0.262 N 
HETATM    6  C4  UNL     1      -1.884   8.460  14.770  1.00  0.00     0.289 C 
HETATM    7  O2  UNL     1      -2.081   9.687  14.942  1.00  0.00    -0.264 OA
ATOM      8  H5  UNL     1      -1.007   7.051  13.454  1.00  0.00     0.190 HD
BRANCH   6   9
HETATM    9  C5  UNL     1      -2.367   7.468  15.736  1.00  0.00     0.142 A 
HETATM   10  N6  UNL     1      -1.865   7.371  16.977  1.00  0.00    -0.294 N 
HETATM   11  N7  UNL     1      -2.307   6.473  17.842  1.00  0.00    -0.311 N 
ATOM     12  H6  UNL     1      -1.121   8.009  17.261  1.00  0.00     0.187 HD
HETATM   13  C6  UNL     1      -3.281   5.588  17.572  1.00  0.00     0.109 A 
ATOM     14  H7  UNL     1      -1.884   6.451  18.769  1.00  0.00     0.186 HD
HETATM   15  C7  UNL     1      -3.838   5.638  16.312  1.00  0.00     0.047 A 
HETATM   16  C8  UNL     1      -3.368   6.585  15.404  1.00  0.00     0.081 A 
HETATM   17  N8  UNL     1      -3.915   6.663  14.107  1.00  0.00    -0.100 NA
ENDBRANCH   6   9
ENDBRANCH   3   5
BRANCH   1  18
HETATM   18  C2  UNL     1      -0.922  10.311  10.618  1.00  0.00     0.236 A 
HETATM   19  N3  UNL     1      -0.189  11.376  10.947  1.00  0.00    -0.272 N 
HETATM   20  N2  UNL     1       0.123  12.079   9.866  1.00  0.00    -0.263 N 
ATOM     21  H3  UNL     1       0.091  11.617  11.897  1.00  0.00     0.189 HD
HETATM   22  C1  UNL     1      -0.443  11.410   8.849  1.00  0.00     0.238 A 
ATOM     23  H2  UNL     1       0.673  12.937   9.818  1.00  0.00     0.190 HD
HETATM   24  O3  UNL     1      -1.080  10.334   9.312  1.00  0.00    -0.254 OA
BRANCH  22  25
HETATM   25  N1  UNL     1      -0.426  11.694   7.591  1.00  0.00    -0.364 N 
ATOM     26  H12 UNL     1       0.334  12.232   7.177  1.00  0.00     0.159 HD
ATOM     27  H11 UNL     1      -1.108  11.447   6.874  1.00  0.00     0.159 HD
ENDBRANCH  22  25
ENDBRANCH   1  18
TORSDOF 4
ENDMDL
MODEL 5
REMARK VINA RESULT: -8.242269595      1.520      1.593
REMARK  4 active torsions:
REMARK  status: ('A' for Active; 'I' for Inactive)
REMARK    1  A    between atoms: N1_1  and  C1_4 
REMARK    2  A    between atoms: C2_9  and  C3_10 
REMARK       I    between atoms: C3_10  and  N4_12 
REMARK    3  A    between atoms: N4_12  and  N5_14 
REMARK       I    between atoms: N5_14  and  C4_16 
REMARK    4  A    between atoms: C4_16  and  C5_18 
ROOT
HETATM    1  C3  UNL     1      -1.366   8.593  11.517  1.00  0.00     0.312 C 
HETATM    2  O1  UNL     1      -0.254   8.044  11.770  1.00  0.00    -0.262 OA
HETATM    3  N4  UNL     1      -2.451   8.302  12.373  1.00  0.00    -0.260 N 
ATOM      4  H4  UNL     1      -3.355   8.735  12.183  1.00  0.00     0.190 HD
ENDROOT
BRANCH   3   5
HETATM    5  N5  UNL     1      -2.336   7.452  13.457  1.00  0.00    -0.262 N 
HETATM    6  C4  UNL     1      -2.172   7.987  14.757  1.00  0.00     0.289 C 
HETATM    7  O2  UNL     1      -2.136   9.233  14.893  1.00  0.00    -0.264 OA
ATOM      8  H5  UNL     1      -2.368   6.442  13.321  1.00  0.00     0.190 HD
BRANCH   6   9
HETATM    9  C5  UNL     1      -2.049   7.091  15.911  1.00  0.00     0.142 A 
HETATM   10  N6  UNL     1      -3.063   6.869  16.760  1.00  0.00    -0.294 N 
HETATM   11  N7  UNL     1      -2.942   6.058  17.799  1.00  0.00    -0.311 N 
ATOM     12  H6  UNL     1      -3.954   7.339  16.601  1.00  0.00     0.187 HD
HETATM   13  C6  UNL     1      -1.817   5.389  18.100  1.00  0.00     0.109 A 
ATOM     14  H7  UNL     1      -3.751   5.933  18.407  1.00  0.00     0.186 HD
HETATM   15  C7  UNL     1      -0.737   5.575  17.264  1.00  0.00     0.047 A 
HETATM   16  C8  UNL     1      -0.870   6.431  16.171  1.00  0.00     0.081 A 
HETATM   17  N8  UNL     1       0.214   6.644  15.296  1.00  0.00    -0.100 NA
ENDBRANCH   6   9
ENDBRANCH   3   5
BRANCH   1  18
HETATM   18  C2  UNL     1      -1.543   9.495  10.391  1.00  0.00     0.236 A 
HETATM   19  N3  UNL     1      -1.912  10.775  10.462  1.00  0.00    -0.272 N 
HETATM   20  N2  UNL     1      -1.979  11.309   9.250  1.00  0.00    -0.263 N 
ATOM     21  H3  UNL     1      -2.116  11.273  11.328  1.00  0.00     0.189 HD
HETATM   22  C1  UNL     1      -1.637  10.311   8.419  1.00  0.00     0.238 A 
ATOM     23  H2  UNL     1      -2.233  12.265   9.003  1.00  0.00     0.190 HD
HETATM   24  O3  UNL     1      -1.373   9.208   9.119  1.00  0.00    -0.254 OA
BRANCH  22  25
HETATM   25  N1  UNL     1      -1.553  10.330   7.132  1.00  0.00    -0.364 N 
ATOM     26  H12 UNL     1      -2.339  10.059   6.542  1.00  0.00     0.159 HD
ATOM     27  H11 UNL     1      -0.758  10.597   6.551  1.00  0.00     0.159 HD
ENDBRANCH  22  25
ENDBRANCH   1  18
TORSDOF 4
ENDMDL
