MODEL 1
REMARK VINA RESULT: -7.356205004      0.000      0.000
REMARK  5 active torsions:
REMARK  status: ('A' for Active; 'I' for Inactive)
REMARK    1  A    between atoms: N1_2  and  C2_4 
REMARK    2  A    between atoms: C2_4  and  C3_5 
REMARK    3  A    between atoms: N2_6  and  C4_8 
REMARK    4  A    between atoms: C5_11  and  N4_12 
REMARK    5  A    between atoms: N8_21  and  N9_23 
REMARK       I    between atoms: N9_23  and  C7_25 
ROOT
HETATM    1  C3  UNL     1      -1.139   8.867  13.178  1.00  0.00     0.155 C 
HETATM    2  N2  UNL     1      -1.484   9.841  12.467  1.00  0.00    -0.197 N 
ATOM      3  H2  UNL     1      -1.869  10.623  12.997  1.00  0.00     0.183 HD
ENDROOT
BRANCH   2   4
HETATM    4  C4  UNL     1      -1.442  10.058  11.095  1.00  0.00     0.699 A 
HETATM    5  N3  UNL     1      -2.401   9.616  10.271  1.00  0.00    -0.022 N 
HETATM    6  C5  UNL     1      -2.346   9.829   8.928  1.00  0.00     0.692 A 
ATOM      7  H3  UNL     1      -3.194   9.106  10.661  1.00  0.00     0.203 HD
HETATM    8  N5  UNL     1      -1.304  10.499   8.426  1.00  0.00    -0.163 N 
HETATM    9  C6  UNL     1      -0.337  10.951   9.212  1.00  0.00     0.221 A 
ATOM     10  H5  UNL     1      -1.253  10.665   7.421  1.00  0.00     0.187 HD
HETATM   11  N6  UNL     1       0.743  11.652   8.635  1.00  0.00    -0.062 NA
HETATM   12  N7  UNL     1      -0.409  10.728  10.556  1.00  0.00    -0.162 N 
ATOM     13  H7  UNL     1       0.334  11.076  11.163  1.00  0.00     0.187 HD
BRANCH   6  14
HETATM   14  N4  UNL     1      -3.264   9.408   8.127  1.00  0.00    -0.234 N 
ATOM     15  H42 UNL     1      -4.237   9.638   8.325  1.00  0.00     0.174 HD
ATOM     16  H41 UNL     1      -3.050   8.850   7.299  1.00  0.00     0.174 HD
ENDBRANCH   6  14
ENDBRANCH   2   4
BRANCH   1  17
HETATM   17  C2  UNL     1      -0.564   7.607  12.800  1.00  0.00     0.131 C 
HETATM   18  N8  UNL     1      -1.145   6.464  13.026  1.00  0.00    -0.282 N 
ATOM     19  H8  UNL     1      -0.669   5.614  12.725  1.00  0.00     0.188 HD
BRANCH  17  20
HETATM   20  N1  UNL     1       0.688   7.535  12.150  1.00  0.00    -0.379 N 
HETATM   21  C1  UNL     1       0.858   7.121  10.769  1.00  0.00     0.147 C 
ATOM     22  H1  UNL     1       1.520   7.789  12.682  1.00  0.00     0.160 HD
ENDBRANCH  17  20
BRANCH  18  23
HETATM   23  N9  UNL     1      -2.377   6.342  13.654  1.00  0.00    -0.269 N 
HETATM   24  C7  UNL     1      -2.849   5.096  14.123  1.00  0.00     0.232 C 
HETATM   25  C8  UNL     1      -4.158   4.925  14.798  1.00  0.00     0.119 C 
HETATM   26  O1  UNL     1      -2.136   4.079  13.968  1.00  0.00    -0.272 OA
ATOM     27  H9  UNL     1      -2.955   7.172  13.779  1.00  0.00     0.190 HD
ENDBRANCH  18  23
ENDBRANCH   1  17
TORSDOF 5
ENDMDL
MODEL 2
REMARK VINA RESULT: -7.352562560      1.165      1.190
REMARK  5 active torsions:
REMARK  status: ('A' for Active; 'I' for Inactive)
REMARK    1  A    between atoms: N1_2  and  C2_4 
REMARK    2  A    between atoms: C2_4  and  C3_5 
REMARK    3  A    between atoms: N2_6  and  C4_8 
REMARK    4  A    between atoms: C5_11  and  N4_12 
REMARK    5  A    between atoms: N8_21  and  N9_23 
REMARK       I    between atoms: N9_23  and  C7_25 
ROOT
HETATM    1  C3  UNL     1      -1.457   8.957  13.063  1.00  0.00     0.155 C 
HETATM    2  N2  UNL     1      -1.452   9.995  12.358  1.00  0.00    -0.197 N 
ATOM      3  H2  UNL     1      -1.469  10.860  12.898  1.00  0.00     0.183 HD
ENDROOT
BRANCH   2   4
HETATM    4  C4  UNL     1      -1.429  10.191  10.982  1.00  0.00     0.699 A 
HETATM    5  N3  UNL     1      -2.427   9.785  10.185  1.00  0.00    -0.022 N 
HETATM    6  C5  UNL     1      -2.390   9.977   8.838  1.00  0.00     0.692 A 
ATOM      7  H3  UNL     1      -3.236   9.321  10.599  1.00  0.00     0.203 HD
HETATM    8  N5  UNL     1      -1.328  10.587   8.304  1.00  0.00    -0.163 N 
HETATM    9  C6  UNL     1      -0.323  11.001   9.063  1.00  0.00     0.221 A 
ATOM     10  H5  UNL     1      -1.290  10.737   7.296  1.00  0.00     0.187 HD
HETATM   11  N6  UNL     1       0.777  11.640   8.453  1.00  0.00    -0.062 NA
HETATM   12  N7  UNL     1      -0.377  10.801  10.412  1.00  0.00    -0.162 N 
ATOM     13  H7  UNL     1       0.395  11.119  10.997  1.00  0.00     0.187 HD
BRANCH   6  14
HETATM   14  N4  UNL     1      -3.345   9.591   8.063  1.00  0.00    -0.234 N 
ATOM     15  H42 UNL     1      -3.177   8.818   7.418  1.00  0.00     0.174 HD
ATOM     16  H41 UNL     1      -4.265  10.033   8.070  1.00  0.00     0.174 HD
ENDBRANCH   6  14
ENDBRANCH   2   4
BRANCH   1  17
HETATM   17  C2  UNL     1      -1.439   7.576  12.671  1.00  0.00     0.131 C 
HETATM   18  N8  UNL     1      -2.297   6.702  13.108  1.00  0.00    -0.282 N 
ATOM     19  H8  UNL     1      -2.215   5.740  12.780  1.00  0.00     0.188 HD
BRANCH  17  20
HETATM   20  N1  UNL     1      -0.468   7.080  11.772  1.00  0.00    -0.379 N 
HETATM   21  C1  UNL     1      -0.786   6.507  10.477  1.00  0.00     0.147 C 
ATOM     22  H1  UNL     1       0.512   7.128  12.049  1.00  0.00     0.160 HD
ENDBRANCH  17  20
BRANCH  18  23
HETATM   23  N9  UNL     1      -3.319   7.009  13.996  1.00  0.00    -0.269 N 
HETATM   24  C7  UNL     1      -3.286   6.580  15.341  1.00  0.00     0.232 C 
HETATM   25  C8  UNL     1      -4.357   6.887  16.319  1.00  0.00     0.119 C 
HETATM   26  O1  UNL     1      -2.308   5.906  15.740  1.00  0.00    -0.272 OA
ATOM     27  H9  UNL     1      -4.113   7.558  13.669  1.00  0.00     0.190 HD
ENDBRANCH  18  23
ENDBRANCH   1  17
TORSDOF 5
ENDMDL
MODEL 3
REMARK VINA RESULT: -7.300771144      1.521      1.548
REMARK  5 active torsions:
REMARK  status: ('A' for Active; 'I' for Inactive)
REMARK    1  A    between atoms: N1_2  and  C2_4 
REMARK    2  A    between atoms: C2_4  and  C3_5 
REMARK    3  A    between atoms: N2_6  and  C4_8 
REMARK    4  A    between atoms: C5_11  and  N4_12 
REMARK    5  A    between atoms: N8_21  and  N9_23 
REMARK       I    between atoms: N9_23  and  C7_25 
ROOT
HETATM    1  C3  UNL     1      -1.274   8.930  13.067  1.00  0.00     0.155 C 
HETATM    2  N2  UNL     1      -1.482   9.947  12.364  1.00  0.00    -0.197 N 
ATOM      3  H2  UNL     1      -1.725  10.779  12.903  1.00  0.00     0.183 HD
ENDROOT
BRANCH   2   4
HETATM    4  C4  UNL     1      -1.445  10.159  10.991  1.00  0.00     0.699 A 
HETATM    5  N3  UNL     1      -2.437   9.766  10.180  1.00  0.00    -0.022 N 
HETATM    6  C5  UNL     1      -2.387   9.972   8.836  1.00  0.00     0.692 A 
ATOM      7  H3  UNL     1      -3.252   9.300  10.581  1.00  0.00     0.203 HD
HETATM    8  N5  UNL     1      -1.318  10.584   8.319  1.00  0.00    -0.163 N 
HETATM    9  C6  UNL     1      -0.318  10.986   9.091  1.00  0.00     0.221 A 
ATOM     10  H5  UNL     1      -1.270  10.745   7.312  1.00  0.00     0.187 HD
HETATM   11  N6  UNL     1       0.790  11.628   8.498  1.00  0.00    -0.062 NA
HETATM   12  N7  UNL     1      -0.385  10.771  10.437  1.00  0.00    -0.162 N 
ATOM     13  H7  UNL     1       0.382  11.080  11.033  1.00  0.00     0.187 HD
BRANCH   6  14
HETATM   14  N4  UNL     1      -3.336   9.598   8.047  1.00  0.00    -0.234 N 
ATOM     15  H42 UNL     1      -3.909  10.308   7.591  1.00  0.00     0.174 HD
ATOM     16  H41 UNL     1      -3.536   8.614   7.863  1.00  0.00     0.174 HD
ENDBRANCH   6  14
ENDBRANCH   2   4
BRANCH   1  17
HETATM   17  C2  UNL     1      -0.915   7.596  12.676  1.00  0.00     0.131 C 
HETATM   18  N8  UNL     1      -1.124   6.554  13.426  1.00  0.00    -0.282 N 
ATOM     19  H8  UNL     1      -0.839   5.641  13.074  1.00  0.00     0.188 HD
BRANCH  17  20
HETATM   20  N1  UNL     1      -0.301   7.335  11.430  1.00  0.00    -0.379 N 
HETATM   21  C1  UNL     1       1.129   7.167  11.254  1.00  0.00     0.147 C 
ATOM     22  H1  UNL     1      -0.899   7.261  10.607  1.00  0.00     0.160 HD
ENDBRANCH  17  20
BRANCH  18  23
HETATM   23  N9  UNL     1      -1.715   6.620  14.681  1.00  0.00    -0.269 N 
HETATM   24  C7  UNL     1      -0.949   6.558  15.865  1.00  0.00     0.232 C 
HETATM   25  C8  UNL     1      -1.542   6.624  17.222  1.00  0.00     0.119 C 
HETATM   26  O1  UNL     1       0.295   6.441  15.779  1.00  0.00    -0.272 OA
ATOM     27  H9  UNL     1      -2.728   6.715  14.748  1.00  0.00     0.190 HD
ENDBRANCH  18  23
ENDBRANCH   1  17
TORSDOF 5
ENDMDL
MODEL 4
REMARK VINA RESULT: -7.099930336      1.846      3.276
REMARK  5 active torsions:
REMARK  status: ('A' for Active; 'I' for Inactive)
REMARK    1  A    between atoms: N1_2  and  C2_4 
REMARK    2  A    between atoms: C2_4  and  C3_5 
REMARK    3  A    between atoms: N2_6  and  C4_8 
REMARK    4  A    between atoms: C5_11  and  N4_12 
REMARK    5  A    between atoms: N8_21  and  N9_23 
REMARK       I    between atoms: N9_23  and  C7_25 
ROOT
HETATM    1  C3  UNL     1      -1.410   8.440  13.868  1.00  0.00     0.155 C 
HETATM    2  N2  UNL     1      -1.031   9.203  12.948  1.00  0.00    -0.197 N 
ATOM      3  H2  UNL     1      -0.548  10.039  13.277  1.00  0.00     0.183 HD
ENDROOT
BRANCH   2   4
HETATM    4  C4  UNL     1      -1.144   9.127  11.564  1.00  0.00     0.699 A 
HETATM    5  N3  UNL     1      -0.550   8.161  10.850  1.00  0.00    -0.022 N 
HETATM    6  C5  UNL     1      -0.662   8.102   9.495  1.00  0.00     0.692 A 
ATOM      7  H3  UNL     1       0.000   7.452  11.335  1.00  0.00     0.203 HD
HETATM    8  N5  UNL     1      -1.386   9.034   8.868  1.00  0.00    -0.163 N 
HETATM    9  C6  UNL     1      -1.986  10.004   9.543  1.00  0.00     0.221 A 
ATOM     10  H5  UNL     1      -1.477   8.998   7.852  1.00  0.00     0.187 HD
HETATM   11  N6  UNL     1      -2.739  10.965   8.836  1.00  0.00    -0.062 NA
HETATM   12  N7  UNL     1      -1.863  10.048  10.901  1.00  0.00    -0.162 N 
ATOM     13  H7  UNL     1      -2.326  10.793  11.422  1.00  0.00     0.187 HD
BRANCH   6  14
HETATM   14  N4  UNL     1      -0.095   7.176   8.798  1.00  0.00    -0.234 N 
ATOM     15  H42 UNL     1       0.715   7.414   8.227  1.00  0.00     0.174 HD
ATOM     16  H41 UNL     1      -0.431   6.212   8.798  1.00  0.00     0.174 HD
ENDBRANCH   6  14
ENDBRANCH   2   4
BRANCH   1  17
HETATM   17  C2  UNL     1      -2.111   7.189  13.799  1.00  0.00     0.131 C 
HETATM   18  N8  UNL     1      -1.513   6.048  13.621  1.00  0.00    -0.282 N 
ATOM     19  H8  UNL     1      -2.084   5.204  13.584  1.00  0.00     0.188 HD
BRANCH  17  20
HETATM   20  N1  UNL     1      -3.517   7.126  13.924  1.00  0.00    -0.379 N 
HETATM   21  C1  UNL     1      -4.224   6.015  14.532  1.00  0.00     0.147 C 
ATOM     22  H1  UNL     1      -4.066   7.908  13.566  1.00  0.00     0.160 HD
ENDBRANCH  17  20
BRANCH  18  23
HETATM   23  N9  UNL     1      -0.138   5.917  13.478  1.00  0.00    -0.269 N 
HETATM   24  C7  UNL     1       0.441   5.434  12.284  1.00  0.00     0.232 C 
HETATM   25  C8  UNL     1       1.904   5.280  12.094  1.00  0.00     0.119 C 
HETATM   26  O1  UNL     1      -0.307   5.116  11.332  1.00  0.00    -0.272 OA
ATOM     27  H9  UNL     1       0.469   6.177  14.255  1.00  0.00     0.190 HD
ENDBRANCH  18  23
ENDBRANCH   1  17
TORSDOF 5
ENDMDL
MODEL 5
REMARK VINA RESULT: -7.071064293      1.604      3.061
REMARK  5 active torsions:
REMARK  status: ('A' for Active; 'I' for Inactive)
REMARK    1  A    between atoms: N1_2  and  C2_4 
REMARK    2  A    between atoms: C2_4  and  C3_5 
REMARK    3  A    between atoms: N2_6  and  C4_8 
REMARK    4  A    between atoms: C5_11  and  N4_12 
REMARK    5  A    between atoms: N8_21  and  N9_23 
REMARK       I    between atoms: N9_23  and  C7_25 
ROOT
HETATM    1  C3  UNL     1      -1.420   7.240  13.165  1.00  0.00     0.155 C 
HETATM    2  N2  UNL     1      -1.039   7.556  12.013  1.00  0.00    -0.197 N 
ATOM      3  H2  UNL     1      -0.466   6.846  11.559  1.00  0.00     0.183 HD
ENDROOT
BRANCH   2   4
HETATM    4  C4  UNL     1      -1.250   8.690  11.237  1.00  0.00     0.699 A 
HETATM    5  N3  UNL     1      -0.423   9.743  11.270  1.00  0.00    -0.022 N 
HETATM    6  C5  UNL     1      -0.644  10.851  10.510  1.00  0.00     0.692 A 
ATOM      7  H3  UNL     1       0.393   9.715  11.881  1.00  0.00     0.203 HD
HETATM    8  N5  UNL     1      -1.714  10.880   9.711  1.00  0.00    -0.163 N 
HETATM    9  C6  UNL     1      -2.553   9.855   9.653  1.00  0.00     0.221 A 
ATOM     10  H5  UNL     1      -1.889  11.704   9.136  1.00  0.00     0.187 HD
HETATM   11  N6  UNL     1      -3.670   9.933   8.794  1.00  0.00    -0.062 NA
HETATM   12  N7  UNL     1      -2.317   8.753  10.422  1.00  0.00    -0.162 N 
ATOM     13  H7  UNL     1      -2.961   7.963  10.378  1.00  0.00     0.187 HD
BRANCH   6  14
HETATM   14  N4  UNL     1       0.146  11.870  10.535  1.00  0.00    -0.234 N 
ATOM     15  H42 UNL     1       0.974  11.839  11.129  1.00  0.00     0.174 HD
ATOM     16  H41 UNL     1      -0.029  12.708   9.980  1.00  0.00     0.174 HD
ENDBRANCH   6  14
ENDBRANCH   2   4
BRANCH   1  17
HETATM   17  C2  UNL     1      -2.229   7.968  14.102  1.00  0.00     0.131 C 
HETATM   18  N8  UNL     1      -3.336   7.500  14.600  1.00  0.00    -0.282 N 
ATOM     19  H8  UNL     1      -3.852   8.081  15.260  1.00  0.00     0.188 HD
BRANCH  17  20
HETATM   20  N1  UNL     1      -1.862   9.259  14.543  1.00  0.00    -0.379 N 
HETATM   21  C1  UNL     1      -2.499   9.945  15.652  1.00  0.00     0.147 C 
ATOM     22  H1  UNL     1      -1.104   9.737  14.054  1.00  0.00     0.160 HD
ENDBRANCH  17  20
BRANCH  18  23
HETATM   23  N9  UNL     1      -3.852   6.251  14.281  1.00  0.00    -0.269 N 
HETATM   24  C7  UNL     1      -3.772   5.164  15.179  1.00  0.00     0.232 C 
HETATM   25  C8  UNL     1      -4.310   3.817  14.875  1.00  0.00     0.119 C 
HETATM   26  O1  UNL     1      -3.223   5.335  16.292  1.00  0.00    -0.272 OA
ATOM     27  H9  UNL     1      -4.298   6.115  13.374  1.00  0.00     0.190 HD
ENDBRANCH  18  23
ENDBRANCH   1  17
TORSDOF 5
ENDMDL
