MODEL 1
REMARK VINA RESULT: -7.607481036      0.000      0.000
REMARK  6 active torsions:
REMARK  status: ('A' for Active; 'I' for Inactive)
REMARK    1  A    between atoms: N1_1  and  C1_4 
REMARK    2  A    between atoms: C2_9  and  C3_10 
REMARK    3  A    between atoms: C4_14  and  S1_15 
REMARK    4  A    between atoms: S1_15  and  N5_16 
REMARK    5  A    between atoms: C5_23  and  N7_24 
REMARK    6  A    between atoms: N7_24  and  N8_26 
ROOT
HETATM    1  C1  UNL     1      -1.209   9.744   8.973  1.00  0.00     0.144 A 
HETATM    2  N2  UNL     1      -1.513   8.453   8.801  1.00  0.00    -0.283 N 
ATOM      3  H2  UNL     1      -1.699   8.000   7.906  1.00  0.00     0.188 HD
HETATM    4  N3  UNL     1      -1.533   7.860   9.978  1.00  0.00    -0.293 N 
ATOM      5  H3  UNL     1      -1.738   6.872  10.126  1.00  0.00     0.187 HD
HETATM    6  C2  UNL     1      -1.247   8.736  10.955  1.00  0.00     0.126 A 
HETATM    7  C5  UNL     1      -1.035   9.952  10.340  1.00  0.00     0.124 A 
ENDROOT
BRANCH   6   8
HETATM    8  C3  UNL     1      -1.167   8.489  12.390  1.00  0.00     0.159 A 
HETATM    9  N4  UNL     1      -0.072   8.140  13.090  1.00  0.00    -0.240 N 
HETATM   10  O1  UNL     1      -0.404   8.010  14.347  1.00  0.00    -0.204 OA
ATOM     11  H4  UNL     1       0.861   8.000  12.704  1.00  0.00     0.196 HD
HETATM   12  C4  UNL     1      -1.672   8.257  14.514  1.00  0.00     0.287 A 
HETATM   13  N6  UNL     1      -2.162   8.559  13.291  1.00  0.00    -0.307 N 
ATOM     14  H6  UNL     1      -3.131   8.801  13.085  1.00  0.00     0.170 HD
BRANCH  12  15
HETATM   15  S1  UNL     1      -2.600   8.215  16.020  1.00  0.00     0.297 S 
HETATM   16  O2  UNL     1      -3.839   7.389  15.743  1.00  0.00    -0.197 OA
HETATM   17  O3  UNL     1      -1.756   7.614  17.085  1.00  0.00    -0.197 OA
BRANCH  15  18
HETATM   18  N5  UNL     1      -3.071   9.823  16.368  1.00  0.00    -0.321 N 
ATOM     19  H52 UNL     1      -3.315  10.533  15.678  1.00  0.00     0.169 HD
ATOM     20  H51 UNL     1      -3.059   9.927  17.382  1.00  0.00     0.169 HD
ENDBRANCH  15  18
ENDBRANCH  12  15
ENDBRANCH   6   8
BRANCH   7  21
HETATM   21  N7  UNL     1      -0.701  11.176  10.990  1.00  0.00    -0.302 N 
ATOM     22  H7  UNL     1      -1.268  11.474  11.784  1.00  0.00     0.186 HD
BRANCH  21  23
HETATM   23  N8  UNL     1       0.363  11.990  10.594  1.00  0.00    -0.344 N 
ATOM     24  H82 UNL     1       0.183  12.669   9.855  1.00  0.00     0.176 HD
ATOM     25  H81 UNL     1       1.295  11.934  11.005  1.00  0.00     0.176 HD
ENDBRANCH  21  23
ENDBRANCH   7  21
BRANCH   1  26
HETATM   26  N1  UNL     1      -1.088  10.673   8.067  1.00  0.00    -0.382 N 
ATOM     27  H12 UNL     1      -1.605  10.690   7.188  1.00  0.00     0.157 HD
ATOM     28  H11 UNL     1      -0.486  11.497   8.082  1.00  0.00     0.157 HD
ENDBRANCH   1  26
TORSDOF 6
ENDMDL
MODEL 2
REMARK VINA RESULT: -7.511375452      0.723      2.033
REMARK  6 active torsions:
REMARK  status: ('A' for Active; 'I' for Inactive)
REMARK    1  A    between atoms: N1_1  and  C1_4 
REMARK    2  A    between atoms: C2_9  and  C3_10 
REMARK    3  A    between atoms: C4_14  and  S1_15 
REMARK    4  A    between atoms: S1_15  and  N5_16 
REMARK    5  A    between atoms: C5_23  and  N7_24 
REMARK    6  A    between atoms: N7_24  and  N8_26 
ROOT
HETATM    1  C1  UNL     1      -1.147  10.278   8.830  1.00  0.00     0.144 A 
HETATM    2  N2  UNL     1      -0.666  11.336   9.492  1.00  0.00    -0.283 N 
ATOM      3  H2  UNL     1      -0.426  12.237   9.076  1.00  0.00     0.188 HD
HETATM    4  N3  UNL     1      -0.552  11.026  10.767  1.00  0.00    -0.293 N 
ATOM      5  H3  UNL     1      -0.209  11.659  11.490  1.00  0.00     0.187 HD
HETATM    6  C2  UNL     1      -0.951   9.762  10.985  1.00  0.00     0.126 A 
HETATM    7  C5  UNL     1      -1.337   9.257   9.761  1.00  0.00     0.124 A 
ENDROOT
BRANCH   6   8
HETATM    8  C3  UNL     1      -0.983   9.033  12.248  1.00  0.00     0.159 A 
HETATM    9  N4  UNL     1      -0.071   8.152  12.696  1.00  0.00    -0.240 N 
HETATM   10  O1  UNL     1      -0.453   7.713  13.865  1.00  0.00    -0.204 OA
ATOM     11  H4  UNL     1       0.778   7.872  12.204  1.00  0.00     0.196 HD
HETATM   12  C4  UNL     1      -1.580   8.265  14.216  1.00  0.00     0.287 A 
HETATM   13  N6  UNL     1      -1.923   9.096  13.207  1.00  0.00    -0.307 N 
ATOM     14  H6  UNL     1      -2.760   9.677  13.178  1.00  0.00     0.170 HD
BRANCH  12  15
HETATM   15  S1  UNL     1      -2.503   8.002  15.702  1.00  0.00     0.297 S 
HETATM   16  O2  UNL     1      -3.761   7.257  15.305  1.00  0.00    -0.197 OA
HETATM   17  O3  UNL     1      -1.670   7.221  16.652  1.00  0.00    -0.197 OA
BRANCH  15  18
HETATM   18  N5  UNL     1      -2.938   9.543  16.305  1.00  0.00    -0.321 N 
ATOM     19  H52 UNL     1      -3.194  10.352  15.739  1.00  0.00     0.169 HD
ATOM     20  H51 UNL     1      -2.891   9.492  17.322  1.00  0.00     0.169 HD
ENDBRANCH  15  18
ENDBRANCH  12  15
ENDBRANCH   6   8
BRANCH   7  21
HETATM   21  N7  UNL     1      -1.834   7.945   9.511  1.00  0.00    -0.302 N 
ATOM     22  H7  UNL     1      -2.842   7.795   9.541  1.00  0.00     0.186 HD
BRANCH  21  23
HETATM   23  N8  UNL     1      -1.010   6.853   9.228  1.00  0.00    -0.344 N 
ATOM     24  H82 UNL     1      -0.134   6.781   9.746  1.00  0.00     0.176 HD
ATOM     25  H81 UNL     1      -1.243   6.139   8.538  1.00  0.00     0.176 HD
ENDBRANCH  21  23
ENDBRANCH   7  21
BRANCH   1  26
HETATM   26  N1  UNL     1      -1.406  10.169   7.557  1.00  0.00    -0.382 N 
ATOM     27  H12 UNL     1      -0.706  10.248   6.820  1.00  0.00     0.157 HD
ATOM     28  H11 UNL     1      -2.305   9.996   7.107  1.00  0.00     0.157 HD
ENDBRANCH   1  26
TORSDOF 6
ENDMDL
MODEL 3
REMARK VINA RESULT: -7.503005634      0.899      1.083
REMARK  6 active torsions:
REMARK  status: ('A' for Active; 'I' for Inactive)
REMARK    1  A    between atoms: N1_1  and  C1_4 
REMARK    2  A    between atoms: C2_9  and  C3_10 
REMARK    3  A    between atoms: C4_14  and  S1_15 
REMARK    4  A    between atoms: S1_15  and  N5_16 
REMARK    5  A    between atoms: C5_23  and  N7_24 
REMARK    6  A    between atoms: N7_24  and  N8_26 
ROOT
HETATM    1  C1  UNL     1      -1.145   9.728   8.978  1.00  0.00     0.144 A 
HETATM    2  N2  UNL     1      -1.417   8.430   8.806  1.00  0.00    -0.283 N 
ATOM      3  H2  UNL     1      -1.583   7.971   7.910  1.00  0.00     0.188 HD
HETATM    4  N3  UNL     1      -1.436   7.839   9.984  1.00  0.00    -0.293 N 
ATOM      5  H3  UNL     1      -1.621   6.847  10.132  1.00  0.00     0.187 HD
HETATM    6  C2  UNL     1      -1.180   8.723  10.962  1.00  0.00     0.126 A 
HETATM    7  C5  UNL     1      -0.989   9.943  10.347  1.00  0.00     0.124 A 
ENDROOT
BRANCH   6   8
HETATM    8  C3  UNL     1      -1.109   8.481  12.398  1.00  0.00     0.159 A 
HETATM    9  N4  UNL     1      -0.038   8.063  13.096  1.00  0.00    -0.240 N 
HETATM   10  O1  UNL     1      -0.371   7.965  14.355  1.00  0.00    -0.204 OA
ATOM     11  H4  UNL     1       0.882   7.857  12.707  1.00  0.00     0.196 HD
HETATM   12  C4  UNL     1      -1.619   8.299  14.527  1.00  0.00     0.287 A 
HETATM   13  N6  UNL     1      -2.093   8.625  13.303  1.00  0.00    -0.307 N 
ATOM     14  H6  UNL     1      -3.044   8.931  13.100  1.00  0.00     0.170 HD
BRANCH  12  15
HETATM   15  S1  UNL     1      -2.539   8.331  16.037  1.00  0.00     0.297 S 
HETATM   16  O2  UNL     1      -1.671   7.670  17.088  1.00  0.00    -0.197 OA
HETATM   17  O3  UNL     1      -2.850   9.743  16.379  1.00  0.00    -0.197 OA
BRANCH  15  18
HETATM   18  N5  UNL     1      -3.939   7.379  15.795  1.00  0.00    -0.321 N 
ATOM     19  H52 UNL     1      -4.076   6.701  15.044  1.00  0.00     0.169 HD
ATOM     20  H51 UNL     1      -4.598   7.618  16.536  1.00  0.00     0.169 HD
ENDBRANCH  15  18
ENDBRANCH  12  15
ENDBRANCH   6   8
BRANCH   7  21
HETATM   21  N7  UNL     1      -0.690  11.176  10.997  1.00  0.00    -0.302 N 
ATOM     22  H7  UNL     1      -1.276  11.465  11.780  1.00  0.00     0.186 HD
BRANCH  21  23
HETATM   23  N8  UNL     1       0.365  12.008  10.616  1.00  0.00    -0.344 N 
ATOM     24  H82 UNL     1       0.130  12.850  10.091  1.00  0.00     0.176 HD
ATOM     25  H81 UNL     1       1.341  11.812  10.836  1.00  0.00     0.176 HD
ENDBRANCH  21  23
ENDBRANCH   7  21
BRANCH   1  26
HETATM   26  N1  UNL     1      -1.035  10.658   8.071  1.00  0.00    -0.382 N 
ATOM     27  H12 UNL     1      -1.825  11.088   7.591  1.00  0.00     0.157 HD
ATOM     28  H11 UNL     1      -0.185  11.089   7.707  1.00  0.00     0.157 HD
ENDBRANCH   1  26
TORSDOF 6
ENDMDL
MODEL 4
REMARK VINA RESULT: -7.493789849      4.330      5.927
REMARK  6 active torsions:
REMARK  status: ('A' for Active; 'I' for Inactive)
REMARK    1  A    between atoms: N1_1  and  C1_4 
REMARK    2  A    between atoms: C2_9  and  C3_10 
REMARK    3  A    between atoms: C4_14  and  S1_15 
REMARK    4  A    between atoms: S1_15  and  N5_16 
REMARK    5  A    between atoms: C5_23  and  N7_24 
REMARK    6  A    between atoms: N7_24  and  N8_26 
ROOT
HETATM    1  C1  UNL     1      -0.471  11.321   9.335  1.00  0.00     0.144 A 
HETATM    2  N2  UNL     1       0.332  11.136  10.388  1.00  0.00    -0.283 N 
ATOM      3  H2  UNL     1       0.791  11.875  10.921  1.00  0.00     0.188 HD
HETATM    4  N3  UNL     1       0.435   9.844  10.625  1.00  0.00    -0.293 N 
ATOM      5  H3  UNL     1       0.989   9.434  11.377  1.00  0.00     0.187 HD
HETATM    6  C2  UNL     1      -0.293   9.141   9.742  1.00  0.00     0.126 A 
HETATM    7  C5  UNL     1      -0.884  10.062   8.901  1.00  0.00     0.124 A 
ENDROOT
BRANCH   6   8
HETATM    8  C3  UNL     1      -0.450   7.694   9.654  1.00  0.00     0.159 A 
HETATM    9  N4  UNL     1      -1.076   6.894  10.536  1.00  0.00    -0.240 N 
HETATM   10  O1  UNL     1      -1.004   5.662  10.108  1.00  0.00    -0.204 OA
ATOM     11  H4  UNL     1      -1.532   7.199  11.396  1.00  0.00     0.196 HD
HETATM   12  C4  UNL     1      -0.356   5.607   8.978  1.00  0.00     0.287 A 
HETATM   13  N6  UNL     1      -0.003   6.878   8.684  1.00  0.00    -0.307 N 
ATOM     14  H6  UNL     1       0.519   7.170   7.858  1.00  0.00     0.170 HD
BRANCH  12  15
HETATM   15  S1  UNL     1       0.008   4.177   8.002  1.00  0.00     0.297 S 
HETATM   16  O2  UNL     1       1.413   3.747   8.369  1.00  0.00    -0.197 OA
HETATM   17  O3  UNL     1      -0.995   3.123   8.304  1.00  0.00    -0.197 OA
BRANCH  15  18
HETATM   18  N5  UNL     1      -0.012   4.667   6.363  1.00  0.00    -0.321 N 
ATOM     19  H52 UNL     1      -0.524   5.466   5.987  1.00  0.00     0.169 HD
ATOM     20  H51 UNL     1       0.577   4.015   5.846  1.00  0.00     0.169 HD
ENDBRANCH  15  18
ENDBRANCH  12  15
ENDBRANCH   6   8
BRANCH   7  21
HETATM   21  N7  UNL     1      -1.749   9.768   7.807  1.00  0.00    -0.302 N 
ATOM     22  H7  UNL     1      -1.340   9.671   6.878  1.00  0.00     0.186 HD
BRANCH  21  23
HETATM   23  N8  UNL     1      -3.130   9.606   7.943  1.00  0.00    -0.344 N 
ATOM     24  H82 UNL     1      -3.690   9.627   7.090  1.00  0.00     0.176 HD
ATOM     25  H81 UNL     1      -3.593   9.471   8.841  1.00  0.00     0.176 HD
ENDBRANCH  21  23
ENDBRANCH   7  21
BRANCH   1  26
HETATM   26  N1  UNL     1      -0.832  12.443   8.780  1.00  0.00    -0.382 N 
ATOM     27  H12 UNL     1      -0.463  13.358   9.041  1.00  0.00     0.157 HD
ATOM     28  H11 UNL     1      -1.508  12.590   8.030  1.00  0.00     0.157 HD
ENDBRANCH   1  26
TORSDOF 6
ENDMDL
MODEL 5
REMARK VINA RESULT: -7.486928258      1.169      2.337
REMARK  6 active torsions:
REMARK  status: ('A' for Active; 'I' for Inactive)
REMARK    1  A    between atoms: N1_1  and  C1_4 
REMARK    2  A    between atoms: C2_9  and  C3_10 
REMARK    3  A    between atoms: C4_14  and  S1_15 
REMARK    4  A    between atoms: S1_15  and  N5_16 
REMARK    5  A    between atoms: C5_23  and  N7_24 
REMARK    6  A    between atoms: N7_24  and  N8_26 
ROOT
HETATM    1  C1  UNL     1      -1.137  10.298   8.784  1.00  0.00     0.144 A 
HETATM    2  N2  UNL     1      -0.624  11.353   9.427  1.00  0.00    -0.283 N 
ATOM      3  H2  UNL     1      -0.367  12.242   8.998  1.00  0.00     0.188 HD
HETATM    4  N3  UNL     1      -0.503  11.055  10.705  1.00  0.00    -0.293 N 
ATOM      5  H3  UNL     1      -0.137  11.688  11.416  1.00  0.00     0.187 HD
HETATM    6  C2  UNL     1      -0.929   9.804  10.943  1.00  0.00     0.126 A 
HETATM    7  C5  UNL     1      -1.341   9.293   9.729  1.00  0.00     0.124 A 
ENDROOT
BRANCH   6   8
HETATM    8  C3  UNL     1      -0.964   9.091  12.215  1.00  0.00     0.159 A 
HETATM    9  N4  UNL     1      -0.048   8.222  12.680  1.00  0.00    -0.240 N 
HETATM   10  O1  UNL     1      -0.435   7.796  13.853  1.00  0.00    -0.204 OA
ATOM     11  H4  UNL     1       0.805   7.943  12.197  1.00  0.00     0.196 HD
HETATM   12  C4  UNL     1      -1.568   8.344  14.189  1.00  0.00     0.287 A 
HETATM   13  N6  UNL     1      -1.910   9.159  13.167  1.00  0.00    -0.307 N 
ATOM     14  H6  UNL     1      -2.752   9.734  13.125  1.00  0.00     0.170 HD
BRANCH  12  15
HETATM   15  S1  UNL     1      -2.499   8.094  15.672  1.00  0.00     0.297 S 
HETATM   16  O2  UNL     1      -2.684   9.459  16.303  1.00  0.00    -0.197 OA
HETATM   17  O3  UNL     1      -3.797   7.461  15.322  1.00  0.00    -0.197 OA
BRANCH  15  18
HETATM   18  N5  UNL     1      -1.544   7.127  16.712  1.00  0.00    -0.321 N 
ATOM     19  H52 UNL     1      -1.655   6.124  16.859  1.00  0.00     0.169 HD
ATOM     20  H51 UNL     1      -0.856   7.742  17.146  1.00  0.00     0.169 HD
ENDBRANCH  15  18
ENDBRANCH  12  15
ENDBRANCH   6   8
BRANCH   7  21
HETATM   21  N7  UNL     1      -1.871   7.990   9.501  1.00  0.00    -0.302 N 
ATOM     22  H7  UNL     1      -2.884   7.873   9.500  1.00  0.00     0.186 HD
BRANCH  21  23
HETATM   23  N8  UNL     1      -1.073   6.865   9.280  1.00  0.00    -0.344 N 
ATOM     24  H82 UNL     1      -0.528   6.840   8.419  1.00  0.00     0.176 HD
ATOM     25  H81 UNL     1      -1.015   6.083   9.932  1.00  0.00     0.176 HD
ENDBRANCH  21  23
ENDBRANCH   7  21
BRANCH   1  26
HETATM   26  N1  UNL     1      -1.413  10.180   7.516  1.00  0.00    -0.382 N 
ATOM     27  H12 UNL     1      -1.005   9.475   6.903  1.00  0.00     0.157 HD
ATOM     28  H11 UNL     1      -2.049  10.744   6.952  1.00  0.00     0.157 HD
ENDBRANCH   1  26
TORSDOF 6
ENDMDL
