MODEL 1
REMARK VINA RESULT: -7.283369358      0.000      0.000
REMARK  7 active torsions:
REMARK  status: ('A' for Active; 'I' for Inactive)
REMARK    1  A    between atoms: N1_1  and  C1_4 
REMARK    2  A    between atoms: C5_13  and  C6_14 
REMARK    3  A    between atoms: C6_14  and  C7_16 
REMARK    4  A    between atoms: C7_16  and  O3_17 
REMARK    5  A    between atoms: O3_17  and  C8_18 
REMARK    6  A    between atoms: C8_18  and  O5_20 
REMARK    7  A    between atoms: O5_20  and  N4_21 
ROOT
HETATM    1  C1  UNL     1      -2.512   8.834  15.930  1.00  0.00     0.679 A 
HETATM    2  N2  UNL     1      -2.112   7.779  16.658  1.00  0.00    -0.154 N 
ATOM      3  H2  UNL     1      -2.388   7.675  17.635  1.00  0.00     0.187 HD
HETATM    4  C2  UNL     1      -1.339   6.868  16.054  1.00  0.00     0.288 A 
HETATM    5  O1  UNL     1      -0.958   5.868  16.734  1.00  0.00    -0.265 OA
HETATM    6  C3  UNL     1      -0.951   6.990  14.724  1.00  0.00     0.130 A 
HETATM    7  N3  UNL     1      -0.201   6.235  13.907  1.00  0.00    -0.359 N 
ATOM      8  H3  UNL     1       0.242   5.361  14.189  1.00  0.00     0.165 HD
HETATM    9  C4  UNL     1      -0.103   6.760  12.687  1.00  0.00     0.106 A 
HETATM   10  C5  UNL     1      -0.850   7.951  12.723  1.00  0.00     0.061 A 
HETATM   11  C9  UNL     1      -1.378   8.089  14.002  1.00  0.00     0.097 A 
HETATM   12  N5  UNL     1      -2.158   9.002  14.618  1.00  0.00    -0.189 N 
ATOM     13  H5  UNL     1      -2.485   9.821  14.104  1.00  0.00     0.184 HD
ENDROOT
BRANCH  10  14
HETATM   14  C6  UNL     1      -1.006   8.854  11.597  1.00  0.00     0.208 C 
HETATM   15  O2  UNL     1      -2.137   9.454  11.493  1.00  0.00    -0.285 OA
BRANCH  14  16
HETATM   16  C7  UNL     1      -0.040   9.165  10.567  1.00  0.00     0.203 C 
BRANCH  16  17
HETATM   17  O3  UNL     1       0.077  10.534  10.255  1.00  0.00    -0.262 OA
BRANCH  17  18
HETATM   18  C8  UNL     1      -0.101  11.079   9.002  1.00  0.00     0.432 C 
HETATM   19  O4  UNL     1       0.895  11.585   8.444  1.00  0.00    -0.227 OA
BRANCH  18  20
HETATM   20  O5  UNL     1      -1.339  11.083   8.354  1.00  0.00    -0.182 OA
BRANCH  20  21
HETATM   21  N4  UNL     1      -2.501  11.287   9.073  1.00  0.00    -0.300 N 
ATOM     22  H42 UNL     1      -2.684  12.214   9.458  1.00  0.00     0.184 HD
ATOM     23  H41 UNL     1      -3.160  10.522   9.214  1.00  0.00     0.184 HD
ENDBRANCH  20  21
ENDBRANCH  18  20
ENDBRANCH  17  18
ENDBRANCH  16  17
ENDBRANCH  14  16
ENDBRANCH  10  14
BRANCH   1  24
HETATM   24  N1  UNL     1      -3.259   9.759  16.436  1.00  0.00    -0.234 N 
ATOM     25  H12 UNL     1      -2.801  10.650  16.623  1.00  0.00     0.174 HD
ATOM     26  H11 UNL     1      -4.247   9.597  16.635  1.00  0.00     0.174 HD
ENDBRANCH   1  24
TORSDOF 7
ENDMDL
MODEL 2
REMARK VINA RESULT: -7.192437407      1.172      1.287
REMARK  7 active torsions:
REMARK  status: ('A' for Active; 'I' for Inactive)
REMARK    1  A    between atoms: N1_1  and  C1_4 
REMARK    2  A    between atoms: C5_13  and  C6_14 
REMARK    3  A    between atoms: C6_14  and  C7_16 
REMARK    4  A    between atoms: C7_16  and  O3_17 
REMARK    5  A    between atoms: O3_17  and  C8_18 
REMARK    6  A    between atoms: C8_18  and  O5_20 
REMARK    7  A    between atoms: O5_20  and  N4_21 
ROOT
HETATM    1  C1  UNL     1      -2.326   8.297  15.630  1.00  0.00     0.679 A 
HETATM    2  N2  UNL     1      -1.595   7.349  16.240  1.00  0.00    -0.154 N 
ATOM      3  H2  UNL     1      -1.769   7.089  17.211  1.00  0.00     0.187 HD
HETATM    4  C2  UNL     1      -0.629   6.757  15.525  1.00  0.00     0.288 A 
HETATM    5  O1  UNL     1       0.065   5.861  16.093  1.00  0.00    -0.265 OA
HETATM    6  C3  UNL     1      -0.374   7.096  14.201  1.00  0.00     0.130 A 
HETATM    7  N3  UNL     1       0.512   6.664  13.291  1.00  0.00    -0.359 N 
ATOM      8  H3  UNL     1       1.205   5.938  13.472  1.00  0.00     0.165 HD
HETATM    9  C4  UNL     1       0.380   7.293  12.123  1.00  0.00     0.106 A 
HETATM   10  C5  UNL     1      -0.675   8.205  12.299  1.00  0.00     0.061 A 
HETATM   11  C9  UNL     1      -1.143   8.077  13.603  1.00  0.00     0.097 A 
HETATM   12  N5  UNL     1      -2.115   8.668  14.329  1.00  0.00    -0.189 N 
ATOM     13  H5  UNL     1      -2.695   9.394  13.907  1.00  0.00     0.184 HD
ENDROOT
BRANCH  10  14
HETATM   14  C6  UNL     1      -1.154   9.112  11.270  1.00  0.00     0.208 C 
HETATM   15  O2  UNL     1      -1.680  10.212  11.673  1.00  0.00    -0.285 OA
BRANCH  14  16
HETATM   16  C7  UNL     1      -1.113   8.929   9.836  1.00  0.00     0.203 C 
BRANCH  16  17
HETATM   17  O3  UNL     1      -0.100   9.651   9.174  1.00  0.00    -0.262 OA
BRANCH  17  18
HETATM   18  C8  UNL     1      -0.272  10.871   8.557  1.00  0.00     0.432 C 
HETATM   19  O4  UNL     1      -0.769  10.874   7.411  1.00  0.00    -0.227 OA
BRANCH  18  20
HETATM   20  O5  UNL     1       0.088  12.076   9.164  1.00  0.00    -0.182 OA
BRANCH  20  21
HETATM   21  N4  UNL     1       0.407  12.111  10.507  1.00  0.00    -0.300 N 
ATOM     22  H42 UNL     1       1.377  11.963  10.787  1.00  0.00     0.184 HD
ATOM     23  H41 UNL     1      -0.317  12.282  11.204  1.00  0.00     0.184 HD
ENDBRANCH  20  21
ENDBRANCH  18  20
ENDBRANCH  17  18
ENDBRANCH  16  17
ENDBRANCH  14  16
ENDBRANCH  10  14
BRANCH   1  24
HETATM   24  N1  UNL     1      -3.276   8.917  16.248  1.00  0.00    -0.234 N 
ATOM     25  H12 UNL     1      -3.371   8.710  17.242  1.00  0.00     0.174 HD
ATOM     26  H11 UNL     1      -3.890   9.570  15.761  1.00  0.00     0.174 HD
ENDBRANCH   1  24
TORSDOF 7
ENDMDL
MODEL 3
REMARK VINA RESULT: -7.093889768      2.573      3.398
REMARK  7 active torsions:
REMARK  status: ('A' for Active; 'I' for Inactive)
REMARK    1  A    between atoms: N1_1  and  C1_4 
REMARK    2  A    between atoms: C5_13  and  C6_14 
REMARK    3  A    between atoms: C6_14  and  C7_16 
REMARK    4  A    between atoms: C7_16  and  O3_17 
REMARK    5  A    between atoms: O3_17  and  C8_18 
REMARK    6  A    between atoms: C8_18  and  O5_20 
REMARK    7  A    between atoms: O5_20  and  N4_21 
ROOT
HETATM    1  C1  UNL     1       0.087   6.673  13.851  1.00  0.00     0.679 A 
HETATM    2  N2  UNL     1       1.000   5.789  13.415  1.00  0.00    -0.154 N 
ATOM      3  H2  UNL     1       1.439   5.124  14.052  1.00  0.00     0.187 HD
HETATM    4  C2  UNL     1       1.312   5.814  12.113  1.00  0.00     0.288 A 
HETATM    5  O1  UNL     1       2.171   4.982  11.693  1.00  0.00    -0.265 OA
HETATM    6  C3  UNL     1       0.726   6.712  11.228  1.00  0.00     0.130 A 
HETATM    7  N3  UNL     1       0.862   6.935   9.912  1.00  0.00    -0.359 N 
ATOM      8  H3  UNL     1       1.494   6.408   9.308  1.00  0.00     0.165 HD
HETATM    9  C4  UNL     1       0.077   7.923   9.485  1.00  0.00     0.106 A 
HETATM   10  C5  UNL     1      -0.620   8.373  10.620  1.00  0.00     0.061 A 
HETATM   11  C9  UNL     1      -0.208   7.611  11.709  1.00  0.00     0.097 A 
HETATM   12  N5  UNL     1      -0.518   7.579  13.022  1.00  0.00    -0.189 N 
ATOM     13  H5  UNL     1      -1.205   8.233  13.398  1.00  0.00     0.184 HD
ENDROOT
BRANCH  10  14
HETATM   14  C6  UNL     1      -1.587   9.456  10.611  1.00  0.00     0.208 C 
HETATM   15  O2  UNL     1      -1.671  10.161  11.682  1.00  0.00    -0.285 OA
BRANCH  14  16
HETATM   16  C7  UNL     1      -2.476   9.844   9.538  1.00  0.00     0.203 C 
BRANCH  16  17
HETATM   17  O3  UNL     1      -2.191  11.094   8.953  1.00  0.00    -0.262 OA
BRANCH  17  18
HETATM   18  C8  UNL     1      -1.003  11.429   8.340  1.00  0.00     0.432 C 
HETATM   19  O4  UNL     1      -0.776  10.939   7.213  1.00  0.00    -0.227 OA
BRANCH  18  20
HETATM   20  O5  UNL     1      -0.068  12.283   8.931  1.00  0.00    -0.182 OA
BRANCH  20  21
HETATM   21  N4  UNL     1       0.380  12.042  10.214  1.00  0.00    -0.300 N 
ATOM     22  H42 UNL     1      -0.287  12.089  10.985  1.00  0.00     0.184 HD
ATOM     23  H41 UNL     1       1.361  11.823  10.384  1.00  0.00     0.184 HD
ENDBRANCH  20  21
ENDBRANCH  18  20
ENDBRANCH  17  18
ENDBRANCH  16  17
ENDBRANCH  14  16
ENDBRANCH  10  14
BRANCH   1  24
HETATM   24  N1  UNL     1      -0.270   6.717  15.092  1.00  0.00    -0.234 N 
ATOM     25  H12 UNL     1       0.472   6.917  15.763  1.00  0.00     0.174 HD
ATOM     26  H11 UNL     1      -1.237   6.558  15.374  1.00  0.00     0.174 HD
ENDBRANCH   1  24
TORSDOF 7
ENDMDL
MODEL 4
REMARK VINA RESULT: -7.084342493      2.744      6.863
REMARK  7 active torsions:
REMARK  status: ('A' for Active; 'I' for Inactive)
REMARK    1  A    between atoms: N1_1  and  C1_4 
REMARK    2  A    between atoms: C5_13  and  C6_14 
REMARK    3  A    between atoms: C6_14  and  C7_16 
REMARK    4  A    between atoms: C7_16  and  O3_17 
REMARK    5  A    between atoms: O3_17  and  C8_18 
REMARK    6  A    between atoms: C8_18  and  O5_20 
REMARK    7  A    between atoms: O5_20  and  N4_21 
ROOT
HETATM    1  C1  UNL     1      -0.347  10.047  10.640  1.00  0.00     0.679 A 
HETATM    2  N2  UNL     1       0.029   9.263   9.615  1.00  0.00    -0.154 N 
ATOM      3  H2  UNL     1       0.383   9.662   8.746  1.00  0.00     0.187 HD
HETATM    4  C2  UNL     1      -0.078   7.938   9.780  1.00  0.00     0.288 A 
HETATM    5  O1  UNL     1       0.276   7.191   8.819  1.00  0.00    -0.265 OA
HETATM    6  C3  UNL     1      -0.558   7.374  10.956  1.00  0.00     0.130 A 
HETATM    7  N3  UNL     1      -0.757   6.110  11.361  1.00  0.00    -0.359 N 
ATOM      8  H3  UNL     1      -0.559   5.291  10.787  1.00  0.00     0.165 HD
HETATM    9  C4  UNL     1      -1.244   6.050  12.600  1.00  0.00     0.106 A 
HETATM   10  C5  UNL     1      -1.370   7.384  13.026  1.00  0.00     0.061 A 
HETATM   11  C9  UNL     1      -0.938   8.209  11.991  1.00  0.00     0.097 A 
HETATM   12  N5  UNL     1      -0.827   9.543  11.818  1.00  0.00    -0.189 N 
ATOM     13  H5  UNL     1      -1.102  10.177  12.569  1.00  0.00     0.184 HD
ENDROOT
BRANCH  10  14
HETATM   14  C6  UNL     1      -1.876   7.785  14.326  1.00  0.00     0.208 C 
HETATM   15  O2  UNL     1      -2.002   9.047  14.530  1.00  0.00    -0.285 OA
BRANCH  14  16
HETATM   16  C7  UNL     1      -2.259   6.934  15.430  1.00  0.00     0.203 C 
BRANCH  16  17
HETATM   17  O3  UNL     1      -1.275   6.772  16.425  1.00  0.00    -0.262 OA
BRANCH  17  18
HETATM   18  C8  UNL     1      -1.528   6.578  17.766  1.00  0.00     0.432 C 
HETATM   19  O4  UNL     1      -2.540   5.912  18.073  1.00  0.00    -0.227 OA
BRANCH  18  20
HETATM   20  O5  UNL     1      -0.703   7.095  18.768  1.00  0.00    -0.182 OA
BRANCH  20  21
HETATM   21  N4  UNL     1      -0.343   6.312  19.847  1.00  0.00    -0.300 N 
ATOM     22  H42 UNL     1      -0.516   5.308  19.806  1.00  0.00     0.184 HD
ATOM     23  H41 UNL     1       0.087   6.735  20.669  1.00  0.00     0.184 HD
ENDBRANCH  20  21
ENDBRANCH  18  20
ENDBRANCH  17  18
ENDBRANCH  16  17
ENDBRANCH  14  16
ENDBRANCH  10  14
BRANCH   1  24
HETATM   24  N1  UNL     1      -0.276  11.335  10.564  1.00  0.00    -0.234 N 
ATOM     25  H12 UNL     1       0.138  11.807  11.367  1.00  0.00     0.174 HD
ATOM     26  H11 UNL     1      -0.619  11.841   9.747  1.00  0.00     0.174 HD
ENDBRANCH   1  24
TORSDOF 7
ENDMDL
MODEL 5
REMARK VINA RESULT: -7.083129794      3.181      4.737
REMARK  7 active torsions:
REMARK  status: ('A' for Active; 'I' for Inactive)
REMARK    1  A    between atoms: N1_1  and  C1_4 
REMARK    2  A    between atoms: C5_13  and  C6_14 
REMARK    3  A    between atoms: C6_14  and  C7_16 
REMARK    4  A    between atoms: C7_16  and  O3_17 
REMARK    5  A    between atoms: O3_17  and  C8_18 
REMARK    6  A    between atoms: C8_18  and  O5_20 
REMARK    7  A    between atoms: O5_20  and  N4_21 
ROOT
HETATM    1  C1  UNL     1       0.331   6.183   9.030  1.00  0.00     0.679 A 
HETATM    2  N2  UNL     1       1.071   5.970  10.131  1.00  0.00    -0.154 N 
ATOM      3  H2  UNL     1       1.810   5.267  10.144  1.00  0.00     0.187 HD
HETATM    4  C2  UNL     1       0.802   6.716  11.210  1.00  0.00     0.288 A 
HETATM    5  O1  UNL     1       1.497   6.522  12.253  1.00  0.00    -0.265 OA
HETATM    6  C3  UNL     1      -0.200   7.679  11.214  1.00  0.00     0.130 A 
HETATM    7  N3  UNL     1      -0.655   8.535  12.141  1.00  0.00    -0.359 N 
ATOM      8  H3  UNL     1      -0.280   8.602  13.087  1.00  0.00     0.165 HD
HETATM    9  C4  UNL     1      -1.655   9.288  11.682  1.00  0.00     0.106 A 
HETATM   10  C5  UNL     1      -1.859   8.881  10.353  1.00  0.00     0.061 A 
HETATM   11  C9  UNL     1      -0.945   7.873  10.065  1.00  0.00     0.097 A 
HETATM   12  N5  UNL     1      -0.668   7.118   8.982  1.00  0.00    -0.189 N 
ATOM     13  H5  UNL     1      -1.205   7.244   8.123  1.00  0.00     0.184 HD
ENDROOT
BRANCH  10  14
HETATM   14  C6  UNL     1      -2.869   9.440   9.471  1.00  0.00     0.208 C 
HETATM   15  O2  UNL     1      -4.046   8.932   9.550  1.00  0.00    -0.285 OA
BRANCH  14  16
HETATM   16  C7  UNL     1      -2.713  10.506   8.506  1.00  0.00     0.203 C 
BRANCH  16  17
HETATM   17  O3  UNL     1      -1.840  11.540   8.898  1.00  0.00    -0.262 OA
BRANCH  17  18
HETATM   18  C8  UNL     1      -0.539  11.684   8.468  1.00  0.00     0.432 C 
HETATM   19  O4  UNL     1      -0.289  11.405   7.277  1.00  0.00    -0.227 OA
BRANCH  18  20
HETATM   20  O5  UNL     1       0.485  12.123   9.311  1.00  0.00    -0.182 OA
BRANCH  20  21
HETATM   21  N4  UNL     1       0.349  12.024  10.682  1.00  0.00    -0.300 N 
ATOM     22  H42 UNL     1       1.175  11.820  11.245  1.00  0.00     0.184 HD
ATOM     23  H41 UNL     1      -0.563  12.154  11.119  1.00  0.00     0.184 HD
ENDBRANCH  20  21
ENDBRANCH  18  20
ENDBRANCH  17  18
ENDBRANCH  16  17
ENDBRANCH  14  16
ENDBRANCH  10  14
BRANCH   1  24
HETATM   24  N1  UNL     1       0.525   5.506   7.946  1.00  0.00    -0.234 N 
ATOM     25  H12 UNL     1       1.498   5.359   7.680  1.00  0.00     0.174 HD
ATOM     26  H11 UNL     1      -0.256   5.146   7.396  1.00  0.00     0.174 HD
ENDBRANCH   1  24
TORSDOF 7
ENDMDL
