MODEL 1
REMARK VINA RESULT: -8.620249914      0.000      0.000
REMARK  5 active torsions:
REMARK  status: ('A' for Active; 'I' for Inactive)
REMARK    1  A    between atoms: N1_1  and  N2_4 
REMARK    2  A    between atoms: N2_4  and  N3_6 
REMARK    3  A    between atoms: C2_13  and  N7_14 
REMARK    4  A    between atoms: C3_17  and  C4_18 
REMARK       I    between atoms: C4_18  and  N8_20 
REMARK    5  A    between atoms: N8_20  and  C5_22 
ROOT
HETATM    1  N3  UNL     1      -2.369   7.742  16.016  1.00  0.00    -0.163 N 
HETATM    2  N4  UNL     1      -1.830   6.868  16.853  1.00  0.00     0.004 NA
HETATM    3  N5  UNL     1      -0.782   6.272  16.276  1.00  0.00    -0.266 N 
ATOM      4  H5  UNL     1      -0.195   5.559  16.709  1.00  0.00     0.186 HD
HETATM    5  C1  UNL     1      -0.625   6.759  15.038  1.00  0.00     0.150 A 
HETATM    6  N6  UNL     1       0.222   6.560  14.007  1.00  0.00    -0.325 N 
ATOM      7  H6  UNL     1       0.969   5.875  14.115  1.00  0.00     0.169 HD
HETATM    8  C2  UNL     1       0.123   7.224  12.845  1.00  0.00     0.116 A 
HETATM    9  C3  UNL     1      -0.881   8.153  12.681  1.00  0.00     0.078 A 
HETATM   10  C6  UNL     1      -1.766   8.385  13.713  1.00  0.00     0.058 A 
HETATM   11  C7  UNL     1      -1.637   7.691  14.883  1.00  0.00     0.120 A 
ENDROOT
BRANCH   9  12
HETATM   12  C4  UNL     1      -1.009   8.888  11.429  1.00  0.00     0.273 C 
HETATM   13  O1  UNL     1      -1.354   8.274  10.377  1.00  0.00    -0.267 OA
HETATM   14  N8  UNL     1      -0.743  10.288  11.406  1.00  0.00    -0.153 N 
ATOM     15  H8  UNL     1      -0.487  10.783  12.261  1.00  0.00     0.187 HD
BRANCH  14  16
HETATM   16  C5  UNL     1      -0.832  10.924  10.270  1.00  0.00     0.710 A 
HETATM   17  N9  UNL     1      -1.887  10.926   9.434  1.00  0.00    -0.117 N 
HETATM   18  N10 UNL     1      -1.578  11.689   8.401  1.00  0.00     0.006 NA
ATOM     19  H9  UNL     1      -2.767  10.428   9.574  1.00  0.00     0.202 HD
HETATM   20  N11 UNL     1      -0.359  12.180   8.542  1.00  0.00     0.006 NA
HETATM   21  N12 UNL     1       0.085  11.704   9.691  1.00  0.00    -0.117 N 
ATOM     22  H12 UNL     1       1.005  11.905  10.083  1.00  0.00     0.202 HD
ENDBRANCH  14  16
ENDBRANCH   9  12
BRANCH   8  23
HETATM   23  N7  UNL     1       0.956   7.006  11.875  1.00  0.00    -0.385 N 
ATOM     24  H72 UNL     1       1.802   7.571  11.803  1.00  0.00     0.157 HD
ATOM     25  H71 UNL     1       0.780   6.278  11.182  1.00  0.00     0.157 HD
ENDBRANCH   8  23
BRANCH   1  26
HETATM   26  N2  UNL     1      -3.493   8.568  16.261  1.00  0.00    -0.229 N 
ATOM     27  H2  UNL     1      -4.445   8.203  16.219  1.00  0.00     0.209 HD
BRANCH  26  28
HETATM   28  N1  UNL     1      -3.255   9.803  16.539  1.00  0.00    -0.329 N 
ATOM     29  H12 UNL     1      -2.303  10.122  16.720  1.00  0.00     0.178 HD
ATOM     30  H11 UNL     1      -4.058  10.430  16.567  1.00  0.00     0.178 HD
ENDBRANCH  26  28
ENDBRANCH   1  26
TORSDOF 5
ENDMDL
MODEL 2
REMARK VINA RESULT: -8.534537946      0.840      1.277
REMARK  5 active torsions:
REMARK  status: ('A' for Active; 'I' for Inactive)
REMARK    1  A    between atoms: N1_1  and  N2_4 
REMARK    2  A    between atoms: N2_4  and  N3_6 
REMARK    3  A    between atoms: C2_13  and  N7_14 
REMARK    4  A    between atoms: C3_17  and  C4_18 
REMARK       I    between atoms: C4_18  and  N8_20 
REMARK    5  A    between atoms: N8_20  and  C5_22 
ROOT
HETATM    1  N3  UNL     1      -2.781   7.208  16.314  1.00  0.00    -0.163 N 
HETATM    2  N4  UNL     1      -2.087   6.546  17.229  1.00  0.00     0.004 NA
HETATM    3  N5  UNL     1      -0.861   6.281  16.767  1.00  0.00    -0.266 N 
ATOM      4  H5  UNL     1      -0.132   5.782  17.276  1.00  0.00     0.186 HD
HETATM    5  C1  UNL     1      -0.742   6.776  15.527  1.00  0.00     0.150 A 
HETATM    6  N6  UNL     1       0.218   6.823  14.580  1.00  0.00    -0.325 N 
ATOM      7  H6  UNL     1       1.121   6.394  14.778  1.00  0.00     0.169 HD
HETATM    8  C2  UNL     1       0.035   7.411  13.387  1.00  0.00     0.116 A 
HETATM    9  C3  UNL     1      -1.179   7.997  13.102  1.00  0.00     0.078 A 
HETATM   10  C6  UNL     1      -2.185   7.969  14.045  1.00  0.00     0.058 A 
HETATM   11  C7  UNL     1      -1.965   7.362  15.250  1.00  0.00     0.120 A 
ENDROOT
BRANCH   9  12
HETATM   12  C4  UNL     1      -1.403   8.642  11.814  1.00  0.00     0.273 C 
HETATM   13  O1  UNL     1      -1.769   7.947  10.822  1.00  0.00    -0.267 OA
HETATM   14  N8  UNL     1      -1.204  10.048  11.689  1.00  0.00    -0.153 N 
ATOM     15  H8  UNL     1      -0.930  10.608  12.497  1.00  0.00     0.187 HD
BRANCH  14  16
HETATM   16  C5  UNL     1      -1.378  10.604  10.522  1.00  0.00     0.710 A 
HETATM   17  N9  UNL     1      -0.485  11.355   9.851  1.00  0.00    -0.117 N 
HETATM   18  N10 UNL     1      -1.048  11.725   8.714  1.00  0.00     0.006 NA
ATOM     19  H9  UNL     1       0.456  11.594  10.164  1.00  0.00     0.202 HD
HETATM   20  N11 UNL     1      -2.273  11.238   8.628  1.00  0.00     0.006 NA
HETATM   21  N12 UNL     1      -2.462  10.553   9.741  1.00  0.00    -0.117 N 
ATOM     22  H12 UNL     1      -3.320  10.054   9.974  1.00  0.00     0.202 HD
ENDBRANCH  14  16
ENDBRANCH   9  12
BRANCH   8  23
HETATM   23  N7  UNL     1       0.981   7.438  12.500  1.00  0.00    -0.385 N 
ATOM     24  H72 UNL     1       1.583   6.623  12.384  1.00  0.00     0.157 HD
ATOM     25  H71 UNL     1       1.132   8.260  11.915  1.00  0.00     0.157 HD
ENDBRANCH   8  23
BRANCH   1  26
HETATM   26  N2  UNL     1      -4.116   7.665  16.430  1.00  0.00    -0.229 N 
ATOM     27  H2  UNL     1      -4.454   8.470  15.901  1.00  0.00     0.209 HD
BRANCH  26  28
HETATM   28  N1  UNL     1      -4.884   7.015  17.234  1.00  0.00    -0.329 N 
ATOM     29  H12 UNL     1      -4.730   7.049  18.242  1.00  0.00     0.178 HD
ATOM     30  H11 UNL     1      -5.639   6.476  16.812  1.00  0.00     0.178 HD
ENDBRANCH  26  28
ENDBRANCH   1  26
TORSDOF 5
ENDMDL
MODEL 3
REMARK VINA RESULT: -8.324034371      1.610      2.012
REMARK  5 active torsions:
REMARK  status: ('A' for Active; 'I' for Inactive)
REMARK    1  A    between atoms: N1_1  and  N2_4 
REMARK    2  A    between atoms: N2_4  and  N3_6 
REMARK    3  A    between atoms: C2_13  and  N7_14 
REMARK    4  A    between atoms: C3_17  and  C4_18 
REMARK       I    between atoms: C4_18  and  N8_20 
REMARK    5  A    between atoms: N8_20  and  C5_22 
ROOT
HETATM    1  N3  UNL     1      -2.805   7.062  16.256  1.00  0.00    -0.163 N 
HETATM    2  N4  UNL     1      -2.035   6.343  17.059  1.00  0.00     0.004 NA
HETATM    3  N5  UNL     1      -0.821   6.198  16.518  1.00  0.00    -0.266 N 
ATOM      4  H5  UNL     1      -0.045   5.687  16.937  1.00  0.00     0.186 HD
HETATM    5  C1  UNL     1      -0.788   6.832  15.338  1.00  0.00     0.150 A 
HETATM    6  N6  UNL     1       0.120   7.035  14.361  1.00  0.00    -0.325 N 
ATOM      7  H6  UNL     1       1.052   6.637  14.471  1.00  0.00     0.169 HD
HETATM    8  C2  UNL     1      -0.150   7.739  13.251  1.00  0.00     0.116 A 
HETATM    9  C3  UNL     1      -1.404   8.285  13.086  1.00  0.00     0.078 A 
HETATM   10  C6  UNL     1      -2.360   8.098  14.063  1.00  0.00     0.058 A 
HETATM   11  C7  UNL     1      -2.051   7.376  15.181  1.00  0.00     0.120 A 
ENDROOT
BRANCH   9  12
HETATM   12  C4  UNL     1      -1.722   9.055  11.889  1.00  0.00     0.273 C 
HETATM   13  O1  UNL     1      -1.457  10.291  11.853  1.00  0.00    -0.267 OA
HETATM   14  N8  UNL     1      -2.329   8.403  10.777  1.00  0.00    -0.153 N 
ATOM     15  H8  UNL     1      -2.520   7.401  10.802  1.00  0.00     0.187 HD
BRANCH  14  16
HETATM   16  C5  UNL     1      -2.636   9.113   9.726  1.00  0.00     0.710 A 
HETATM   17  N9  UNL     1      -1.798   9.883   9.008  1.00  0.00    -0.117 N 
HETATM   18  N10 UNL     1      -2.497  10.431   8.029  1.00  0.00     0.006 NA
ATOM     19  H9  UNL     1      -0.803  10.019   9.187  1.00  0.00     0.202 HD
HETATM   20  N11 UNL     1      -3.758  10.039   8.091  1.00  0.00     0.006 NA
HETATM   21  N12 UNL     1      -3.828   9.232   9.134  1.00  0.00    -0.117 N 
ATOM     22  H12 UNL     1      -4.678   8.763   9.446  1.00  0.00     0.202 HD
ENDBRANCH  14  16
ENDBRANCH   9  12
BRANCH   8  23
HETATM   23  N7  UNL     1       0.749   7.915  12.332  1.00  0.00    -0.385 N 
ATOM     24  H72 UNL     1       1.075   7.115  11.790  1.00  0.00     0.157 HD
ATOM     25  H71 UNL     1       1.134   8.840  12.141  1.00  0.00     0.157 HD
ENDBRANCH   8  23
BRANCH   1  26
HETATM   26  N2  UNL     1      -4.154   7.430  16.479  1.00  0.00    -0.229 N 
ATOM     27  H2  UNL     1      -4.594   8.192  15.963  1.00  0.00     0.209 HD
BRANCH  26  28
HETATM   28  N1  UNL     1      -4.799   6.754  17.366  1.00  0.00    -0.329 N 
ATOM     29  H12 UNL     1      -4.626   5.756  17.488  1.00  0.00     0.178 HD
ATOM     30  H11 UNL     1      -5.480   7.266  17.927  1.00  0.00     0.178 HD
ENDBRANCH  26  28
ENDBRANCH   1  26
TORSDOF 5
ENDMDL
MODEL 4
REMARK VINA RESULT: -8.293942978      1.417      1.845
REMARK  5 active torsions:
REMARK  status: ('A' for Active; 'I' for Inactive)
REMARK    1  A    between atoms: N1_1  and  N2_4 
REMARK    2  A    between atoms: N2_4  and  N3_6 
REMARK    3  A    between atoms: C2_13  and  N7_14 
REMARK    4  A    between atoms: C3_17  and  C4_18 
REMARK       I    between atoms: C4_18  and  N8_20 
REMARK    5  A    between atoms: N8_20  and  C5_22 
ROOT
HETATM    1  N3  UNL     1      -1.356   7.045  16.190  1.00  0.00    -0.163 N 
HETATM    2  N4  UNL     1      -0.666   6.122  16.845  1.00  0.00     0.004 NA
HETATM    3  N5  UNL     1       0.240   5.569  16.033  1.00  0.00    -0.266 N 
ATOM      4  H5  UNL     1       0.896   4.833  16.294  1.00  0.00     0.186 HD
HETATM    5  C1  UNL     1       0.149   6.134  14.822  1.00  0.00     0.150 A 
HETATM    6  N6  UNL     1       0.770   6.004  13.631  1.00  0.00    -0.325 N 
ATOM      7  H6  UNL     1       1.519   5.317  13.543  1.00  0.00     0.169 HD
HETATM    8  C2  UNL     1       0.445   6.740  12.556  1.00  0.00     0.116 A 
HETATM    9  C3  UNL     1      -0.563   7.673  12.656  1.00  0.00     0.078 A 
HETATM   10  C6  UNL     1      -1.221   7.835  13.857  1.00  0.00     0.058 A 
HETATM   11  C7  UNL     1      -0.866   7.069  14.932  1.00  0.00     0.120 A 
ENDROOT
BRANCH   9  12
HETATM   12  C4  UNL     1      -0.934   8.485  11.504  1.00  0.00     0.273 C 
HETATM   13  O1  UNL     1      -0.034   9.087  10.849  1.00  0.00    -0.267 OA
HETATM   14  N8  UNL     1      -2.305   8.590  11.131  1.00  0.00    -0.153 N 
ATOM     15  H8  UNL     1      -3.025   8.084  11.649  1.00  0.00     0.187 HD
BRANCH  14  16
HETATM   16  C5  UNL     1      -2.622   9.345  10.116  1.00  0.00     0.710 A 
HETATM   17  N9  UNL     1      -2.182  10.594   9.879  1.00  0.00    -0.117 N 
HETATM   18  N10 UNL     1      -2.737  11.007   8.752  1.00  0.00     0.006 NA
ATOM     19  H9  UNL     1      -1.537  11.126  10.463  1.00  0.00     0.202 HD
HETATM   20  N11 UNL     1      -3.520  10.066   8.254  1.00  0.00     0.006 NA
HETATM   21  N12 UNL     1      -3.440   9.054   9.099  1.00  0.00    -0.117 N 
ATOM     22  H12 UNL     1      -3.935   8.169   8.990  1.00  0.00     0.202 HD
ENDBRANCH  14  16
ENDBRANCH   9  12
BRANCH   8  23
HETATM   23  N7  UNL     1       1.065   6.587  11.427  1.00  0.00    -0.385 N 
ATOM     24  H72 UNL     1       2.064   6.783  11.373  1.00  0.00     0.157 HD
ATOM     25  H71 UNL     1       0.570   6.274  10.592  1.00  0.00     0.157 HD
ENDBRANCH   8  23
BRANCH   1  26
HETATM   26  N2  UNL     1      -2.401   7.849  16.706  1.00  0.00    -0.229 N 
ATOM     27  H2  UNL     1      -2.217   8.762  17.124  1.00  0.00     0.209 HD
BRANCH  26  28
HETATM   28  N1  UNL     1      -3.594   7.372  16.622  1.00  0.00    -0.329 N 
ATOM     29  H12 UNL     1      -3.782   6.534  16.072  1.00  0.00     0.178 HD
ATOM     30  H11 UNL     1      -4.324   7.872  17.128  1.00  0.00     0.178 HD
ENDBRANCH  26  28
ENDBRANCH   1  26
TORSDOF 5
ENDMDL
MODEL 5
REMARK VINA RESULT: -8.276860879      1.143      1.280
REMARK  5 active torsions:
REMARK  status: ('A' for Active; 'I' for Inactive)
REMARK    1  A    between atoms: N1_1  and  N2_4 
REMARK    2  A    between atoms: N2_4  and  N3_6 
REMARK    3  A    between atoms: C2_13  and  N7_14 
REMARK    4  A    between atoms: C3_17  and  C4_18 
REMARK       I    between atoms: C4_18  and  N8_20 
REMARK    5  A    between atoms: N8_20  and  C5_22 
ROOT
HETATM    1  N3  UNL     1      -3.029   7.638  15.737  1.00  0.00    -0.163 N 
HETATM    2  N4  UNL     1      -2.874   6.499  16.395  1.00  0.00     0.004 NA
HETATM    3  N5  UNL     1      -2.198   5.625  15.642  1.00  0.00    -0.266 N 
ATOM      4  H5  UNL     1      -1.948   4.676  15.918  1.00  0.00     0.186 HD
HETATM    5  C1  UNL     1      -1.901   6.196  14.467  1.00  0.00     0.150 A 
HETATM    6  N6  UNL     1      -1.258   5.833  13.337  1.00  0.00    -0.325 N 
ATOM      7  H6  UNL     1      -0.865   4.894  13.279  1.00  0.00     0.169 HD
HETATM    8  C2  UNL     1      -1.115   6.654  12.285  1.00  0.00     0.116 A 
HETATM    9  C3  UNL     1      -1.640   7.927  12.346  1.00  0.00     0.078 A 
HETATM   10  C6  UNL     1      -2.304   8.334  13.484  1.00  0.00     0.058 A 
HETATM   11  C7  UNL     1      -2.432   7.472  14.537  1.00  0.00     0.120 A 
ENDROOT
BRANCH   9  12
HETATM   12  C4  UNL     1      -1.498   8.838  11.217  1.00  0.00     0.273 C 
HETATM   13  O1  UNL     1      -2.359   8.824  10.290  1.00  0.00    -0.267 OA
HETATM   14  N8  UNL     1      -0.388   9.731  11.172  1.00  0.00    -0.153 N 
ATOM     15  H8  UNL     1       0.292   9.755  11.932  1.00  0.00     0.187 HD
BRANCH  14  16
HETATM   16  C5  UNL     1      -0.259  10.518  10.139  1.00  0.00     0.710 A 
HETATM   17  N9  UNL     1       0.027  11.833  10.165  1.00  0.00    -0.117 N 
HETATM   18  N10 UNL     1       0.069  12.258   8.914  1.00  0.00     0.006 NA
ATOM     19  H9  UNL     1       0.184  12.398  10.999  1.00  0.00     0.202 HD
HETATM   20  N11 UNL     1      -0.180  11.262   8.082  1.00  0.00     0.006 NA
HETATM   21  N12 UNL     1      -0.379  10.203   8.846  1.00  0.00    -0.117 N 
ATOM     22  H12 UNL     1      -0.595   9.270   8.495  1.00  0.00     0.202 HD
ENDBRANCH  14  16
ENDBRANCH   9  12
BRANCH   8  23
HETATM   23  N7  UNL     1      -0.491   6.271  11.215  1.00  0.00    -0.385 N 
ATOM     24  H72 UNL     1       0.457   6.604  11.041  1.00  0.00     0.157 HD
ATOM     25  H71 UNL     1      -0.931   5.641  10.544  1.00  0.00     0.157 HD
ENDBRANCH   8  23
BRANCH   1  26
HETATM   26  N2  UNL     1      -3.690   8.802  16.199  1.00  0.00    -0.229 N 
ATOM     27  H2  UNL     1      -4.701   8.825  16.335  1.00  0.00     0.209 HD
BRANCH  26  28
HETATM   28  N1  UNL     1      -2.952   9.830  16.439  1.00  0.00    -0.329 N 
ATOM     29  H12 UNL     1      -2.108  10.005  15.893  1.00  0.00     0.178 HD
ATOM     30  H11 UNL     1      -3.256  10.447  17.192  1.00  0.00     0.178 HD
ENDBRANCH  26  28
ENDBRANCH   1  26
TORSDOF 5
ENDMDL
