MODEL 1
REMARK VINA RESULT: -7.740681590      0.000      0.000
REMARK  5 active torsions:
REMARK  status: ('A' for Active; 'I' for Inactive)
REMARK    1  A    between atoms: N1_1  and  N2_4 
REMARK    2  A    between atoms: N2_4  and  C1_6 
REMARK    3  A    between atoms: C2_12  and  C3_13 
REMARK    4  A    between atoms: C3_13  and  S1_14 
REMARK    5  A    between atoms: S1_14  and  C4_15 
ROOT
HETATM    1  C3  UNL     1      -0.893   8.581  12.498  1.00  0.00     0.145 C 
ENDROOT
BRANCH   1   2
HETATM    2  C2  UNL     1      -1.553   9.318  11.406  1.00  0.00     0.091 A 
HETATM    3  C1  UNL     1      -1.259  10.491  10.790  1.00  0.00     0.167 A 
HETATM    4  N3  UNL     1      -2.251  10.649   9.828  1.00  0.00    -0.222 N 
HETATM    5  O1  UNL     1      -3.065   9.656   9.866  1.00  0.00    -0.155 OA
ATOM      6  H3  UNL     1      -2.321  11.438   9.186  1.00  0.00     0.198 HD
HETATM    7  N4  UNL     1      -2.670   8.853  10.795  1.00  0.00    -0.241 N 
ATOM      8  H4  UNL     1      -3.138   7.981  11.039  1.00  0.00     0.196 HD
BRANCH   3   9
HETATM    9  N2  UNL     1      -0.334  11.299  10.984  1.00  0.00    -0.289 N 
ATOM     10  H2  UNL     1      -0.087  11.437  11.964  1.00  0.00     0.188 HD
BRANCH   9  11
HETATM   11  N1  UNL     1       0.395  12.021  10.112  1.00  0.00    -0.344 N 
ATOM     12  H12 UNL     1       1.190  11.511   9.725  1.00  0.00     0.176 HD
ATOM     13  H11 UNL     1       0.278  12.979   9.784  1.00  0.00     0.176 HD
ENDBRANCH   9  11
ENDBRANCH   3   9
ENDBRANCH   1   2
BRANCH   1  14
HETATM   14  S1  UNL     1      -1.806   7.062  12.895  1.00  0.00    -0.087 SA
BRANCH  14  15
HETATM   15  C4  UNL     1      -2.248   7.017  14.622  1.00  0.00     0.152 A 
HETATM   16  N5  UNL     1      -1.366   6.909  15.629  1.00  0.00    -0.289 N 
HETATM   17  C5  UNL     1      -1.696   6.881  16.930  1.00  0.00     0.330 A 
ATOM     18  H5  UNL     1      -0.377   6.842  15.388  1.00  0.00     0.172 HD
HETATM   19  O2  UNL     1      -0.834   6.779  17.838  1.00  0.00    -0.246 OA
HETATM   20  N6  UNL     1      -2.991   6.967  17.274  1.00  0.00    -0.260 N 
HETATM   21  C6  UNL     1      -3.922   7.077  16.299  1.00  0.00     0.330 A 
ATOM     22  H6  UNL     1      -3.269   6.948  18.256  1.00  0.00     0.175 HD
HETATM   23  O3  UNL     1      -5.128   7.153  16.673  1.00  0.00    -0.246 OA
HETATM   24  N7  UNL     1      -3.557   7.101  15.010  1.00  0.00    -0.289 N 
ATOM     25  H7  UNL     1      -4.279   7.185  14.295  1.00  0.00     0.172 HD
ENDBRANCH  14  15
ENDBRANCH   1  14
TORSDOF 5
ENDMDL
MODEL 2
REMARK VINA RESULT: -7.730522282      0.022      1.896
REMARK  5 active torsions:
REMARK  status: ('A' for Active; 'I' for Inactive)
REMARK    1  A    between atoms: N1_1  and  N2_4 
REMARK    2  A    between atoms: N2_4  and  C1_6 
REMARK    3  A    between atoms: C2_12  and  C3_13 
REMARK    4  A    between atoms: C3_13  and  S1_14 
REMARK    5  A    between atoms: S1_14  and  C4_15 
ROOT
HETATM    1  C3  UNL     1      -0.888   8.572  12.495  1.00  0.00     0.145 C 
ENDROOT
BRANCH   1   2
HETATM    2  C2  UNL     1      -1.551   9.313  11.405  1.00  0.00     0.091 A 
HETATM    3  C1  UNL     1      -1.257  10.487  10.791  1.00  0.00     0.167 A 
HETATM    4  N3  UNL     1      -2.251  10.647   9.832  1.00  0.00    -0.222 N 
HETATM    5  O1  UNL     1      -3.066   9.656   9.870  1.00  0.00    -0.155 OA
ATOM      6  H3  UNL     1      -2.322  11.437   9.191  1.00  0.00     0.198 HD
HETATM    7  N4  UNL     1      -2.669   8.850  10.797  1.00  0.00    -0.241 N 
ATOM      8  H4  UNL     1      -3.138   7.978  11.040  1.00  0.00     0.196 HD
BRANCH   3   9
HETATM    9  N2  UNL     1      -0.330  11.293  10.984  1.00  0.00    -0.289 N 
ATOM     10  H2  UNL     1      -0.082  11.430  11.964  1.00  0.00     0.188 HD
BRANCH   9  11
HETATM   11  N1  UNL     1       0.399  12.014  10.111  1.00  0.00    -0.344 N 
ATOM     12  H12 UNL     1       0.122  12.995  10.062  1.00  0.00     0.176 HD
ATOM     13  H11 UNL     1       1.170  11.738   9.504  1.00  0.00     0.176 HD
ENDBRANCH   9  11
ENDBRANCH   3   9
ENDBRANCH   1   2
BRANCH   1  14
HETATM   14  S1  UNL     1      -1.798   7.050  12.885  1.00  0.00    -0.087 SA
BRANCH  14  15
HETATM   15  C4  UNL     1      -2.286   7.021  14.600  1.00  0.00     0.152 A 
HETATM   16  N5  UNL     1      -3.556   7.100  15.030  1.00  0.00    -0.289 N 
HETATM   17  C5  UNL     1      -3.925   7.071  16.320  1.00  0.00     0.330 A 
ATOM     18  H5  UNL     1      -4.290   7.188  14.328  1.00  0.00     0.172 HD
HETATM   19  O2  UNL     1      -5.127   7.147  16.675  1.00  0.00    -0.246 OA
HETATM   20  N6  UNL     1      -2.978   6.955  17.266  1.00  0.00    -0.260 N 
HETATM   21  C6  UNL     1      -1.682   6.872  16.888  1.00  0.00     0.330 A 
ATOM     22  H6  UNL     1      -3.233   6.931  18.253  1.00  0.00     0.175 HD
HETATM   23  O3  UNL     1      -0.828   6.766  17.814  1.00  0.00    -0.246 OA
HETATM   24  N7  UNL     1      -1.349   6.904  15.590  1.00  0.00    -0.289 N 
ATOM     25  H7  UNL     1      -0.364   6.840  15.333  1.00  0.00     0.172 HD
ENDBRANCH  14  15
ENDBRANCH   1  14
TORSDOF 5
ENDMDL
MODEL 3
REMARK VINA RESULT: -7.723396538      1.868      6.788
REMARK  5 active torsions:
REMARK  status: ('A' for Active; 'I' for Inactive)
REMARK    1  A    between atoms: N1_1  and  N2_4 
REMARK    2  A    between atoms: N2_4  and  C1_6 
REMARK    3  A    between atoms: C2_12  and  C3_13 
REMARK    4  A    between atoms: C3_13  and  S1_14 
REMARK    5  A    between atoms: S1_14  and  C4_15 
ROOT
HETATM    1  C3  UNL     1      -2.145   7.913  13.313  1.00  0.00     0.145 C 
ENDROOT
BRANCH   1   2
HETATM    2  C2  UNL     1      -1.736   7.519  14.674  1.00  0.00     0.091 A 
HETATM    3  C1  UNL     1      -2.250   7.801  15.898  1.00  0.00     0.167 A 
HETATM    4  N3  UNL     1      -1.428   7.127  16.794  1.00  0.00    -0.222 N 
HETATM    5  O1  UNL     1      -0.506   6.497  16.162  1.00  0.00    -0.155 OA
ATOM      6  H3  UNL     1      -1.542   7.132  17.808  1.00  0.00     0.198 HD
HETATM    7  N4  UNL     1      -0.669   6.715  14.900  1.00  0.00    -0.241 N 
ATOM      8  H4  UNL     1      -0.072   6.331  14.168  1.00  0.00     0.196 HD
BRANCH   3   9
HETATM    9  N2  UNL     1      -3.228   8.496  16.225  1.00  0.00    -0.289 N 
ATOM     10  H2  UNL     1      -4.111   7.988  16.287  1.00  0.00     0.188 HD
BRANCH   9  11
HETATM   11  N1  UNL     1      -3.312   9.809  16.512  1.00  0.00    -0.344 N 
ATOM     12  H12 UNL     1      -2.574  10.367  16.082  1.00  0.00     0.176 HD
ATOM     13  H11 UNL     1      -3.985  10.322  17.080  1.00  0.00     0.176 HD
ENDBRANCH   9  11
ENDBRANCH   3   9
ENDBRANCH   1   2
BRANCH   1  14
HETATM   14  S1  UNL     1      -0.705   8.013  12.211  1.00  0.00    -0.087 SA
BRANCH  14  15
HETATM   15  C4  UNL     1      -0.889   9.347  11.041  1.00  0.00     0.152 A 
HETATM   16  N5  UNL     1       0.039  10.290  10.813  1.00  0.00    -0.289 N 
HETATM   17  C5  UNL     1      -0.094  11.290   9.928  1.00  0.00     0.330 A 
ATOM     18  H5  UNL     1       0.905  10.243  11.350  1.00  0.00     0.172 HD
HETATM   19  O2  UNL     1       0.803  12.150   9.748  1.00  0.00    -0.246 OA
HETATM   20  N6  UNL     1      -1.225  11.376   9.208  1.00  0.00    -0.260 N 
HETATM   21  C6  UNL     1      -2.194  10.450   9.399  1.00  0.00     0.330 A 
ATOM     22  H6  UNL     1      -1.352  12.126   8.529  1.00  0.00     0.175 HD
HETATM   23  O3  UNL     1      -3.240  10.574   8.699  1.00  0.00    -0.246 OA
HETATM   24  N7  UNL     1      -2.027   9.465  10.291  1.00  0.00    -0.289 N 
ATOM     25  H7  UNL     1      -2.773   8.781  10.415  1.00  0.00     0.172 HD
ENDBRANCH  14  15
ENDBRANCH   1  14
TORSDOF 5
ENDMDL
MODEL 4
REMARK VINA RESULT: -7.716521213      1.870      7.029
REMARK  5 active torsions:
REMARK  status: ('A' for Active; 'I' for Inactive)
REMARK    1  A    between atoms: N1_1  and  N2_4 
REMARK    2  A    between atoms: N2_4  and  C1_6 
REMARK    3  A    between atoms: C2_12  and  C3_13 
REMARK    4  A    between atoms: C3_13  and  S1_14 
REMARK    5  A    between atoms: S1_14  and  C4_15 
ROOT
HETATM    1  C3  UNL     1      -2.146   7.904  13.313  1.00  0.00     0.145 C 
ENDROOT
BRANCH   1   2
HETATM    2  C2  UNL     1      -1.738   7.524  14.678  1.00  0.00     0.091 A 
HETATM    3  C1  UNL     1      -2.254   7.817  15.899  1.00  0.00     0.167 A 
HETATM    4  N3  UNL     1      -1.433   7.154  16.803  1.00  0.00    -0.222 N 
HETATM    5  O1  UNL     1      -0.508   6.519  16.178  1.00  0.00    -0.155 OA
ATOM      6  H3  UNL     1      -1.548   7.169  17.817  1.00  0.00     0.198 HD
HETATM    7  N4  UNL     1      -0.670   6.724  14.914  1.00  0.00    -0.241 N 
ATOM      8  H4  UNL     1      -0.072   6.334  14.187  1.00  0.00     0.196 HD
BRANCH   3   9
HETATM    9  N2  UNL     1      -3.233   8.514  16.218  1.00  0.00    -0.289 N 
ATOM     10  H2  UNL     1      -4.117   8.008  16.274  1.00  0.00     0.188 HD
BRANCH   9  11
HETATM   11  N1  UNL     1      -3.317   9.828  16.502  1.00  0.00    -0.344 N 
ATOM     12  H12 UNL     1      -3.693  10.387  15.736  1.00  0.00     0.176 HD
ATOM     13  H11 UNL     1      -3.067  10.341  17.347  1.00  0.00     0.176 HD
ENDBRANCH   9  11
ENDBRANCH   3   9
ENDBRANCH   1   2
BRANCH   1  14
HETATM   14  S1  UNL     1      -0.699   8.044  12.225  1.00  0.00    -0.087 SA
BRANCH  14  15
HETATM   15  C4  UNL     1      -0.933   9.336  11.018  1.00  0.00     0.152 A 
HETATM   16  N5  UNL     1      -2.037   9.485  10.269  1.00  0.00    -0.289 N 
HETATM   17  C5  UNL     1      -2.218  10.461   9.365  1.00  0.00     0.330 A 
ATOM     18  H5  UNL     1      -2.791   8.810  10.395  1.00  0.00     0.172 HD
HETATM   19  O2  UNL     1      -3.270  10.561   8.687  1.00  0.00    -0.246 OA
HETATM   20  N6  UNL     1      -1.241  11.364   9.178  1.00  0.00    -0.260 N 
HETATM   21  C6  UNL     1      -0.106  11.260   9.907  1.00  0.00     0.330 A 
ATOM     22  H6  UNL     1      -1.354  12.116   8.498  1.00  0.00     0.175 HD
HETATM   23  O3  UNL     1       0.784  12.133   9.695  1.00  0.00    -0.246 OA
HETATM   24  N7  UNL     1       0.041  10.273  10.801  1.00  0.00    -0.289 N 
ATOM     25  H7  UNL     1       0.906  10.218  11.337  1.00  0.00     0.172 HD
ENDBRANCH  14  15
ENDBRANCH   1  14
TORSDOF 5
ENDMDL
MODEL 5
REMARK VINA RESULT: -7.696181994      5.260      6.824
REMARK  5 active torsions:
REMARK  status: ('A' for Active; 'I' for Inactive)
REMARK    1  A    between atoms: N1_1  and  N2_4 
REMARK    2  A    between atoms: N2_4  and  C1_6 
REMARK    3  A    between atoms: C2_12  and  C3_13 
REMARK    4  A    between atoms: C3_13  and  S1_14 
REMARK    5  A    between atoms: S1_14  and  C4_15 
ROOT
HETATM    1  C3  UNL     1      -1.359   7.747   9.892  1.00  0.00     0.145 C 
ENDROOT
BRANCH   1   2
HETATM    2  C2  UNL     1      -1.905   9.043   9.446  1.00  0.00     0.091 A 
HETATM    3  C1  UNL     1      -1.681  10.316   9.857  1.00  0.00     0.167 A 
HETATM    4  N3  UNL     1      -2.486  11.102   9.041  1.00  0.00    -0.222 N 
HETATM    5  O1  UNL     1      -3.133  10.363   8.214  1.00  0.00    -0.155 OA
ATOM      6  H3  UNL     1      -2.553  12.119   9.090  1.00  0.00     0.198 HD
HETATM    7  N4  UNL     1      -2.804   9.136   8.436  1.00  0.00    -0.241 N 
ATOM      8  H4  UNL     1      -3.172   8.338   7.919  1.00  0.00     0.196 HD
BRANCH   3   9
HETATM    9  N2  UNL     1      -0.941  10.760  10.752  1.00  0.00    -0.289 N 
ATOM     10  H2  UNL     1      -1.074  10.330  11.668  1.00  0.00     0.188 HD
BRANCH   9  11
HETATM   11  N1  UNL     1       0.006  11.717  10.711  1.00  0.00    -0.344 N 
ATOM     12  H12 UNL     1      -0.309  12.584  10.277  1.00  0.00     0.176 HD
ATOM     13  H11 UNL     1       0.972  11.708  11.039  1.00  0.00     0.176 HD
ENDBRANCH   9  11
ENDBRANCH   3   9
ENDBRANCH   1   2
BRANCH   1  14
HETATM   14  S1  UNL     1       0.304   7.482   9.212  1.00  0.00    -0.087 SA
BRANCH  14  15
HETATM   15  C4  UNL     1       0.504   5.798   8.658  1.00  0.00     0.152 A 
HETATM   16  N5  UNL     1       0.475   5.415   7.371  1.00  0.00    -0.289 N 
HETATM   17  C5  UNL     1       0.633   4.150   6.951  1.00  0.00     0.330 A 
ATOM     18  H5  UNL     1       0.323   6.134   6.664  1.00  0.00     0.172 HD
HETATM   19  O2  UNL     1       0.599   3.838   5.735  1.00  0.00    -0.246 OA
HETATM   20  N6  UNL     1       0.835   3.182   7.861  1.00  0.00    -0.260 N 
HETATM   21  C6  UNL     1       0.873   3.514   9.172  1.00  0.00     0.330 A 
ATOM     22  H6  UNL     1       0.958   2.213   7.567  1.00  0.00     0.175 HD
HETATM   23  O3  UNL     1       1.065   2.569   9.989  1.00  0.00    -0.246 OA
HETATM   24  N7  UNL     1       0.712   4.787   9.556  1.00  0.00    -0.289 N 
ATOM     25  H7  UNL     1       0.745   5.010  10.550  1.00  0.00     0.172 HD
ENDBRANCH  14  15
ENDBRANCH   1  14
TORSDOF 5
ENDMDL
