MODEL 1
REMARK VINA RESULT: -7.570354969      0.000      0.000
REMARK  5 active torsions:
REMARK  status: ('A' for Active; 'I' for Inactive)
REMARK    1  A    between atoms: C2_2  and  N1_3 
REMARK    2  A    between atoms: C2_2  and  C3_7 
REMARK    3  A    between atoms: C3_7  and  N2_8 
REMARK    4  A    between atoms: C3_7  and  N3_12 
REMARK       I    between atoms: N3_12  and  C4_14 
REMARK    5  A    between atoms: C4_14  and  C5_16 
ROOT
HETATM    1  N3  UNL     1      -2.127   6.759  14.978  1.00  0.00    -0.326 N 
ATOM      2  H3  UNL     1      -2.028   5.828  14.573  1.00  0.00     0.165 HD
HETATM    3  C4  UNL     1      -1.823   7.918  14.211  1.00  0.00     0.272 C 
HETATM    4  O1  UNL     1      -1.954   9.043  14.739  1.00  0.00    -0.266 OA
ENDROOT
BRANCH   3   5
HETATM    5  C5  UNL     1      -1.354   7.794  12.795  1.00  0.00     0.137 A 
HETATM    6  N4  UNL     1      -1.180   6.548  12.313  1.00  0.00    -0.319 N 
HETATM    7  S1  UNL     1      -0.664   6.774  10.740  1.00  0.00    -0.006 SA
ATOM      8  H4  UNL     1      -1.329   5.665  12.800  1.00  0.00     0.174 HD
HETATM    9  C6  UNL     1      -0.670   8.479  10.697  1.00  0.00     0.121 A 
HETATM   10  C7  UNL     1      -0.364   9.459   9.736  1.00  0.00     0.281 A 
HETATM   11  C8  UNL     1      -1.089   8.811  11.958  1.00  0.00     0.106 A 
HETATM   12  O2  UNL     1       0.010   9.035   8.618  1.00  0.00    -0.265 OA
HETATM   13  N5  UNL     1      -0.471  10.779  10.016  1.00  0.00    -0.251 N 
HETATM   14  N6  UNL     1      -0.880  11.039  11.244  1.00  0.00    -0.239 N 
ATOM     15  H5  UNL     1      -0.256  11.509   9.337  1.00  0.00     0.192 HD
HETATM   16  N7  UNL     1      -1.175  10.166  12.167  1.00  0.00    -0.282 N 
ATOM     17  H6  UNL     1      -0.975  12.022  11.497  1.00  0.00     0.208 HD
ATOM     18  H7  UNL     1      -1.482  10.502  13.080  1.00  0.00     0.188 HD
ENDBRANCH   3   5
BRANCH   1  19
HETATM   19  C3  UNL     1      -2.574   6.922  16.332  1.00  0.00     0.314 C 
BRANCH  19  20
HETATM   20  C2  UNL     1      -3.541   5.845  16.765  1.00  0.00     0.229 C 
HETATM   21  C1  UNL     1      -3.988   4.991  15.599  1.00  0.00     0.043 C 
BRANCH  20  22
HETATM   22  N1  UNL     1      -4.652   6.363  17.506  1.00  0.00    -0.072 N 
ATOM     23  H13 UNL     1      -4.449   7.291  17.879  1.00  0.00     0.274 HD
ATOM     24  H12 UNL     1      -5.428   6.603  16.890  1.00  0.00     0.274 HD
ATOM     25  H11 UNL     1      -4.949   5.724  18.244  1.00  0.00     0.274 HD
ENDBRANCH  20  22
ENDBRANCH  19  20
BRANCH  19  26
HETATM   26  N2  UNL     1      -1.390   6.952  17.175  1.00  0.00    -0.056 N 
ATOM     27  H23 UNL     1      -1.580   7.408  18.067  1.00  0.00     0.276 HD
ATOM     28  H22 UNL     1      -1.154   6.021  17.518  1.00  0.00     0.276 HD
ATOM     29  H21 UNL     1      -0.598   7.384  16.698  1.00  0.00     0.276 HD
ENDBRANCH  19  26
ENDBRANCH   1  19
TORSDOF 5
ENDMDL
MODEL 2
REMARK VINA RESULT: -7.551704676      1.415      1.673
REMARK  5 active torsions:
REMARK  status: ('A' for Active; 'I' for Inactive)
REMARK    1  A    between atoms: C2_2  and  N1_3 
REMARK    2  A    between atoms: C2_2  and  C3_7 
REMARK    3  A    between atoms: C3_7  and  N2_8 
REMARK    4  A    between atoms: C3_7  and  N3_12 
REMARK       I    between atoms: N3_12  and  C4_14 
REMARK    5  A    between atoms: C4_14  and  C5_16 
ROOT
HETATM    1  N3  UNL     1      -1.230   7.104  14.826  1.00  0.00    -0.326 N 
ATOM      2  H3  UNL     1      -0.219   7.233  14.778  1.00  0.00     0.165 HD
HETATM    3  C4  UNL     1      -2.025   7.172  13.648  1.00  0.00     0.272 C 
HETATM    4  O1  UNL     1      -3.261   7.010  13.744  1.00  0.00    -0.266 OA
ENDROOT
BRANCH   3   5
HETATM    5  C5  UNL     1      -1.395   7.432  12.316  1.00  0.00     0.137 A 
HETATM    6  N4  UNL     1      -1.052   6.359  11.579  1.00  0.00    -0.319 N 
HETATM    7  S1  UNL     1      -0.391   6.999  10.184  1.00  0.00    -0.006 SA
ATOM      8  H4  UNL     1      -1.169   5.375  11.819  1.00  0.00     0.174 HD
HETATM    9  C6  UNL     1      -0.554   8.658  10.547  1.00  0.00     0.121 A 
HETATM   10  C7  UNL     1      -0.238   9.863   9.894  1.00  0.00     0.281 A 
HETATM   11  C8  UNL     1      -1.138   8.640  11.786  1.00  0.00     0.106 A 
HETATM   12  O2  UNL     1       0.294   9.753   8.765  1.00  0.00    -0.265 OA
HETATM   13  N5  UNL     1      -0.500  11.063  10.462  1.00  0.00    -0.251 N 
HETATM   14  N6  UNL     1      -1.063  10.984  11.654  1.00  0.00    -0.239 N 
ATOM     15  H5  UNL     1      -0.281  11.951  10.011  1.00  0.00     0.192 HD
HETATM   16  N7  UNL     1      -1.374   9.892  12.298  1.00  0.00    -0.282 N 
ATOM     17  H6  UNL     1      -1.278  11.866  12.119  1.00  0.00     0.208 HD
ATOM     18  H7  UNL     1      -1.809   9.972  13.217  1.00  0.00     0.188 HD
ENDBRANCH   3   5
BRANCH   1  19
HETATM   19  C3  UNL     1      -1.873   6.852  16.083  1.00  0.00     0.314 C 
BRANCH  19  20
HETATM   20  C2  UNL     1      -0.928   6.312  17.130  1.00  0.00     0.229 C 
HETATM   21  C1  UNL     1       0.111   5.392  16.526  1.00  0.00     0.043 C 
BRANCH  20  22
HETATM   22  N1  UNL     1      -1.609   5.700  18.231  1.00  0.00    -0.072 N 
ATOM     23  H13 UNL     1      -2.234   4.958  17.914  1.00  0.00     0.274 HD
ATOM     24  H12 UNL     1      -0.971   5.141  18.797  1.00  0.00     0.274 HD
ATOM     25  H11 UNL     1      -2.106   6.385  18.800  1.00  0.00     0.274 HD
ENDBRANCH  20  22
ENDBRANCH  19  20
BRANCH  19  26
HETATM   26  N2  UNL     1      -2.491   8.098  16.507  1.00  0.00    -0.056 N 
ATOM     27  H23 UNL     1      -3.442   7.945  16.844  1.00  0.00     0.276 HD
ATOM     28  H22 UNL     1      -2.071   8.446  17.369  1.00  0.00     0.276 HD
ATOM     29  H21 UNL     1      -2.466   8.802  15.769  1.00  0.00     0.276 HD
ENDBRANCH  19  26
ENDBRANCH   1  19
TORSDOF 5
ENDMDL
MODEL 3
REMARK VINA RESULT: -7.488559564      1.610      1.895
REMARK  5 active torsions:
REMARK  status: ('A' for Active; 'I' for Inactive)
REMARK    1  A    between atoms: C2_2  and  N1_3 
REMARK    2  A    between atoms: C2_2  and  C3_7 
REMARK    3  A    between atoms: C3_7  and  N2_8 
REMARK    4  A    between atoms: C3_7  and  N3_12 
REMARK       I    between atoms: N3_12  and  C4_14 
REMARK    5  A    between atoms: C4_14  and  C5_16 
ROOT
HETATM    1  N3  UNL     1      -2.670   6.901  13.515  1.00  0.00    -0.326 N 
ATOM      2  H3  UNL     1      -3.316   7.453  12.948  1.00  0.00     0.165 HD
HETATM    3  C4  UNL     1      -1.337   6.671  13.074  1.00  0.00     0.272 C 
HETATM    4  O1  UNL     1      -0.573   5.990  13.793  1.00  0.00    -0.266 OA
ENDROOT
BRANCH   3   5
HETATM    5  C5  UNL     1      -0.856   7.233  11.773  1.00  0.00     0.137 A 
HETATM    6  N4  UNL     1      -0.435   6.354  10.844  1.00  0.00    -0.319 N 
HETATM    7  S1  UNL     1       0.022   7.301   9.545  1.00  0.00    -0.006 SA
ATOM      8  H4  UNL     1      -0.403   5.338  10.916  1.00  0.00     0.174 HD
HETATM    9  C6  UNL     1      -0.328   8.838  10.198  1.00  0.00     0.121 A 
HETATM   10  C7  UNL     1      -0.228  10.166   9.746  1.00  0.00     0.281 A 
HETATM   11  C8  UNL     1      -0.803   8.535  11.446  1.00  0.00     0.106 A 
HETATM   12  O2  UNL     1       0.222  10.319   8.586  1.00  0.00    -0.265 OA
HETATM   13  N5  UNL     1      -0.598  11.207  10.527  1.00  0.00    -0.251 N 
HETATM   14  N6  UNL     1      -1.049  10.855  11.717  1.00  0.00    -0.239 N 
ATOM     15  H5  UNL     1      -0.535  12.179  10.223  1.00  0.00     0.192 HD
HETATM   16  N7  UNL     1      -1.160   9.640  12.179  1.00  0.00    -0.282 N 
ATOM     17  H6  UNL     1      -1.339  11.610  12.339  1.00  0.00     0.208 HD
ATOM     18  H7  UNL     1      -1.526   9.506  13.121  1.00  0.00     0.188 HD
ENDBRANCH   3   5
BRANCH   1  19
HETATM   19  C3  UNL     1      -3.092   6.345  14.768  1.00  0.00     0.314 C 
BRANCH  19  20
HETATM   20  C2  UNL     1      -3.134   7.366  15.880  1.00  0.00     0.229 C 
HETATM   21  C1  UNL     1      -1.943   7.236  16.805  1.00  0.00     0.043 C 
BRANCH  20  22
HETATM   22  N1  UNL     1      -4.373   7.355  16.599  1.00  0.00    -0.072 N 
ATOM     23  H13 UNL     1      -4.468   8.183  17.187  1.00  0.00     0.274 HD
ATOM     24  H12 UNL     1      -5.164   7.509  15.975  1.00  0.00     0.274 HD
ATOM     25  H11 UNL     1      -4.490   6.499  17.142  1.00  0.00     0.274 HD
ENDBRANCH  20  22
ENDBRANCH  19  20
BRANCH  19  26
HETATM   26  N2  UNL     1      -4.392   5.733  14.551  1.00  0.00    -0.056 N 
ATOM     27  H23 UNL     1      -4.701   5.847  13.585  1.00  0.00     0.276 HD
ATOM     28  H22 UNL     1      -4.333   4.715  14.580  1.00  0.00     0.276 HD
ATOM     29  H21 UNL     1      -5.090   6.084  15.208  1.00  0.00     0.276 HD
ENDBRANCH  19  26
ENDBRANCH   1  19
TORSDOF 5
ENDMDL
MODEL 4
REMARK VINA RESULT: -7.433430775      2.109      6.267
REMARK  5 active torsions:
REMARK  status: ('A' for Active; 'I' for Inactive)
REMARK    1  A    between atoms: C2_2  and  N1_3 
REMARK    2  A    between atoms: C2_2  and  C3_7 
REMARK    3  A    between atoms: C3_7  and  N2_8 
REMARK    4  A    between atoms: C3_7  and  N3_12 
REMARK       I    between atoms: N3_12  and  C4_14 
REMARK    5  A    between atoms: C4_14  and  C5_16 
ROOT
HETATM    1  N3  UNL     1      -1.475   9.366  10.817  1.00  0.00    -0.326 N 
ATOM      2  H3  UNL     1      -2.450   9.527  11.071  1.00  0.00     0.165 HD
HETATM    3  C4  UNL     1      -0.686   8.425  11.536  1.00  0.00     0.272 C 
HETATM    4  O1  UNL     1       0.506   8.254  11.199  1.00  0.00    -0.266 OA
ENDROOT
BRANCH   3   5
HETATM    5  C5  UNL     1      -1.271   7.652  12.677  1.00  0.00     0.137 A 
HETATM    6  N4  UNL     1      -1.363   6.317  12.531  1.00  0.00    -0.319 N 
HETATM    7  S1  UNL     1      -2.045   5.782  13.960  1.00  0.00    -0.006 SA
ATOM      8  H4  UNL     1      -1.079   5.757  11.727  1.00  0.00     0.174 HD
HETATM    9  C6  UNL     1      -2.216   7.282  14.753  1.00  0.00     0.121 A 
HETATM   10  C7  UNL     1      -2.709   7.707  15.999  1.00  0.00     0.281 A 
HETATM   11  C8  UNL     1      -1.716   8.168  13.835  1.00  0.00     0.106 A 
HETATM   12  O2  UNL     1      -3.142   6.806  16.755  1.00  0.00    -0.265 OA
HETATM   13  N5  UNL     1      -2.711   9.015  16.350  1.00  0.00    -0.251 N 
HETATM   14  N6  UNL     1      -2.217   9.820  15.428  1.00  0.00    -0.239 N 
ATOM     15  H5  UNL     1      -3.063   9.348  17.247  1.00  0.00     0.192 HD
HETATM   16  N7  UNL     1      -1.749   9.474  14.260  1.00  0.00    -0.282 N 
ATOM     17  H6  UNL     1      -2.200  10.815  15.651  1.00  0.00     0.208 HD
ATOM     18  H7  UNL     1      -1.394  10.200  13.639  1.00  0.00     0.188 HD
ENDBRANCH   3   5
BRANCH   1  19
HETATM   19  C3  UNL     1      -0.876  10.085   9.731  1.00  0.00     0.314 C 
BRANCH  19  20
HETATM   20  C2  UNL     1      -1.878  10.508   8.683  1.00  0.00     0.229 C 
HETATM   21  C1  UNL     1      -3.175   9.738   8.804  1.00  0.00     0.043 C 
BRANCH  20  22
HETATM   22  N1  UNL     1      -1.347  10.455   7.353  1.00  0.00    -0.072 N 
ATOM     23  H13 UNL     1      -0.333  10.351   7.363  1.00  0.00     0.274 HD
ATOM     24  H12 UNL     1      -1.594   9.580   6.891  1.00  0.00     0.274 HD
ATOM     25  H11 UNL     1      -1.632  11.261   6.797  1.00  0.00     0.274 HD
ENDBRANCH  20  22
ENDBRANCH  19  20
BRANCH  19  26
HETATM   26  N2  UNL     1      -0.181  11.227  10.302  1.00  0.00    -0.056 N 
ATOM     27  H23 UNL     1      -0.583  12.107   9.978  1.00  0.00     0.276 HD
ATOM     28  H22 UNL     1      -0.376  11.320  11.299  1.00  0.00     0.276 HD
ATOM     29  H21 UNL     1       0.822  11.187  10.121  1.00  0.00     0.276 HD
ENDBRANCH  19  26
ENDBRANCH   1  19
TORSDOF 5
ENDMDL
MODEL 5
REMARK VINA RESULT: -7.325292308      1.648      1.887
REMARK  5 active torsions:
REMARK  status: ('A' for Active; 'I' for Inactive)
REMARK    1  A    between atoms: C2_2  and  N1_3 
REMARK    2  A    between atoms: C2_2  and  C3_7 
REMARK    3  A    between atoms: C3_7  and  N2_8 
REMARK    4  A    between atoms: C3_7  and  N3_12 
REMARK       I    between atoms: N3_12  and  C4_14 
REMARK    5  A    between atoms: C4_14  and  C5_16 
ROOT
HETATM    1  N3  UNL     1      -2.175   7.612  13.511  1.00  0.00    -0.326 N 
ATOM      2  H3  UNL     1      -2.478   6.837  12.920  1.00  0.00     0.165 HD
HETATM    3  C4  UNL     1      -1.766   8.846  12.932  1.00  0.00     0.272 C 
HETATM    4  O1  UNL     1      -1.399   9.774  13.685  1.00  0.00    -0.266 OA
ENDROOT
BRANCH   3   5
HETATM    5  C5  UNL     1      -1.773   9.031  11.447  1.00  0.00     0.137 A 
HETATM    6  N4  UNL     1      -2.428   8.109  10.717  1.00  0.00    -0.319 N 
HETATM    7  S1  UNL     1      -2.240   8.613   9.134  1.00  0.00    -0.006 SA
ATOM      8  H4  UNL     1      -2.926   7.286  11.054  1.00  0.00     0.174 HD
HETATM    9  C6  UNL     1      -1.314  10.019   9.409  1.00  0.00     0.121 A 
HETATM   10  C7  UNL     1      -0.743  11.017   8.600  1.00  0.00     0.281 A 
HETATM   11  C8  UNL     1      -1.187  10.035  10.773  1.00  0.00     0.106 A 
HETATM   12  O2  UNL     1      -0.926  10.896   7.366  1.00  0.00    -0.265 OA
HETATM   13  N5  UNL     1      -0.038  12.042   9.134  1.00  0.00    -0.251 N 
HETATM   14  N6  UNL     1       0.050  12.005  10.451  1.00  0.00    -0.239 N 
ATOM     15  H5  UNL     1       0.386  12.777   8.570  1.00  0.00     0.192 HD
HETATM   16  N7  UNL     1      -0.462  11.103  11.242  1.00  0.00    -0.282 N 
ATOM     17  H6  UNL     1       0.574  12.760  10.896  1.00  0.00     0.208 HD
ATOM     18  H7  UNL     1      -0.319  11.194  12.248  1.00  0.00     0.188 HD
ENDBRANCH   3   5
BRANCH   1  19
HETATM   19  C3  UNL     1      -2.153   7.476  14.939  1.00  0.00     0.314 C 
BRANCH  19  20
HETATM   20  C2  UNL     1      -3.305   6.656  15.469  1.00  0.00     0.229 C 
HETATM   21  C1  UNL     1      -4.100   6.018  14.350  1.00  0.00     0.043 C 
BRANCH  20  22
HETATM   22  N1  UNL     1      -4.143   7.392  16.367  1.00  0.00    -0.072 N 
ATOM     23  H13 UNL     1      -4.987   7.724  15.899  1.00  0.00     0.274 HD
ATOM     24  H12 UNL     1      -4.574   6.779  17.059  1.00  0.00     0.274 HD
ATOM     25  H11 UNL     1      -3.641   8.160  16.814  1.00  0.00     0.274 HD
ENDBRANCH  20  22
ENDBRANCH  19  20
BRANCH  19  26
HETATM   26  N2  UNL     1      -0.870   6.893  15.295  1.00  0.00    -0.056 N 
ATOM     27  H23 UNL     1      -0.099   7.521  15.064  1.00  0.00     0.276 HD
ATOM     28  H22 UNL     1      -0.747   6.857  16.307  1.00  0.00     0.276 HD
ATOM     29  H21 UNL     1      -0.741   5.974  14.871  1.00  0.00     0.276 HD
ENDBRANCH  19  26
ENDBRANCH   1  19
TORSDOF 5
ENDMDL
