MODEL 1
REMARK VINA RESULT: -7.752046414      0.000      0.000
REMARK  4 active torsions:
REMARK  status: ('A' for Active; 'I' for Inactive)
REMARK    1  A    between atoms: N1_1  and  C1_5 
REMARK    2  A    between atoms: C1_5  and  C2_6 
REMARK       I    between atoms: C2_6  and  N2_8 
REMARK    3  A    between atoms: N2_8  and  N3_10 
REMARK       I    between atoms: N3_10  and  C3_12 
REMARK       I    between atoms: C3_12  and  N4_14 
REMARK    4  A    between atoms: N5_16  and  C4_18 
ROOT
HETATM    1  N3  UNL     1      -0.961   5.418   9.702  1.00  0.00    -0.248 N 
ATOM      2  H3  UNL     1      -1.598   4.852  10.262  1.00  0.00     0.192 HD
HETATM    3  C3  UNL     1      -0.433   6.610  10.221  1.00  0.00     0.353 C 
HETATM    4  O2  UNL     1       0.344   7.302   9.541  1.00  0.00    -0.244 OA
HETATM    5  N4  UNL     1      -0.777   7.037  11.519  1.00  0.00    -0.250 N 
ATOM      6  H4  UNL     1      -0.637   6.364  12.272  1.00  0.00     0.192 HD
HETATM    7  N5  UNL     1      -1.238   8.158  11.844  1.00  0.00    -0.291 N 
ATOM      8  H5  UNL     1      -1.455   8.365  12.819  1.00  0.00     0.187 HD
ENDROOT
BRANCH   7   9
HETATM    9  C4  UNL     1      -1.452   9.132  10.836  1.00  0.00     0.130 A 
HETATM   10  C5  UNL     1      -0.775  10.179  10.331  1.00  0.00     0.098 A 
HETATM   11  N6  UNL     1       0.404  10.966  10.380  1.00  0.00    -0.347 N 
HETATM   12  C7  UNL     1      -1.814  10.500   9.380  1.00  0.00     0.130 A 
HETATM   13  C6  UNL     1       0.539  11.960   9.577  1.00  0.00     0.197 A 
ATOM     14  H6  UNL     1       1.140  10.744  11.049  1.00  0.00     0.167 HD
HETATM   15  N7  UNL     1      -0.483  12.273   8.645  1.00  0.00    -0.296 N 
HETATM   16  N8  UNL     1      -1.635  11.504   8.596  1.00  0.00    -0.294 N 
ATOM     17  H7  UNL     1      -0.370  13.063   8.010  1.00  0.00     0.187 HD
ATOM     18  H8  UNL     1      -2.362  11.742   7.920  1.00  0.00     0.187 HD
HETATM   19  C8  UNL     1      -2.554   9.374   9.916  1.00  0.00     0.232 A 
HETATM   20  O3  UNL     1      -3.676   8.887   9.636  1.00  0.00    -0.283 OA
ENDBRANCH   7   9
BRANCH   1  21
HETATM   21  N2  UNL     1      -0.606   5.007   8.405  1.00  0.00    -0.265 N 
HETATM   22  C2  UNL     1       0.525   4.167   8.217  1.00  0.00     0.261 C 
HETATM   23  O1  UNL     1       1.220   3.780   9.185  1.00  0.00    -0.270 OA
ATOM     24  H2  UNL     1      -1.158   5.310   7.603  1.00  0.00     0.190 HD
BRANCH  22  25
HETATM   25  C1  UNL     1       0.914   3.724   6.860  1.00  0.00     0.333 C 
BRANCH  25  26
HETATM   26  N1  UNL     1       0.165   4.397   5.827  1.00  0.00    -0.071 N 
ATOM     27  H13 UNL     1      -0.362   3.732   5.261  1.00  0.00     0.274 HD
ATOM     28  H12 UNL     1      -0.613   4.926   6.222  1.00  0.00     0.274 HD
ATOM     29  H11 UNL     1       0.755   4.991   5.245  1.00  0.00     0.274 HD
ENDBRANCH  25  26
ENDBRANCH  22  25
ENDBRANCH   1  21
TORSDOF 4
ENDMDL
MODEL 2
REMARK VINA RESULT: -7.637163649      1.058      1.123
REMARK  4 active torsions:
REMARK  status: ('A' for Active; 'I' for Inactive)
REMARK    1  A    between atoms: N1_1  and  C1_5 
REMARK    2  A    between atoms: C1_5  and  C2_6 
REMARK       I    between atoms: C2_6  and  N2_8 
REMARK    3  A    between atoms: N2_8  and  N3_10 
REMARK       I    between atoms: N3_10  and  C3_12 
REMARK       I    between atoms: C3_12  and  N4_14 
REMARK    4  A    between atoms: N5_16  and  C4_18 
ROOT
HETATM    1  N3  UNL     1       0.222   5.339  10.027  1.00  0.00    -0.248 N 
ATOM      2  H3  UNL     1       0.123   4.739  10.845  1.00  0.00     0.192 HD
HETATM    3  C3  UNL     1       0.670   6.662  10.172  1.00  0.00     0.353 C 
HETATM    4  O2  UNL     1       0.792   7.396   9.176  1.00  0.00    -0.244 OA
HETATM    5  N4  UNL     1       0.985   7.172  11.446  1.00  0.00    -0.250 N 
ATOM      6  H4  UNL     1       1.647   6.633  12.003  1.00  0.00     0.192 HD
HETATM    7  N5  UNL     1       0.536   8.222  11.969  1.00  0.00    -0.291 N 
ATOM      8  H5  UNL     1       0.832   8.503  12.904  1.00  0.00     0.187 HD
ENDROOT
BRANCH   7   9
HETATM    9  C4  UNL     1      -0.388   9.012  11.238  1.00  0.00     0.130 A 
HETATM   10  C5  UNL     1      -0.324  10.052  10.389  1.00  0.00     0.098 A 
HETATM   11  N6  UNL     1       0.504  10.978   9.704  1.00  0.00    -0.347 N 
HETATM   12  C7  UNL     1      -1.757  10.108  10.216  1.00  0.00     0.130 A 
HETATM   13  C6  UNL     1      -0.026  11.858   8.934  1.00  0.00     0.197 A 
ATOM     14  H6  UNL     1       1.517  10.943   9.822  1.00  0.00     0.167 HD
HETATM   15  N7  UNL     1      -1.434  11.910   8.766  1.00  0.00    -0.296 N 
HETATM   16  N8  UNL     1      -2.245  11.007   9.436  1.00  0.00    -0.294 N 
ATOM     17  H7  UNL     1      -1.850  12.612   8.154  1.00  0.00     0.187 HD
ATOM     18  H8  UNL     1      -3.256  11.057   9.305  1.00  0.00     0.187 HD
HETATM   19  C8  UNL     1      -1.839   8.985  11.131  1.00  0.00     0.232 A 
HETATM   20  O3  UNL     1      -2.809   8.330  11.583  1.00  0.00    -0.283 OA
ENDBRANCH   7   9
BRANCH   1  21
HETATM   21  N2  UNL     1      -0.087   4.846   8.748  1.00  0.00    -0.265 N 
HETATM   22  C2  UNL     1       0.709   3.817   8.178  1.00  0.00     0.261 C 
HETATM   23  O1  UNL     1       1.690   3.333   8.791  1.00  0.00    -0.270 OA
ATOM     24  H2  UNL     1      -0.881   5.225   8.231  1.00  0.00     0.190 HD
BRANCH  22  25
HETATM   25  C1  UNL     1       0.400   3.284   6.832  1.00  0.00     0.333 C 
BRANCH  25  26
HETATM   26  N1  UNL     1       0.053   4.327   5.897  1.00  0.00    -0.071 N 
ATOM     27  H13 UNL     1      -0.375   5.121   6.373  1.00  0.00     0.274 HD
ATOM     28  H12 UNL     1       0.887   4.787   5.532  1.00  0.00     0.274 HD
ATOM     29  H11 UNL     1      -0.541   3.988   5.142  1.00  0.00     0.274 HD
ENDBRANCH  25  26
ENDBRANCH  22  25
ENDBRANCH   1  21
TORSDOF 4
ENDMDL
MODEL 3
REMARK VINA RESULT: -7.580914348      5.832      8.393
REMARK  4 active torsions:
REMARK  status: ('A' for Active; 'I' for Inactive)
REMARK    1  A    between atoms: N1_1  and  C1_5 
REMARK    2  A    between atoms: C1_5  and  C2_6 
REMARK       I    between atoms: C2_6  and  N2_8 
REMARK    3  A    between atoms: N2_8  and  N3_10 
REMARK       I    between atoms: N3_10  and  C3_12 
REMARK       I    between atoms: C3_12  and  N4_14 
REMARK    4  A    between atoms: N5_16  and  C4_18 
ROOT
HETATM    1  N3  UNL     1      -1.844   8.717  14.656  1.00  0.00    -0.248 N 
ATOM      2  H3  UNL     1      -2.172   9.591  15.066  1.00  0.00     0.192 HD
HETATM    3  C3  UNL     1      -2.367   7.491  15.095  1.00  0.00     0.353 C 
HETATM    4  O2  UNL     1      -1.968   6.423  14.597  1.00  0.00    -0.244 OA
HETATM    5  N4  UNL     1      -3.348   7.455  16.105  1.00  0.00    -0.250 N 
ATOM      6  H4  UNL     1      -4.177   8.030  15.956  1.00  0.00     0.192 HD
HETATM    7  N5  UNL     1      -3.310   6.789  17.168  1.00  0.00    -0.291 N 
ATOM      8  H5  UNL     1      -4.079   6.836  17.836  1.00  0.00     0.187 HD
ENDROOT
BRANCH   7   9
HETATM    9  C4  UNL     1      -2.180   5.972  17.426  1.00  0.00     0.130 A 
HETATM   10  C5  UNL     1      -1.742   4.762  17.036  1.00  0.00     0.098 A 
HETATM   11  N6  UNL     1      -1.986   3.607  16.249  1.00  0.00    -0.347 N 
HETATM   12  C7  UNL     1      -0.541   4.846  17.834  1.00  0.00     0.130 A 
HETATM   13  C6  UNL     1      -1.136   2.644  16.251  1.00  0.00     0.197 A 
ATOM     14  H6  UNL     1      -2.832   3.542  15.684  1.00  0.00     0.167 HD
HETATM   15  N7  UNL     1       0.043   2.730  17.037  1.00  0.00    -0.296 N 
HETATM   16  N8  UNL     1       0.282   3.857  17.806  1.00  0.00    -0.294 N 
ATOM     17  H7  UNL     1       0.713   1.961  17.035  1.00  0.00     0.187 HD
ATOM     18  H8  UNL     1       1.134   3.904  18.365  1.00  0.00     0.187 HD
HETATM   19  C8  UNL     1      -1.002   6.152  18.262  1.00  0.00     0.232 A 
HETATM   20  O3  UNL     1      -0.516   7.009  19.038  1.00  0.00    -0.283 OA
ENDBRANCH   7   9
BRANCH   1  21
HETATM   21  N2  UNL     1      -0.865   8.735  13.647  1.00  0.00    -0.265 N 
HETATM   22  C2  UNL     1      -1.256   8.641  12.284  1.00  0.00     0.261 C 
HETATM   23  O1  UNL     1      -2.461   8.542  11.955  1.00  0.00    -0.270 OA
ATOM     24  H2  UNL     1       0.122   8.814  13.892  1.00  0.00     0.190 HD
BRANCH  22  25
HETATM   25  C1  UNL     1      -0.241   8.657  11.208  1.00  0.00     0.333 C 
BRANCH  25  26
HETATM   26  N1  UNL     1      -0.042   9.979  10.664  1.00  0.00    -0.071 N 
ATOM     27  H13 UNL     1       0.301   9.935   9.704  1.00  0.00     0.274 HD
ATOM     28  H12 UNL     1      -0.932  10.447  10.497  1.00  0.00     0.274 HD
ATOM     29  H11 UNL     1       0.570  10.549  11.247  1.00  0.00     0.274 HD
ENDBRANCH  25  26
ENDBRANCH  22  25
ENDBRANCH   1  21
TORSDOF 4
ENDMDL
MODEL 4
REMARK VINA RESULT: -7.449578587      2.541      5.543
REMARK  4 active torsions:
REMARK  status: ('A' for Active; 'I' for Inactive)
REMARK    1  A    between atoms: N1_1  and  C1_5 
REMARK    2  A    between atoms: C1_5  and  C2_6 
REMARK       I    between atoms: C2_6  and  N2_8 
REMARK    3  A    between atoms: N2_8  and  N3_10 
REMARK       I    between atoms: N3_10  and  C3_12 
REMARK       I    between atoms: C3_12  and  N4_14 
REMARK    4  A    between atoms: N5_16  and  C4_18 
ROOT
HETATM    1  N3  UNL     1      -1.011  10.164  11.746  1.00  0.00    -0.248 N 
ATOM      2  H3  UNL     1      -0.211  10.737  12.015  1.00  0.00     0.192 HD
HETATM    3  C3  UNL     1      -1.378   9.054  12.524  1.00  0.00     0.353 C 
HETATM    4  O2  UNL     1      -2.351   8.353  12.198  1.00  0.00    -0.244 OA
HETATM    5  N4  UNL     1      -0.647   8.722  13.681  1.00  0.00    -0.250 N 
ATOM      6  H4  UNL     1      -0.518   9.464  14.368  1.00  0.00     0.192 HD
HETATM    7  N5  UNL     1      -0.138   7.607  13.955  1.00  0.00    -0.291 N 
ATOM      8  H5  UNL     1       0.375   7.473  14.827  1.00  0.00     0.187 HD
ENDROOT
BRANCH   7   9
HETATM    9  C4  UNL     1      -0.288   6.539  13.035  1.00  0.00     0.130 A 
HETATM   10  C5  UNL     1       0.092   6.279  11.771  1.00  0.00     0.098 A 
HETATM   11  N6  UNL     1       0.775   6.741  10.618  1.00  0.00    -0.347 N 
HETATM   12  C7  UNL     1      -0.534   4.978  11.761  1.00  0.00     0.130 A 
HETATM   13  C6  UNL     1       0.833   5.998   9.572  1.00  0.00     0.197 A 
ATOM     14  H6  UNL     1       1.219   7.660  10.619  1.00  0.00     0.167 HD
HETATM   15  N7  UNL     1       0.217   4.720   9.565  1.00  0.00    -0.296 N 
HETATM   16  N8  UNL     1      -0.451   4.268  10.691  1.00  0.00    -0.294 N 
ATOM     17  H7  UNL     1       0.266   4.135   8.731  1.00  0.00     0.187 HD
ATOM     18  H8  UNL     1      -0.890   3.346  10.671  1.00  0.00     0.187 HD
HETATM   19  C8  UNL     1      -0.949   5.246  13.125  1.00  0.00     0.232 A 
HETATM   20  O3  UNL     1      -1.606   4.575  13.957  1.00  0.00    -0.283 OA
ENDBRANCH   7   9
BRANCH   1  21
HETATM   21  N2  UNL     1      -1.751  10.482  10.594  1.00  0.00    -0.265 N 
HETATM   22  C2  UNL     1      -1.305  10.030   9.323  1.00  0.00     0.261 C 
HETATM   23  O1  UNL     1      -0.259   9.351   9.201  1.00  0.00    -0.270 OA
ATOM     24  H2  UNL     1      -2.605  11.034  10.671  1.00  0.00     0.190 HD
BRANCH  22  25
HETATM   25  C1  UNL     1      -2.070  10.354   8.099  1.00  0.00     0.333 C 
BRANCH  25  26
HETATM   26  N1  UNL     1      -3.263   9.552   7.970  1.00  0.00    -0.071 N 
ATOM     27  H13 UNL     1      -4.102  10.131   8.004  1.00  0.00     0.274 HD
ATOM     28  H12 UNL     1      -3.358   9.182   7.025  1.00  0.00     0.274 HD
ATOM     29  H11 UNL     1      -3.303   8.805   8.663  1.00  0.00     0.274 HD
ENDBRANCH  25  26
ENDBRANCH  22  25
ENDBRANCH   1  21
TORSDOF 4
ENDMDL
MODEL 5
REMARK VINA RESULT: -7.424931594      4.992      7.306
REMARK  4 active torsions:
REMARK  status: ('A' for Active; 'I' for Inactive)
REMARK    1  A    between atoms: N1_1  and  C1_5 
REMARK    2  A    between atoms: C1_5  and  C2_6 
REMARK       I    between atoms: C2_6  and  N2_8 
REMARK    3  A    between atoms: N2_8  and  N3_10 
REMARK       I    between atoms: N3_10  and  C3_12 
REMARK       I    between atoms: C3_12  and  N4_14 
REMARK    4  A    between atoms: N5_16  and  C4_18 
ROOT
HETATM    1  N3  UNL     1      -0.877   8.941  13.627  1.00  0.00    -0.248 N 
ATOM      2  H3  UNL     1      -0.337   9.708  14.026  1.00  0.00     0.192 HD
HETATM    3  C3  UNL     1      -1.988   8.427  14.316  1.00  0.00     0.353 C 
HETATM    4  O2  UNL     1      -2.648   7.491  13.833  1.00  0.00    -0.244 OA
HETATM    5  N4  UNL     1      -2.366   8.966  15.561  1.00  0.00    -0.250 N 
ATOM      6  H4  UNL     1      -2.506   9.975  15.598  1.00  0.00     0.192 HD
HETATM    7  N5  UNL     1      -2.548   8.333  16.630  1.00  0.00    -0.291 N 
ATOM      8  H5  UNL     1      -2.822   8.824  17.482  1.00  0.00     0.187 HD
ENDROOT
BRANCH   7   9
HETATM    9  C4  UNL     1      -2.367   6.927  16.636  1.00  0.00     0.130 A 
HETATM   10  C5  UNL     1      -1.368   6.071  16.360  1.00  0.00     0.098 A 
HETATM   11  N6  UNL     1      -0.021   5.911  15.944  1.00  0.00    -0.347 N 
HETATM   12  C7  UNL     1      -2.168   4.907  16.662  1.00  0.00     0.130 A 
HETATM   13  C6  UNL     1       0.478   4.732  15.840  1.00  0.00     0.197 A 
ATOM     14  H6  UNL     1       0.549   6.729  15.730  1.00  0.00     0.167 HD
HETATM   15  N7  UNL     1      -0.312   3.591  16.137  1.00  0.00    -0.296 N 
HETATM   16  N8  UNL     1      -1.627   3.745  16.543  1.00  0.00    -0.294 N 
ATOM     17  H7  UNL     1       0.090   2.657  16.052  1.00  0.00     0.187 HD
ATOM     18  H8  UNL     1      -2.182   2.915  16.753  1.00  0.00     0.187 HD
HETATM   19  C8  UNL     1      -3.254   5.820  16.962  1.00  0.00     0.232 A 
HETATM   20  O3  UNL     1      -4.436   5.635  17.341  1.00  0.00    -0.283 OA
ENDBRANCH   7   9
BRANCH   1  21
HETATM   21  N2  UNL     1      -0.514   8.392  12.386  1.00  0.00    -0.265 N 
HETATM   22  C2  UNL     1      -0.785   9.112  11.191  1.00  0.00     0.261 C 
HETATM   23  O1  UNL     1      -1.345  10.233  11.216  1.00  0.00    -0.270 OA
ATOM     24  H2  UNL     1      -0.058   7.481  12.342  1.00  0.00     0.190 HD
BRANCH  22  25
HETATM   25  C1  UNL     1      -0.411   8.551   9.874  1.00  0.00     0.333 C 
BRANCH  25  26
HETATM   26  N1  UNL     1      -1.531   7.938   9.201  1.00  0.00    -0.071 N 
ATOM     27  H13 UNL     1      -2.389   8.044   9.743  1.00  0.00     0.274 HD
ATOM     28  H12 UNL     1      -1.796   8.467   8.371  1.00  0.00     0.274 HD
ATOM     29  H11 UNL     1      -1.358   6.959   8.975  1.00  0.00     0.274 HD
ENDBRANCH  25  26
ENDBRANCH  22  25
ENDBRANCH   1  21
TORSDOF 4
ENDMDL
