MODEL 1
REMARK VINA RESULT: -7.312384231      0.000      0.000
REMARK  6 active torsions:
REMARK  status: ('A' for Active; 'I' for Inactive)
REMARK    1  A    between atoms: C3_3  and  N1_4 
REMARK    2  A    between atoms: C5_8  and  C6_9 
REMARK    3  A    between atoms: C8_13  and  N4_14 
REMARK    4  A    between atoms: N4_14  and  N5_16 
REMARK    5  A    between atoms: C10_21  and  O1_22 
REMARK    6  A    between atoms: C11_25  and  C12_26 
ROOT
HETATM    1  C1  UNL     1      -0.579   5.788  19.041  1.00  0.00     0.014 C 
HETATM    2  C2  UNL     1      -1.481   5.856  18.243  1.00  0.00    -0.096 C 
HETATM    3  C3  UNL     1      -2.581   5.951  17.286  1.00  0.00     0.242 C 
ENDROOT
BRANCH   3   4
HETATM    4  N1  UNL     1      -2.355   6.989  16.313  1.00  0.00    -0.278 N 
HETATM    5  N2  UNL     1      -2.587   8.269  16.459  1.00  0.00    -0.307 N 
HETATM    6  C4  UNL     1      -2.253   8.924  15.339  1.00  0.00     0.125 A 
ATOM      7  H2  UNL     1      -2.967   8.704  17.300  1.00  0.00     0.186 HD
HETATM    8  C5  UNL     1      -1.777   7.973  14.435  1.00  0.00     0.064 A 
HETATM    9  C11 UNL     1      -1.846   6.770  15.055  1.00  0.00     0.105 A 
BRANCH   8  10
HETATM   10  C6  UNL     1      -1.320   8.316  13.110  1.00  0.00     0.165 A 
HETATM   11  N3  UNL     1      -0.405   7.550  12.537  1.00  0.00    -0.333 N 
HETATM   12  C7  UNL     1       0.101   7.807  11.245  1.00  0.00     0.080 A 
ATOM     13  H3  UNL     1      -0.051   6.741  13.049  1.00  0.00     0.168 HD
HETATM   14  C8  UNL     1       1.014   7.007  10.723  1.00  0.00     0.138 C 
HETATM   15  C9  UNL     1      -0.395   8.958  10.505  1.00  0.00     0.132 A 
HETATM   16  N6  UNL     1       0.066   9.279   9.205  1.00  0.00    -0.095 NA
HETATM   17  C10 UNL     1      -1.321   9.730  11.090  1.00  0.00     0.212 A 
HETATM   18  O2  UNL     1      -1.723   9.374  12.333  1.00  0.00    -0.268 OA
BRANCH  14  19
HETATM   19  N4  UNL     1       1.521   5.875  11.420  1.00  0.00    -0.316 N 
ATOM     20  H4  UNL     1       2.328   5.998  12.032  1.00  0.00     0.185 HD
BRANCH  19  21
HETATM   21  N5  UNL     1       0.960   4.603  11.298  1.00  0.00    -0.345 N 
ATOM     22  H52 UNL     1      -0.057   4.536  11.266  1.00  0.00     0.176 HD
ATOM     23  H51 UNL     1       1.525   3.756  11.241  1.00  0.00     0.176 HD
ENDBRANCH  19  21
ENDBRANCH  14  19
BRANCH  17  24
HETATM   24  O1  UNL     1      -1.803  10.835  10.389  1.00  0.00    -0.339 OA
ATOM     25  H1  UNL     1      -2.461  11.381  10.804  1.00  0.00     0.220 HD
ENDBRANCH  17  24
ENDBRANCH   8  10
BRANCH   9  26
HETATM   26  C12 UNL     1      -1.479   5.454  14.572  1.00  0.00     0.290 C 
HETATM   27  O3  UNL     1      -0.400   5.167  14.072  1.00  0.00    -0.300 OA
ENDBRANCH   9  26
ENDBRANCH   3   4
TORSDOF 6
ENDMDL
MODEL 2
REMARK VINA RESULT: -7.297278146      2.450      6.109
REMARK  6 active torsions:
REMARK  status: ('A' for Active; 'I' for Inactive)
REMARK    1  A    between atoms: C3_3  and  N1_4 
REMARK    2  A    between atoms: C5_8  and  C6_9 
REMARK    3  A    between atoms: C8_13  and  N4_14 
REMARK    4  A    between atoms: N4_14  and  N5_16 
REMARK    5  A    between atoms: C10_21  and  O1_22 
REMARK    6  A    between atoms: C11_25  and  C12_26 
ROOT
HETATM    1  C1  UNL     1      -0.962  10.230   8.078  1.00  0.00     0.014 C 
HETATM    2  C2  UNL     1      -0.593   9.357   8.823  1.00  0.00    -0.096 C 
HETATM    3  C3  UNL     1      -0.134   8.309   9.732  1.00  0.00     0.242 C 
ENDROOT
BRANCH   3   4
HETATM    4  N1  UNL     1      -0.695   8.460  11.051  1.00  0.00    -0.278 N 
HETATM    5  N2  UNL     1      -0.993   9.583  11.655  1.00  0.00    -0.307 N 
HETATM    6  C4  UNL     1      -1.495   9.327  12.871  1.00  0.00     0.125 A 
ATOM      7  H2  UNL     1      -0.863  10.514  11.259  1.00  0.00     0.186 HD
HETATM    8  C5  UNL     1      -1.506   7.940  13.025  1.00  0.00     0.064 A 
HETATM    9  C11 UNL     1      -1.005   7.411  11.883  1.00  0.00     0.105 A 
BRANCH   8  10
HETATM   10  C6  UNL     1      -1.985   7.292  14.222  1.00  0.00     0.165 A 
HETATM   11  N3  UNL     1      -1.263   6.313  14.746  1.00  0.00    -0.333 N 
HETATM   12  C7  UNL     1      -1.653   5.622  15.913  1.00  0.00     0.080 A 
ATOM     13  H3  UNL     1      -0.391   6.047  14.287  1.00  0.00     0.168 HD
HETATM   14  C8  UNL     1      -0.892   4.653  16.390  1.00  0.00     0.138 C 
HETATM   15  C9  UNL     1      -2.895   5.992  16.575  1.00  0.00     0.132 A 
HETATM   16  N6  UNL     1      -3.349   5.344  17.749  1.00  0.00    -0.095 NA
HETATM   17  C10 UNL     1      -3.621   6.983  16.040  1.00  0.00     0.212 A 
HETATM   18  O2  UNL     1      -3.137   7.565  14.918  1.00  0.00    -0.268 OA
BRANCH  14  19
HETATM   19  N4  UNL     1       0.328   4.267  15.767  1.00  0.00    -0.316 N 
ATOM     20  H4  UNL     1       1.200   4.675  16.103  1.00  0.00     0.185 HD
BRANCH  19  21
HETATM   21  N5  UNL     1       0.378   3.351  14.715  1.00  0.00    -0.345 N 
ATOM     22  H52 UNL     1       0.688   2.403  14.927  1.00  0.00     0.176 HD
ATOM     23  H51 UNL     1       0.119   3.598  13.760  1.00  0.00     0.176 HD
ENDBRANCH  19  21
ENDBRANCH  14  19
BRANCH  17  24
HETATM   24  O1  UNL     1      -4.813   7.345  16.668  1.00  0.00    -0.339 OA
ATOM     25  H1  UNL     1      -5.533   7.651  16.128  1.00  0.00     0.220 HD
ENDBRANCH  17  24
ENDBRANCH   8  10
BRANCH   9  26
HETATM   26  C12 UNL     1      -0.796   6.026  11.514  1.00  0.00     0.290 C 
HETATM   27  O3  UNL     1      -0.128   5.224  12.152  1.00  0.00    -0.300 OA
ENDBRANCH   9  26
ENDBRANCH   3   4
TORSDOF 6
ENDMDL
MODEL 3
REMARK VINA RESULT: -7.276206930      1.883      2.304
REMARK  6 active torsions:
REMARK  status: ('A' for Active; 'I' for Inactive)
REMARK    1  A    between atoms: C3_3  and  N1_4 
REMARK    2  A    between atoms: C5_8  and  C6_9 
REMARK    3  A    between atoms: C8_13  and  N4_14 
REMARK    4  A    between atoms: N4_14  and  N5_16 
REMARK    5  A    between atoms: C10_21  and  O1_22 
REMARK    6  A    between atoms: C11_25  and  C12_26 
ROOT
HETATM    1  C1  UNL     1      -1.330   3.366  18.633  1.00  0.00     0.014 C 
HETATM    2  C2  UNL     1      -1.298   4.531  18.324  1.00  0.00    -0.096 C 
HETATM    3  C3  UNL     1      -1.244   5.944  17.955  1.00  0.00     0.242 C 
ENDROOT
BRANCH   3   4
HETATM    4  N1  UNL     1      -0.731   6.129  16.621  1.00  0.00    -0.278 N 
HETATM    5  N2  UNL     1       0.346   5.588  16.109  1.00  0.00    -0.307 N 
HETATM    6  C4  UNL     1       0.502   5.994  14.842  1.00  0.00     0.125 A 
ATOM      7  H2  UNL     1       0.974   4.953  16.602  1.00  0.00     0.186 HD
HETATM    8  C5  UNL     1      -0.562   6.849  14.552  1.00  0.00     0.064 A 
HETATM    9  C11 UNL     1      -1.324   6.925  15.670  1.00  0.00     0.105 A 
BRANCH   8  10
HETATM   10  C6  UNL     1      -0.726   7.483  13.266  1.00  0.00     0.165 A 
HETATM   11  N3  UNL     1      -0.690   6.728  12.178  1.00  0.00    -0.333 N 
HETATM   12  C7  UNL     1      -0.841   7.260  10.880  1.00  0.00     0.080 A 
ATOM     13  H3  UNL     1      -0.549   5.723  12.283  1.00  0.00     0.168 HD
HETATM   14  C8  UNL     1      -0.796   6.457   9.831  1.00  0.00     0.138 C 
HETATM   15  C9  UNL     1      -1.042   8.692  10.718  1.00  0.00     0.132 A 
HETATM   16  N6  UNL     1      -1.201   9.295   9.447  1.00  0.00    -0.095 NA
HETATM   17  C10 UNL     1      -1.077   9.450  11.822  1.00  0.00     0.212 A 
HETATM   18  O2  UNL     1      -0.920   8.818  13.009  1.00  0.00    -0.268 OA
BRANCH  14  19
HETATM   19  N4  UNL     1      -0.600   5.054   9.954  1.00  0.00    -0.316 N 
ATOM     20  H4  UNL     1      -0.180   4.692  10.810  1.00  0.00     0.185 HD
BRANCH  19  21
HETATM   21  N5  UNL     1      -0.958   4.153   8.950  1.00  0.00    -0.345 N 
ATOM     22  H52 UNL     1      -1.807   4.348   8.419  1.00  0.00     0.176 HD
ATOM     23  H51 UNL     1      -0.407   3.322   8.735  1.00  0.00     0.176 HD
ENDBRANCH  19  21
ENDBRANCH  14  19
BRANCH  17  24
HETATM   24  O1  UNL     1      -1.271  10.824  11.678  1.00  0.00    -0.339 OA
ATOM     25  H1  UNL     1      -0.637  11.318  11.171  1.00  0.00     0.220 HD
ENDBRANCH  17  24
ENDBRANCH   8  10
BRANCH   9  26
HETATM   26  C12 UNL     1      -2.542   7.670  15.915  1.00  0.00     0.290 C 
HETATM   27  O3  UNL     1      -2.588   8.829  16.304  1.00  0.00    -0.300 OA
ENDBRANCH   9  26
ENDBRANCH   3   4
TORSDOF 6
ENDMDL
MODEL 4
REMARK VINA RESULT: -7.252973893      2.028      3.017
REMARK  6 active torsions:
REMARK  status: ('A' for Active; 'I' for Inactive)
REMARK    1  A    between atoms: C3_3  and  N1_4 
REMARK    2  A    between atoms: C5_8  and  C6_9 
REMARK    3  A    between atoms: C8_13  and  N4_14 
REMARK    4  A    between atoms: N4_14  and  N5_16 
REMARK    5  A    between atoms: C10_21  and  O1_22 
REMARK    6  A    between atoms: C11_25  and  C12_26 
ROOT
HETATM    1  C1  UNL     1      -1.684   4.046  18.246  1.00  0.00     0.014 C 
HETATM    2  C2  UNL     1      -1.460   5.221  18.091  1.00  0.00    -0.096 C 
HETATM    3  C3  UNL     1      -1.173   6.641  17.898  1.00  0.00     0.242 C 
ENDROOT
BRANCH   3   4
HETATM    4  N1  UNL     1      -1.436   7.061  16.545  1.00  0.00    -0.278 N 
HETATM    5  N2  UNL     1      -2.424   7.814  16.132  1.00  0.00    -0.307 N 
HETATM    6  C4  UNL     1      -2.341   7.989  14.806  1.00  0.00     0.125 A 
ATOM      7  H2  UNL     1      -3.150   8.209  16.730  1.00  0.00     0.186 HD
HETATM    8  C5  UNL     1      -1.214   7.290  14.371  1.00  0.00     0.064 A 
HETATM    9  C11 UNL     1      -0.659   6.715  15.465  1.00  0.00     0.105 A 
BRANCH   8  10
HETATM   10  C6  UNL     1      -0.806   7.252  12.988  1.00  0.00     0.165 A 
HETATM   11  N3  UNL     1      -0.714   8.393  12.322  1.00  0.00    -0.333 N 
HETATM   12  C7  UNL     1      -0.323   8.454  10.968  1.00  0.00     0.080 A 
ATOM     13  H3  UNL     1      -0.934   9.263  12.808  1.00  0.00     0.168 HD
HETATM   14  C8  UNL     1      -0.249   9.622  10.355  1.00  0.00     0.138 C 
HETATM   15  C9  UNL     1      -0.007   7.220  10.264  1.00  0.00     0.132 A 
HETATM   16  N6  UNL     1       0.392   7.203   8.906  1.00  0.00    -0.095 NA
HETATM   17  C10 UNL     1      -0.102   6.068  10.943  1.00  0.00     0.212 A 
HETATM   18  O2  UNL     1      -0.488   6.146  12.238  1.00  0.00    -0.268 OA
BRANCH  14  19
HETATM   19  N4  UNL     1      -0.552  10.847  11.013  1.00  0.00    -0.316 N 
ATOM     20  H4  UNL     1      -1.338  10.873  11.661  1.00  0.00     0.185 HD
BRANCH  19  21
HETATM   21  N5  UNL     1       0.184  12.015  10.806  1.00  0.00    -0.345 N 
ATOM     22  H52 UNL     1       1.016  11.952  10.220  1.00  0.00     0.176 HD
ATOM     23  H51 UNL     1      -0.080  12.911  11.215  1.00  0.00     0.176 HD
ENDBRANCH  19  21
ENDBRANCH  14  19
BRANCH  17  24
HETATM   24  O1  UNL     1       0.200   4.880  10.278  1.00  0.00    -0.339 OA
ATOM     25  H1  UNL     1      -0.078   4.785   9.374  1.00  0.00     0.220 HD
ENDBRANCH  17  24
ENDBRANCH   8  10
BRANCH   9  26
HETATM   26  C12 UNL     1       0.521   5.883  15.579  1.00  0.00     0.290 C 
HETATM   27  O3  UNL     1       0.592   4.715  15.220  1.00  0.00    -0.300 OA
ENDBRANCH   9  26
ENDBRANCH   3   4
TORSDOF 6
ENDMDL
MODEL 5
REMARK VINA RESULT: -7.213016743      2.424      6.661
REMARK  6 active torsions:
REMARK  status: ('A' for Active; 'I' for Inactive)
REMARK    1  A    between atoms: C3_3  and  N1_4 
REMARK    2  A    between atoms: C5_8  and  C6_9 
REMARK    3  A    between atoms: C8_13  and  N4_14 
REMARK    4  A    between atoms: N4_14  and  N5_16 
REMARK    5  A    between atoms: C10_21  and  O1_22 
REMARK    6  A    between atoms: C11_25  and  C12_26 
ROOT
HETATM    1  C1  UNL     1      -0.256  12.133   8.446  1.00  0.00     0.014 C 
HETATM    2  C2  UNL     1      -0.363  10.942   8.608  1.00  0.00    -0.096 C 
HETATM    3  C3  UNL     1      -0.476   9.499   8.808  1.00  0.00     0.242 C 
ENDROOT
BRANCH   3   4
HETATM    4  N1  UNL     1      -0.709   9.167  10.190  1.00  0.00    -0.278 N 
HETATM    5  N2  UNL     1      -1.412   9.853  11.056  1.00  0.00    -0.307 N 
HETATM    6  C4  UNL     1      -1.403   9.231  12.244  1.00  0.00     0.125 A 
ATOM      7  H2  UNL     1      -1.895  10.729  10.857  1.00  0.00     0.186 HD
HETATM    8  C5  UNL     1      -0.636   8.075  12.095  1.00  0.00     0.064 A 
HETATM    9  C11 UNL     1      -0.209   8.047  10.810  1.00  0.00     0.105 A 
BRANCH   8  10
HETATM   10  C6  UNL     1      -0.404   7.149  13.177  1.00  0.00     0.165 A 
HETATM   11  N3  UNL     1      -1.028   7.349  14.328  1.00  0.00    -0.333 N 
HETATM   12  C7  UNL     1      -0.862   6.496  15.440  1.00  0.00     0.080 A 
ATOM     13  H3  UNL     1      -1.652   8.151  14.414  1.00  0.00     0.168 HD
HETATM   14  C8  UNL     1      -1.511   6.745  16.563  1.00  0.00     0.138 C 
HETATM   15  C9  UNL     1       0.027   5.349  15.328  1.00  0.00     0.132 A 
HETATM   16  N6  UNL     1       0.242   4.451  16.402  1.00  0.00    -0.095 NA
HETATM   17  C10 UNL     1       0.655   5.152  14.161  1.00  0.00     0.212 A 
HETATM   18  O2  UNL     1       0.411   6.043  13.172  1.00  0.00    -0.268 OA
BRANCH  14  19
HETATM   19  N4  UNL     1      -2.387   7.858  16.706  1.00  0.00    -0.316 N 
ATOM     20  H4  UNL     1      -2.000   8.748  17.018  1.00  0.00     0.185 HD
BRANCH  19  21
HETATM   21  N5  UNL     1      -3.753   7.779  16.436  1.00  0.00    -0.345 N 
ATOM     22  H52 UNL     1      -4.036   7.402  15.532  1.00  0.00     0.176 HD
ATOM     23  H51 UNL     1      -4.464   8.081  17.103  1.00  0.00     0.176 HD
ENDBRANCH  19  21
ENDBRANCH  14  19
BRANCH  17  24
HETATM   24  O1  UNL     1       1.509   4.056  14.045  1.00  0.00    -0.339 OA
ATOM     25  H1  UNL     1       1.675   3.702  13.179  1.00  0.00     0.220 HD
ENDBRANCH  17  24
ENDBRANCH   8  10
BRANCH   9  26
HETATM   26  C12 UNL     1       0.615   7.071  10.126  1.00  0.00     0.290 C 
HETATM   27  O3  UNL     1       0.200   6.043   9.608  1.00  0.00    -0.300 OA
ENDBRANCH   9  26
ENDBRANCH   3   4
TORSDOF 6
ENDMDL
