MODEL 1
REMARK VINA RESULT: -7.049067574      0.000      0.000
REMARK  6 active torsions:
REMARK  status: ('A' for Active; 'I' for Inactive)
REMARK    1  A    between atoms: N2_6  and  N3_8 
REMARK    2  A    between atoms: N3_8  and  C4_10 
REMARK    3  A    between atoms: C4_10  and  N4_12 
REMARK    4  A    between atoms: N4_12  and  N5_14 
REMARK    5  A    between atoms: N6_17  and  N7_18 
REMARK    6  A    between atoms: C5_21  and  N8_22 
ROOT
HETATM    1  C1  UNL     1      28.231  23.025  44.545  1.00  0.00     0.073 C 
HETATM    2  C2  UNL     1      29.370  23.536  43.764  1.00  0.00     0.075 A 
HETATM    3  N1  UNL     1      29.716  23.119  42.522  1.00  0.00    -0.189 N 
ATOM      4  H1  UNL     1      29.239  22.405  41.972  1.00  0.00     0.184 HD
HETATM    5  C3  UNL     1      30.802  23.815  42.144  1.00  0.00     0.720 A 
HETATM    6  N2  UNL     1      31.449  23.725  41.033  1.00  0.00    -0.128 N 
ATOM      7  H2  UNL     1      31.135  23.060  40.327  1.00  0.00     0.205 HD
HETATM    8  N6  UNL     1      31.131  24.660  43.143  1.00  0.00    -0.067 N 
HETATM    9  C5  UNL     1      30.258  24.509  44.164  1.00  0.00     0.234 A 
ENDROOT
BRANCH   6  10
HETATM   10  N3  UNL     1      32.569  24.516  40.774  1.00  0.00    -0.261 N 
ATOM     11  H3  UNL     1      33.040  24.993  41.543  1.00  0.00     0.190 HD
BRANCH  10  12
HETATM   12  C4  UNL     1      33.061  24.664  39.448  1.00  0.00     0.205 C 
HETATM   13  S1  UNL     1      32.017  24.898  38.216  1.00  0.00    -0.038 SA
BRANCH  12  14
HETATM   14  N4  UNL     1      34.445  24.613  39.178  1.00  0.00    -0.282 N 
ATOM     15  H4  UNL     1      35.015  25.446  39.329  1.00  0.00     0.189 HD
BRANCH  14  16
HETATM   16  N5  UNL     1      35.050  23.449  38.710  1.00  0.00    -0.343 N 
ATOM     17  H52 UNL     1      34.870  22.577  39.207  1.00  0.00     0.176 HD
ATOM     18  H51 UNL     1      35.658  23.459  37.891  1.00  0.00     0.176 HD
ENDBRANCH  14  16
ENDBRANCH  12  14
ENDBRANCH  10  12
ENDBRANCH   6  10
BRANCH   8  19
HETATM   19  N7  UNL     1      32.180  25.574  43.204  1.00  0.00    -0.322 N 
ATOM     20  H72 UNL     1      32.824  25.601  43.995  1.00  0.00     0.178 HD
ATOM     21  H71 UNL     1      32.443  26.292  42.529  1.00  0.00     0.178 HD
ENDBRANCH   8  19
BRANCH   9  22
HETATM   22  N8  UNL     1      30.223  25.188  45.408  1.00  0.00    -0.093 N 
HETATM   23  O1  UNL     1      29.897  26.388  45.491  1.00  0.00    -0.530 OA
HETATM   24  O2  UNL     1      30.548  24.541  46.564  1.00  0.00    -0.530 OA
ENDBRANCH   9  22
TORSDOF 6
ENDMDL
MODEL 2
REMARK VINA RESULT: -6.827678984      1.592      2.209
REMARK  6 active torsions:
REMARK  status: ('A' for Active; 'I' for Inactive)
REMARK    1  A    between atoms: N2_6  and  N3_8 
REMARK    2  A    between atoms: N3_8  and  C4_10 
REMARK    3  A    between atoms: C4_10  and  N4_12 
REMARK    4  A    between atoms: N4_12  and  N5_14 
REMARK    5  A    between atoms: N6_17  and  N7_18 
REMARK    6  A    between atoms: C5_21  and  N8_22 
ROOT
HETATM    1  C1  UNL     1      29.466  27.324  44.109  1.00  0.00     0.073 C 
HETATM    2  C2  UNL     1      30.248  26.432  43.236  1.00  0.00     0.075 A 
HETATM    3  N1  UNL     1      30.772  26.777  42.034  1.00  0.00    -0.189 N 
ATOM      4  H1  UNL     1      30.694  27.688  41.584  1.00  0.00     0.184 HD
HETATM    5  C3  UNL     1      31.413  25.703  41.544  1.00  0.00     0.720 A 
HETATM    6  N2  UNL     1      32.047  25.604  40.427  1.00  0.00    -0.128 N 
ATOM      7  H2  UNL     1      32.095  26.415  39.809  1.00  0.00     0.205 HD
HETATM    8  N6  UNL     1      31.290  24.695  42.432  1.00  0.00    -0.067 N 
HETATM    9  C5  UNL     1      30.570  25.119  43.496  1.00  0.00     0.234 A 
ENDROOT
BRANCH   6  10
HETATM   10  N3  UNL     1      32.670  24.417  40.041  1.00  0.00    -0.261 N 
ATOM     11  H3  UNL     1      32.555  23.579  40.611  1.00  0.00     0.190 HD
BRANCH  10  12
HETATM   12  C4  UNL     1      33.463  24.363  38.863  1.00  0.00     0.205 C 
HETATM   13  S1  UNL     1      33.477  25.631  37.835  1.00  0.00    -0.038 SA
BRANCH  12  14
HETATM   14  N4  UNL     1      34.243  23.226  38.564  1.00  0.00    -0.282 N 
ATOM     15  H4  UNL     1      33.798  22.413  38.136  1.00  0.00     0.189 HD
BRANCH  14  16
HETATM   16  N5  UNL     1      35.608  23.190  38.841  1.00  0.00    -0.343 N 
ATOM     17  H52 UNL     1      35.903  22.989  39.796  1.00  0.00     0.176 HD
ATOM     18  H51 UNL     1      36.301  23.361  38.113  1.00  0.00     0.176 HD
ENDBRANCH  14  16
ENDBRANCH  12  14
ENDBRANCH  10  12
ENDBRANCH   6  10
BRANCH   8  19
HETATM   19  N7  UNL     1      31.787  23.396  42.355  1.00  0.00    -0.322 N 
ATOM     20  H72 UNL     1      32.274  23.056  41.526  1.00  0.00     0.178 HD
ATOM     21  H71 UNL     1      31.744  22.652  43.052  1.00  0.00     0.178 HD
ENDBRANCH   8  19
BRANCH   9  22
HETATM   22  N8  UNL     1      30.198  24.400  44.658  1.00  0.00    -0.093 N 
HETATM   23  O1  UNL     1      29.384  23.457  44.615  1.00  0.00    -0.530 OA
HETATM   24  O2  UNL     1      30.725  24.723  45.875  1.00  0.00    -0.530 OA
ENDBRANCH   9  22
TORSDOF 6
ENDMDL
MODEL 3
REMARK VINA RESULT: -6.729230239      1.010      1.275
REMARK  6 active torsions:
REMARK  status: ('A' for Active; 'I' for Inactive)
REMARK    1  A    between atoms: N2_6  and  N3_8 
REMARK    2  A    between atoms: N3_8  and  C4_10 
REMARK    3  A    between atoms: C4_10  and  N4_12 
REMARK    4  A    between atoms: N4_12  and  N5_14 
REMARK    5  A    between atoms: N6_17  and  N7_18 
REMARK    6  A    between atoms: C5_21  and  N8_22 
ROOT
HETATM    1  C1  UNL     1      28.219  23.210  44.988  1.00  0.00     0.073 C 
HETATM    2  C2  UNL     1      29.259  23.787  44.120  1.00  0.00     0.075 A 
HETATM    3  N1  UNL     1      30.043  23.086  43.265  1.00  0.00    -0.189 N 
ATOM      4  H1  UNL     1      30.015  22.078  43.114  1.00  0.00     0.184 HD
HETATM    5  C3  UNL     1      30.863  23.957  42.653  1.00  0.00     0.720 A 
HETATM    6  N2  UNL     1      31.764  23.703  41.768  1.00  0.00    -0.128 N 
ATOM      7  H2  UNL     1      31.906  22.739  41.465  1.00  0.00     0.205 HD
HETATM    8  N6  UNL     1      30.593  25.192  43.122  1.00  0.00    -0.067 N 
HETATM    9  C5  UNL     1      29.599  25.119  44.036  1.00  0.00     0.234 A 
ENDROOT
BRANCH   6  10
HETATM   10  N3  UNL     1      32.550  24.714  41.214  1.00  0.00    -0.261 N 
ATOM     11  H3  UNL     1      32.960  25.425  41.820  1.00  0.00     0.190 HD
BRANCH  10  12
HETATM   12  C4  UNL     1      32.786  24.763  39.813  1.00  0.00     0.205 C 
HETATM   13  S1  UNL     1      31.526  24.737  38.776  1.00  0.00    -0.038 SA
BRANCH  12  14
HETATM   14  N4  UNL     1      34.099  24.836  39.300  1.00  0.00    -0.282 N 
ATOM     15  H4  UNL     1      34.571  25.740  39.260  1.00  0.00     0.189 HD
BRANCH  14  16
HETATM   16  N5  UNL     1      34.764  23.698  38.847  1.00  0.00    -0.343 N 
ATOM     17  H52 UNL     1      34.322  23.138  38.119  1.00  0.00     0.176 HD
ATOM     18  H51 UNL     1      35.669  23.427  39.228  1.00  0.00     0.176 HD
ENDBRANCH  14  16
ENDBRANCH  12  14
ENDBRANCH  10  12
ENDBRANCH   6  10
BRANCH   8  19
HETATM   19  N7  UNL     1      31.187  26.406  42.781  1.00  0.00    -0.322 N 
ATOM     20  H72 UNL     1      30.890  26.938  41.964  1.00  0.00     0.178 HD
ATOM     21  H71 UNL     1      31.942  26.903  43.254  1.00  0.00     0.178 HD
ENDBRANCH   8  19
BRANCH   9  22
HETATM   22  N8  UNL     1      28.999  26.165  44.779  1.00  0.00    -0.093 N 
HETATM   23  O1  UNL     1      29.613  26.762  45.687  1.00  0.00    -0.530 OA
HETATM   24  O2  UNL     1      27.718  26.556  44.523  1.00  0.00    -0.530 OA
ENDBRANCH   9  22
TORSDOF 6
ENDMDL
MODEL 4
REMARK VINA RESULT: -6.627512373      1.922      2.637
REMARK  6 active torsions:
REMARK  status: ('A' for Active; 'I' for Inactive)
REMARK    1  A    between atoms: N2_6  and  N3_8 
REMARK    2  A    between atoms: N3_8  and  C4_10 
REMARK    3  A    between atoms: C4_10  and  N4_12 
REMARK    4  A    between atoms: N4_12  and  N5_14 
REMARK    5  A    between atoms: N6_17  and  N7_18 
REMARK    6  A    between atoms: C5_21  and  N8_22 
ROOT
HETATM    1  C1  UNL     1      30.460  25.588  44.876  1.00  0.00     0.073 C 
HETATM    2  C2  UNL     1      30.965  25.099  43.581  1.00  0.00     0.075 A 
HETATM    3  N1  UNL     1      31.987  25.650  42.882  1.00  0.00    -0.189 N 
ATOM      4  H1  UNL     1      32.533  26.466  43.157  1.00  0.00     0.184 HD
HETATM    5  C3  UNL     1      32.151  24.928  41.761  1.00  0.00     0.720 A 
HETATM    6  N2  UNL     1      33.014  25.114  40.822  1.00  0.00    -0.128 N 
ATOM      7  H2  UNL     1      33.672  25.891  40.898  1.00  0.00     0.205 HD
HETATM    8  N6  UNL     1      31.239  23.934  41.760  1.00  0.00    -0.067 N 
HETATM    9  C5  UNL     1      30.487  24.015  42.881  1.00  0.00     0.234 A 
ENDROOT
BRANCH   6  10
HETATM   10  N3  UNL     1      33.072  24.280  39.705  1.00  0.00    -0.261 N 
ATOM     11  H3  UNL     1      32.651  23.352  39.747  1.00  0.00     0.190 HD
BRANCH  10  12
HETATM   12  C4  UNL     1      33.710  24.711  38.510  1.00  0.00     0.205 C 
HETATM   13  S1  UNL     1      33.143  26.016  37.712  1.00  0.00    -0.038 SA
BRANCH  12  14
HETATM   14  N4  UNL     1      34.833  24.025  38.000  1.00  0.00    -0.282 N 
ATOM     15  H4  UNL     1      35.116  24.180  37.032  1.00  0.00     0.189 HD
BRANCH  14  16
HETATM   16  N5  UNL     1      35.564  23.142  38.791  1.00  0.00    -0.343 N 
ATOM     17  H52 UNL     1      35.367  22.144  38.711  1.00  0.00     0.176 HD
ATOM     18  H51 UNL     1      36.279  23.475  39.437  1.00  0.00     0.176 HD
ENDBRANCH  14  16
ENDBRANCH  12  14
ENDBRANCH  10  12
ENDBRANCH   6  10
BRANCH   8  19
HETATM   19  N7  UNL     1      31.030  22.941  40.806  1.00  0.00    -0.322 N 
ATOM     20  H72 UNL     1      31.427  22.007  40.908  1.00  0.00     0.178 HD
ATOM     21  H71 UNL     1      30.495  22.989  39.939  1.00  0.00     0.178 HD
ENDBRANCH   8  19
BRANCH   9  22
HETATM   22  N8  UNL     1      29.418  23.181  43.292  1.00  0.00    -0.093 N 
HETATM   23  O1  UNL     1      29.480  22.501  44.336  1.00  0.00    -0.530 OA
HETATM   24  O2  UNL     1      28.276  23.095  42.551  1.00  0.00    -0.530 OA
ENDBRANCH   9  22
TORSDOF 6
ENDMDL
MODEL 5
REMARK VINA RESULT: -6.570420076      1.616      1.825
REMARK  6 active torsions:
REMARK  status: ('A' for Active; 'I' for Inactive)
REMARK    1  A    between atoms: N2_6  and  N3_8 
REMARK    2  A    between atoms: N3_8  and  C4_10 
REMARK    3  A    between atoms: C4_10  and  N4_12 
REMARK    4  A    between atoms: N4_12  and  N5_14 
REMARK    5  A    between atoms: N6_17  and  N7_18 
REMARK    6  A    between atoms: C5_21  and  N8_22 
ROOT
HETATM    1  C1  UNL     1      28.564  23.239  43.791  1.00  0.00     0.073 C 
HETATM    2  C2  UNL     1      29.720  23.572  42.942  1.00  0.00     0.075 A 
HETATM    3  N1  UNL     1      29.970  23.047  41.718  1.00  0.00    -0.189 N 
ATOM      4  H1  UNL     1      29.395  22.359  41.231  1.00  0.00     0.184 HD
HETATM    5  C3  UNL     1      31.109  23.594  41.263  1.00  0.00     0.720 A 
HETATM    6  N2  UNL     1      31.698  23.367  40.139  1.00  0.00    -0.128 N 
ATOM      7  H2  UNL     1      31.285  22.700  39.487  1.00  0.00     0.205 HD
HETATM    8  N6  UNL     1      31.567  24.454  42.194  1.00  0.00    -0.067 N 
HETATM    9  C5  UNL     1      30.725  24.462  43.252  1.00  0.00     0.234 A 
ENDROOT
BRANCH   6  10
HETATM   10  N3  UNL     1      32.887  24.011  39.794  1.00  0.00    -0.261 N 
ATOM     11  H3  UNL     1      33.410  24.520  40.506  1.00  0.00     0.190 HD
BRANCH  10  12
HETATM   12  C4  UNL     1      33.376  23.964  38.460  1.00  0.00     0.205 C 
HETATM   13  S1  UNL     1      34.793  23.219  38.141  1.00  0.00    -0.038 SA
BRANCH  12  14
HETATM   14  N4  UNL     1      32.654  24.554  37.400  1.00  0.00    -0.282 N 
ATOM     15  H4  UNL     1      31.635  24.577  37.442  1.00  0.00     0.189 HD
BRANCH  14  16
HETATM   16  N5  UNL     1      33.304  25.105  36.298  1.00  0.00    -0.343 N 
ATOM     17  H52 UNL     1      34.057  24.571  35.864  1.00  0.00     0.176 HD
ATOM     18  H51 UNL     1      33.041  26.018  35.929  1.00  0.00     0.176 HD
ENDBRANCH  14  16
ENDBRANCH  12  14
ENDBRANCH  10  12
ENDBRANCH   6  10
BRANCH   8  19
HETATM   19  N7  UNL     1      32.712  25.247  42.164  1.00  0.00    -0.322 N 
ATOM     20  H72 UNL     1      33.633  24.854  41.970  1.00  0.00     0.178 HD
ATOM     21  H71 UNL     1      32.799  26.252  42.315  1.00  0.00     0.178 HD
ENDBRANCH   8  19
BRANCH   9  22
HETATM   22  N8  UNL     1      30.813  25.213  44.450  1.00  0.00    -0.093 N 
HETATM   23  O1  UNL     1      30.926  24.662  45.563  1.00  0.00    -0.530 OA
HETATM   24  O2  UNL     1      30.775  26.576  44.423  1.00  0.00    -0.530 OA
ENDBRANCH   9  22
TORSDOF 6
ENDMDL
