MODEL 1
REMARK VINA RESULT: -6.755324403      0.000      0.000
REMARK  6 active torsions:
REMARK  status: ('A' for Active; 'I' for Inactive)
REMARK    1  A    between atoms: N1_2  and  C2_4 
REMARK    2  A    between atoms: C3_7  and  O1_8 
REMARK    3  A    between atoms: C4_10  and  N3_11 
REMARK    4  A    between atoms: C5_14  and  N4_15 
REMARK    5  A    between atoms: N4_15  and  O4_17 
REMARK    6  A    between atoms: O4_17  and  C6_18 
ROOT
HETATM    1  C2  UNL     1      31.809  24.409  41.787  1.00  0.00     0.681 A 
HETATM    2  N2  UNL     1      30.882  23.521  42.169  1.00  0.00    -0.168 N 
ATOM      3  H2  UNL     1      30.623  22.769  41.530  1.00  0.00     0.186 HD
HETATM    4  C3  UNL     1      30.284  23.595  43.368  1.00  0.00     0.192 A 
HETATM    5  C4  UNL     1      30.595  24.582  44.257  1.00  0.00     0.200 A 
HETATM    6  C5  UNL     1      31.557  25.492  43.846  1.00  0.00     0.178 A 
HETATM    7  N7  UNL     1      32.133  25.385  42.639  1.00  0.00    -0.172 N 
ATOM      8  H7  UNL     1      32.838  26.069  42.364  1.00  0.00     0.186 HD
ENDROOT
BRANCH   6   9
HETATM    9  N4  UNL     1      31.878  26.452  44.676  1.00  0.00    -0.239 N 
ATOM     10  H4  UNL     1      32.443  26.271  45.505  1.00  0.00     0.196 HD
BRANCH   9  11
HETATM   11  O4  UNL     1      31.424  27.712  44.384  1.00  0.00    -0.203 OA
BRANCH  11  12
HETATM   12  C6  UNL     1      30.082  27.997  44.558  1.00  0.00     0.249 C 
HETATM   13  N5  UNL     1      29.662  28.148  45.766  1.00  0.00    -0.366 N 
ATOM     14  H52 UNL     1      30.262  28.068  46.587  1.00  0.00     0.159 HD
ATOM     15  H51 UNL     1      28.673  28.358  45.895  1.00  0.00     0.159 HD
HETATM   16  N6  UNL     1      29.249  28.107  43.419  1.00  0.00    -0.055 NA
ENDBRANCH  11  12
ENDBRANCH   9  11
ENDBRANCH   6   9
BRANCH   5  17
HETATM   17  N3  UNL     1      30.002  24.701  45.515  1.00  0.00    -0.107 N 
HETATM   18  O2  UNL     1      30.629  24.495  46.561  1.00  0.00    -0.531 OA
HETATM   19  O3  UNL     1      28.674  25.059  45.612  1.00  0.00    -0.531 OA
ENDBRANCH   5  17
BRANCH   4  20
HETATM   20  O1  UNL     1      29.324  22.663  43.743  1.00  0.00    -0.344 OA
ATOM     21  H1  UNL     1      28.446  22.937  43.982  1.00  0.00     0.219 HD
ENDBRANCH   4  20
BRANCH   1  22
HETATM   22  N1  UNL     1      32.371  24.314  40.623  1.00  0.00    -0.230 N 
HETATM   23  C1  UNL     1      32.330  25.432  39.730  1.00  0.00     0.165 C 
ATOM     24  H1  UNL     1      32.837  23.450  40.345  1.00  0.00     0.177 HD
ENDBRANCH   1  22
TORSDOF 6
ENDMDL
MODEL 2
REMARK VINA RESULT: -6.710699356      2.139      3.113
REMARK  6 active torsions:
REMARK  status: ('A' for Active; 'I' for Inactive)
REMARK    1  A    between atoms: N1_2  and  C2_4 
REMARK    2  A    between atoms: C3_7  and  O1_8 
REMARK    3  A    between atoms: C4_10  and  N3_11 
REMARK    4  A    between atoms: C5_14  and  N4_15 
REMARK    5  A    between atoms: N4_15  and  O4_17 
REMARK    6  A    between atoms: O4_17  and  C6_18 
ROOT
HETATM    1  C2  UNL     1      32.055  25.149  41.617  1.00  0.00     0.681 A 
HETATM    2  N2  UNL     1      32.773  25.365  42.727  1.00  0.00    -0.168 N 
ATOM      3  H2  UNL     1      33.715  24.978  42.792  1.00  0.00     0.186 HD
HETATM    4  C3  UNL     1      32.287  26.077  43.756  1.00  0.00     0.192 A 
HETATM    5  C4  UNL     1      31.034  26.614  43.718  1.00  0.00     0.200 A 
HETATM    6  C5  UNL     1      30.304  26.381  42.561  1.00  0.00     0.178 A 
HETATM    7  N7  UNL     1      30.825  25.665  41.554  1.00  0.00    -0.172 N 
ATOM      8  H7  UNL     1      30.266  25.510  40.715  1.00  0.00     0.186 HD
ENDROOT
BRANCH   6   9
HETATM    9  N4  UNL     1      29.097  26.883  42.494  1.00  0.00    -0.239 N 
ATOM     10  H4  UNL     1      28.937  27.889  42.540  1.00  0.00     0.196 HD
BRANCH   9  11
HETATM   11  O4  UNL     1      28.058  26.001  42.358  1.00  0.00    -0.203 OA
BRANCH  11  12
HETATM   12  C6  UNL     1      26.966  26.118  43.199  1.00  0.00     0.249 C 
HETATM   13  N5  UNL     1      27.084  25.643  44.389  1.00  0.00    -0.366 N 
ATOM     14  H52 UNL     1      27.930  25.192  44.736  1.00  0.00     0.159 HD
ATOM     15  H51 UNL     1      26.279  25.729  45.009  1.00  0.00     0.159 HD
HETATM   16  N6  UNL     1      25.791  26.744  42.717  1.00  0.00    -0.055 NA
ENDBRANCH  11  12
ENDBRANCH   9  11
ENDBRANCH   6   9
BRANCH   5  17
HETATM   17  N3  UNL     1      30.484  27.361  44.761  1.00  0.00    -0.107 N 
HETATM   18  O2  UNL     1      30.775  28.549  44.945  1.00  0.00    -0.531 OA
HETATM   19  O3  UNL     1      29.583  26.770  45.622  1.00  0.00    -0.531 OA
ENDBRANCH   5  17
BRANCH   4  20
HETATM   20  O1  UNL     1      33.050  26.289  44.898  1.00  0.00    -0.344 OA
ATOM     21  H1  UNL     1      33.063  27.138  45.324  1.00  0.00     0.219 HD
ENDBRANCH   4  20
BRANCH   1  22
HETATM   22  N1  UNL     1      32.550  24.458  40.638  1.00  0.00    -0.230 N 
HETATM   23  C1  UNL     1      32.965  25.129  39.444  1.00  0.00     0.165 C 
ATOM     24  H1  UNL     1      32.642  23.445  40.718  1.00  0.00     0.177 HD
ENDBRANCH   1  22
TORSDOF 6
ENDMDL
MODEL 3
REMARK VINA RESULT: -6.556778959      1.764      3.205
REMARK  6 active torsions:
REMARK  status: ('A' for Active; 'I' for Inactive)
REMARK    1  A    between atoms: N1_2  and  C2_4 
REMARK    2  A    between atoms: C3_7  and  O1_8 
REMARK    3  A    between atoms: C4_10  and  N3_11 
REMARK    4  A    between atoms: C5_14  and  N4_15 
REMARK    5  A    between atoms: N4_15  and  O4_17 
REMARK    6  A    between atoms: O4_17  and  C6_18 
ROOT
HETATM    1  C2  UNL     1      31.755  24.530  42.010  1.00  0.00     0.681 A 
HETATM    2  N2  UNL     1      32.353  25.421  42.811  1.00  0.00    -0.168 N 
ATOM      3  H2  UNL     1      33.181  25.912  42.474  1.00  0.00     0.186 HD
HETATM    4  C3  UNL     1      31.892  25.685  44.043  1.00  0.00     0.192 A 
HETATM    5  C4  UNL     1      30.788  25.054  44.538  1.00  0.00     0.200 A 
HETATM    6  C5  UNL     1      30.181  24.135  43.695  1.00  0.00     0.178 A 
HETATM    7  N7  UNL     1      30.672  23.898  42.470  1.00  0.00    -0.172 N 
ATOM      8  H7  UNL     1      30.204  23.217  41.872  1.00  0.00     0.186 HD
ENDROOT
BRANCH   6   9
HETATM    9  N4  UNL     1      29.120  23.512  44.141  1.00  0.00    -0.239 N 
ATOM     10  H4  UNL     1      29.177  22.563  44.511  1.00  0.00     0.196 HD
BRANCH   9  11
HETATM   11  O4  UNL     1      27.929  24.186  44.092  1.00  0.00    -0.203 OA
BRANCH  11  12
HETATM   12  C6  UNL     1      27.130  24.219  45.220  1.00  0.00     0.249 C 
HETATM   13  N5  UNL     1      27.347  23.327  46.123  1.00  0.00    -0.366 N 
ATOM     14  H52 UNL     1      28.068  22.610  46.047  1.00  0.00     0.159 HD
ATOM     15  H51 UNL     1      26.758  23.351  46.955  1.00  0.00     0.159 HD
HETATM   16  N6  UNL     1      26.129  25.214  45.326  1.00  0.00    -0.055 NA
ENDBRANCH  11  12
ENDBRANCH   9  11
ENDBRANCH   6   9
BRANCH   5  17
HETATM   17  N3  UNL     1      30.270  25.294  45.813  1.00  0.00    -0.107 N 
HETATM   18  O2  UNL     1      29.645  26.326  46.085  1.00  0.00    -0.531 OA
HETATM   19  O3  UNL     1      30.452  24.359  46.809  1.00  0.00    -0.531 OA
ENDBRANCH   5  17
BRANCH   4  20
HETATM   20  O1  UNL     1      32.528  26.614  44.857  1.00  0.00    -0.344 OA
ATOM     21  H1  UNL     1      32.747  26.403  45.757  1.00  0.00     0.219 HD
ENDBRANCH   4  20
BRANCH   1  22
HETATM   22  N1  UNL     1      32.221  24.294  40.823  1.00  0.00    -0.230 N 
HETATM   23  C1  UNL     1      32.252  25.351  39.858  1.00  0.00     0.165 C 
ATOM     24  H1  UNL     1      32.563  23.364  40.579  1.00  0.00     0.177 HD
ENDBRANCH   1  22
TORSDOF 6
ENDMDL
MODEL 4
REMARK VINA RESULT: -6.533196212      4.180      6.569
REMARK  6 active torsions:
REMARK  status: ('A' for Active; 'I' for Inactive)
REMARK    1  A    between atoms: N1_2  and  C2_4 
REMARK    2  A    between atoms: C3_7  and  O1_8 
REMARK    3  A    between atoms: C4_10  and  N3_11 
REMARK    4  A    between atoms: C5_14  and  N4_15 
REMARK    5  A    between atoms: N4_15  and  O4_17 
REMARK    6  A    between atoms: O4_17  and  C6_18 
ROOT
HETATM    1  C2  UNL     1      29.683  23.347  37.376  1.00  0.00     0.681 A 
HETATM    2  N2  UNL     1      28.962  23.714  38.444  1.00  0.00    -0.168 N 
ATOM      3  H2  UNL     1      27.948  23.775  38.360  1.00  0.00     0.186 HD
HETATM    4  C3  UNL     1      29.539  24.004  39.621  1.00  0.00     0.192 A 
HETATM    5  C4  UNL     1      30.892  23.939  39.783  1.00  0.00     0.200 A 
HETATM    6  C5  UNL     1      31.623  23.557  38.668  1.00  0.00     0.178 A 
HETATM    7  N7  UNL     1      31.010  23.275  37.509  1.00  0.00    -0.172 N 
ATOM      8  H7  UNL     1      31.574  22.997  36.706  1.00  0.00     0.186 HD
ENDROOT
BRANCH   6   9
HETATM    9  N4  UNL     1      32.924  23.485  38.791  1.00  0.00    -0.239 N 
ATOM     10  H4  UNL     1      33.364  23.323  39.697  1.00  0.00     0.196 HD
BRANCH   9  11
HETATM   11  O4  UNL     1      33.672  23.636  37.653  1.00  0.00    -0.203 OA
BRANCH  11  12
HETATM   12  C6  UNL     1      34.976  23.174  37.642  1.00  0.00     0.249 C 
HETATM   13  N5  UNL     1      35.593  23.124  38.771  1.00  0.00    -0.366 N 
ATOM     14  H52 UNL     1      35.174  23.402  39.658  1.00  0.00     0.159 HD
ATOM     15  H51 UNL     1      36.555  22.784  38.763  1.00  0.00     0.159 HD
HETATM   16  N6  UNL     1      35.558  22.788  36.412  1.00  0.00    -0.055 NA
ENDBRANCH  11  12
ENDBRANCH   9  11
ENDBRANCH   6   9
BRANCH   5  17
HETATM   17  N3  UNL     1      31.538  24.230  40.986  1.00  0.00    -0.107 N 
HETATM   18  O2  UNL     1      32.368  25.142  41.083  1.00  0.00    -0.531 OA
HETATM   19  O3  UNL     1      31.252  23.486  42.111  1.00  0.00    -0.531 OA
ENDBRANCH   5  17
BRANCH   4  20
HETATM   20  O1  UNL     1      28.771  24.382  40.716  1.00  0.00    -0.344 OA
ATOM     21  H1  UNL     1      28.812  23.895  41.530  1.00  0.00     0.219 HD
ENDBRANCH   4  20
BRANCH   1  22
HETATM   22  N1  UNL     1      29.100  23.073  36.252  1.00  0.00    -0.230 N 
HETATM   23  C1  UNL     1      27.760  23.522  36.027  1.00  0.00     0.165 C 
ATOM     24  H1  UNL     1      29.592  22.541  35.533  1.00  0.00     0.177 HD
ENDBRANCH   1  22
TORSDOF 6
ENDMDL
MODEL 5
REMARK VINA RESULT: -6.508536028      2.144      2.546
REMARK  6 active torsions:
REMARK  status: ('A' for Active; 'I' for Inactive)
REMARK    1  A    between atoms: N1_2  and  C2_4 
REMARK    2  A    between atoms: C3_7  and  O1_8 
REMARK    3  A    between atoms: C4_10  and  N3_11 
REMARK    4  A    between atoms: C5_14  and  N4_15 
REMARK    5  A    between atoms: N4_15  and  O4_17 
REMARK    6  A    between atoms: O4_17  and  C6_18 
ROOT
HETATM    1  C2  UNL     1      29.248  23.367  42.951  1.00  0.00     0.681 A 
HETATM    2  N2  UNL     1      28.325  22.924  43.815  1.00  0.00    -0.168 N 
ATOM      3  H2  UNL     1      27.624  22.257  43.493  1.00  0.00     0.186 HD
HETATM    4  C3  UNL     1      28.298  23.335  45.092  1.00  0.00     0.192 A 
HETATM    5  C4  UNL     1      29.213  24.226  45.570  1.00  0.00     0.200 A 
HETATM    6  C5  UNL     1      30.162  24.674  44.662  1.00  0.00     0.178 A 
HETATM    7  N7  UNL     1      30.156  24.239  43.393  1.00  0.00    -0.172 N 
ATOM      8  H7  UNL     1      30.866  24.586  42.748  1.00  0.00     0.186 HD
ENDROOT
BRANCH   6   9
HETATM    9  N4  UNL     1      31.055  25.531  45.090  1.00  0.00    -0.239 N 
ATOM     10  H4  UNL     1      31.660  25.315  45.882  1.00  0.00     0.196 HD
BRANCH   9  11
HETATM   11  O4  UNL     1      31.142  26.728  44.430  1.00  0.00    -0.203 OA
BRANCH  11  12
HETATM   12  C6  UNL     1      30.108  27.639  44.555  1.00  0.00     0.249 C 
HETATM   13  N5  UNL     1      29.882  28.118  45.729  1.00  0.00    -0.366 N 
ATOM     14  H52 UNL     1      30.420  27.862  46.557  1.00  0.00     0.159 HD
ATOM     15  H51 UNL     1      29.120  28.789  45.821  1.00  0.00     0.159 HD
HETATM   16  N6  UNL     1      29.362  27.994  43.406  1.00  0.00    -0.055 NA
ENDBRANCH  11  12
ENDBRANCH   9  11
ENDBRANCH   6   9
BRANCH   5  17
HETATM   17  N3  UNL     1      29.227  24.684  46.890  1.00  0.00    -0.107 N 
HETATM   18  O2  UNL     1      28.549  25.649  47.259  1.00  0.00    -0.531 OA
HETATM   19  O3  UNL     1      30.018  24.047  47.823  1.00  0.00    -0.531 OA
ENDBRANCH   5  17
BRANCH   4  20
HETATM   20  O1  UNL     1      27.331  22.863  45.972  1.00  0.00    -0.344 OA
ATOM     21  H1  UNL     1      26.912  23.446  46.593  1.00  0.00     0.219 HD
ENDBRANCH   4  20
BRANCH   1  22
HETATM   22  N1  UNL     1      29.251  22.953  41.722  1.00  0.00    -0.230 N 
HETATM   23  C1  UNL     1      28.455  21.819  41.361  1.00  0.00     0.165 C 
ATOM     24  H1  UNL     1      29.816  23.430  41.019  1.00  0.00     0.177 HD
ENDBRANCH   1  22
TORSDOF 6
ENDMDL
