MODEL 1
REMARK VINA RESULT: -7.094550704      0.000      0.000
REMARK  5 active torsions:
REMARK  status: ('A' for Active; 'I' for Inactive)
REMARK    1  A    between atoms: C3_3  and  C4_4 
REMARK       I    between atoms: C4_4  and  N1_6 
REMARK       I    between atoms: N1_6  and  C5_8 
REMARK    2  A    between atoms: C7_14  and  C8_15 
REMARK    3  A    between atoms: C8_15  and  O4_16 
REMARK    4  A    between atoms: C8_15  and  N4_18 
REMARK    5  A    between atoms: N4_18  and  N5_20 
ROOT
HETATM    1  C1  UNL     1      30.044  22.812  40.588  1.00  0.00     0.052 C 
HETATM    2  C2  UNL     1      30.973  23.759  41.201  1.00  0.00    -0.004 A 
HETATM    3  C3  UNL     1      31.984  24.384  40.526  1.00  0.00     0.152 A 
HETATM    4  O3  UNL     1      32.567  25.232  41.390  1.00  0.00    -0.289 OA
HETATM    5  C6  UNL     1      31.974  25.156  42.541  1.00  0.00     0.173 A 
HETATM    6  N3  UNL     1      32.367  25.935  43.660  1.00  0.00    -0.073 NA
HETATM    7  C7  UNL     1      30.933  24.213  42.479  1.00  0.00     0.073 A 
ENDROOT
BRANCH   7   8
HETATM    8  C8  UNL     1      30.103  23.903  43.598  1.00  0.00     0.169 C 
BRANCH   8   9
HETATM    9  O4  UNL     1      29.855  22.637  43.814  1.00  0.00    -0.344 OA
ATOM     10  H4  UNL     1      29.427  22.418  44.634  1.00  0.00     0.219 HD
ENDBRANCH   8   9
BRANCH   8  11
HETATM   11  N4  UNL     1      29.481  24.710  44.534  1.00  0.00    -0.286 N 
ATOM     12  H4  UNL     1      28.522  25.014  44.363  1.00  0.00     0.188 HD
BRANCH  11  13
HETATM   13  N5  UNL     1      30.129  25.130  45.725  1.00  0.00    -0.343 N 
ATOM     14  H52 UNL     1      31.067  25.524  45.643  1.00  0.00     0.176 HD
ATOM     15  H51 UNL     1      29.690  25.051  46.643  1.00  0.00     0.176 HD
ENDBRANCH  11  13
ENDBRANCH   8  11
ENDBRANCH   7   8
BRANCH   3  16
HETATM   16  C4  UNL     1      32.504  24.303  39.179  1.00  0.00     0.283 C 
HETATM   17  O1  UNL     1      31.933  24.969  38.224  1.00  0.00    -0.265 OA
HETATM   18  N1  UNL     1      33.626  23.537  38.793  1.00  0.00    -0.276 N 
HETATM   19  C5  UNL     1      34.053  23.486  37.424  1.00  0.00     0.335 C 
ATOM     20  H1  UNL     1      34.141  23.011  39.499  1.00  0.00     0.173 HD
HETATM   21  N2  UNL     1      35.176  22.710  37.078  1.00  0.00    -0.040 NA
HETATM   22  O2  UNL     1      33.411  24.133  36.577  1.00  0.00    -0.251 OA
ENDBRANCH   3  16
TORSDOF 5
ENDMDL
MODEL 2
REMARK VINA RESULT: -7.070384917      1.600      6.548
REMARK  5 active torsions:
REMARK  status: ('A' for Active; 'I' for Inactive)
REMARK    1  A    between atoms: C3_3  and  C4_4 
REMARK       I    between atoms: C4_4  and  N1_6 
REMARK       I    between atoms: N1_6  and  C5_8 
REMARK    2  A    between atoms: C7_14  and  C8_15 
REMARK    3  A    between atoms: C8_15  and  O4_16 
REMARK    4  A    between atoms: C8_15  and  N4_18 
REMARK    5  A    between atoms: N4_18  and  N5_20 
ROOT
HETATM    1  C1  UNL     1      32.546  25.507  42.623  1.00  0.00     0.052 C 
HETATM    2  C2  UNL     1      31.773  24.595  41.782  1.00  0.00    -0.004 A 
HETATM    3  C3  UNL     1      30.712  23.859  42.227  1.00  0.00     0.152 A 
HETATM    4  O3  UNL     1      30.211  23.210  41.163  1.00  0.00    -0.289 OA
HETATM    5  C6  UNL     1      30.904  23.505  40.107  1.00  0.00     0.173 A 
HETATM    6  N3  UNL     1      30.615  22.970  38.824  1.00  0.00    -0.073 NA
HETATM    7  C7  UNL     1      31.934  24.398  40.449  1.00  0.00     0.073 A 
ENDROOT
BRANCH   7   8
HETATM    8  C8  UNL     1      32.871  24.899  39.497  1.00  0.00     0.169 C 
BRANCH   8   9
HETATM    9  O4  UNL     1      32.389  25.618  38.516  1.00  0.00    -0.344 OA
ATOM     10  H4  UNL     1      32.803  25.517  37.667  1.00  0.00     0.219 HD
ENDBRANCH   8   9
BRANCH   8  11
HETATM   11  N4  UNL     1      34.246  24.765  39.400  1.00  0.00    -0.286 N 
ATOM     12  H4  UNL     1      34.840  25.497  39.788  1.00  0.00     0.188 HD
BRANCH  11  13
HETATM   13  N5  UNL     1      34.857  23.644  38.779  1.00  0.00    -0.343 N 
ATOM     14  H52 UNL     1      35.448  23.814  37.965  1.00  0.00     0.176 HD
ATOM     15  H51 UNL     1      34.725  22.691  39.120  1.00  0.00     0.176 HD
ENDBRANCH  11  13
ENDBRANCH   8  11
ENDBRANCH   7   8
BRANCH   3  16
HETATM   16  C4  UNL     1      30.088  23.658  43.516  1.00  0.00     0.283 C 
HETATM   17  O1  UNL     1      29.633  22.487  43.839  1.00  0.00    -0.265 OA
HETATM   18  N1  UNL     1      29.926  24.659  44.499  1.00  0.00    -0.276 N 
HETATM   19  C5  UNL     1      29.262  24.380  45.740  1.00  0.00     0.335 C 
ATOM     20  H1  UNL     1      30.288  25.597  44.323  1.00  0.00     0.173 HD
HETATM   21  N2  UNL     1      29.120  25.405  46.694  1.00  0.00    -0.040 NA
HETATM   22  O2  UNL     1      28.827  23.231  45.935  1.00  0.00    -0.251 OA
ENDBRANCH   3  16
TORSDOF 5
ENDMDL
MODEL 3
REMARK VINA RESULT: -7.007659005      1.685      1.992
REMARK  5 active torsions:
REMARK  status: ('A' for Active; 'I' for Inactive)
REMARK    1  A    between atoms: C3_3  and  C4_4 
REMARK       I    between atoms: C4_4  and  N1_6 
REMARK       I    between atoms: N1_6  and  C5_8 
REMARK    2  A    between atoms: C7_14  and  C8_15 
REMARK    3  A    between atoms: C8_15  and  O4_16 
REMARK    4  A    between atoms: C8_15  and  N4_18 
REMARK    5  A    between atoms: N4_18  and  N5_20 
ROOT
HETATM    1  C1  UNL     1      29.253  24.497  42.466  1.00  0.00     0.052 C 
HETATM    2  C2  UNL     1      30.617  24.936  42.758  1.00  0.00    -0.004 A 
HETATM    3  C3  UNL     1      31.625  24.962  41.836  1.00  0.00     0.152 A 
HETATM    4  O3  UNL     1      32.699  25.494  42.444  1.00  0.00    -0.289 OA
HETATM    5  C6  UNL     1      32.403  25.785  43.673  1.00  0.00     0.173 A 
HETATM    6  N3  UNL     1      33.338  26.362  44.571  1.00  0.00    -0.073 NA
HETATM    7  C7  UNL     1      31.066  25.441  43.935  1.00  0.00     0.073 A 
ENDROOT
BRANCH   7   8
HETATM    8  C8  UNL     1      30.452  25.635  45.208  1.00  0.00     0.169 C 
BRANCH   8   9
HETATM    9  O4  UNL     1      30.711  24.744  46.129  1.00  0.00    -0.344 OA
ATOM     10  H4  UNL     1      30.675  25.038  47.032  1.00  0.00     0.219 HD
ENDBRANCH   8   9
BRANCH   8  11
HETATM   11  N4  UNL     1      29.599  26.619  45.678  1.00  0.00    -0.286 N 
ATOM     12  H4  UNL     1      28.679  26.348  46.024  1.00  0.00     0.188 HD
BRANCH  11  13
HETATM   13  N5  UNL     1      29.960  27.992  45.696  1.00  0.00    -0.343 N 
ATOM     14  H52 UNL     1      30.789  28.259  46.227  1.00  0.00     0.176 HD
ATOM     15  H51 UNL     1      29.422  28.704  45.202  1.00  0.00     0.176 HD
ENDBRANCH  11  13
ENDBRANCH   8  11
ENDBRANCH   7   8
BRANCH   3  16
HETATM   16  C4  UNL     1      31.745  24.554  40.454  1.00  0.00     0.283 C 
HETATM   17  O1  UNL     1      30.706  24.586  39.678  1.00  0.00    -0.265 OA
HETATM   18  N1  UNL     1      32.939  24.108  39.845  1.00  0.00    -0.276 N 
HETATM   19  C5  UNL     1      32.959  23.687  38.473  1.00  0.00     0.335 C 
ATOM     20  H1  UNL     1      33.801  24.085  40.390  1.00  0.00     0.173 HD
HETATM   21  N2  UNL     1      34.169  23.248  37.903  1.00  0.00    -0.040 NA
HETATM   22  O2  UNL     1      31.898  23.721  37.826  1.00  0.00    -0.251 OA
ENDBRANCH   3  16
TORSDOF 5
ENDMDL
MODEL 4
REMARK VINA RESULT: -6.927213424      2.281      7.010
REMARK  5 active torsions:
REMARK  status: ('A' for Active; 'I' for Inactive)
REMARK    1  A    between atoms: C3_3  and  C4_4 
REMARK       I    between atoms: C4_4  and  N1_6 
REMARK       I    between atoms: N1_6  and  C5_8 
REMARK    2  A    between atoms: C7_14  and  C8_15 
REMARK    3  A    between atoms: C8_15  and  O4_16 
REMARK    4  A    between atoms: C8_15  and  N4_18 
REMARK    5  A    between atoms: N4_18  and  N5_20 
ROOT
HETATM    1  C1  UNL     1      31.923  26.391  43.214  1.00  0.00     0.052 C 
HETATM    2  C2  UNL     1      31.253  25.158  42.803  1.00  0.00    -0.004 A 
HETATM    3  C3  UNL     1      30.352  24.485  43.578  1.00  0.00     0.152 A 
HETATM    4  O3  UNL     1      29.893  23.457  42.843  1.00  0.00    -0.289 OA
HETATM    5  C6  UNL     1      30.463  23.468  41.679  1.00  0.00     0.173 A 
HETATM    6  N3  UNL     1      30.181  22.502  40.678  1.00  0.00    -0.073 NA
HETATM    7  C7  UNL     1      31.358  24.548  41.596  1.00  0.00     0.073 A 
ENDROOT
BRANCH   7   8
HETATM    8  C8  UNL     1      32.142  24.816  40.435  1.00  0.00     0.169 C 
BRANCH   8   9
HETATM    9  O4  UNL     1      32.090  26.032  39.956  1.00  0.00    -0.344 OA
ATOM     10  H4  UNL     1      32.416  26.159  39.072  1.00  0.00     0.219 HD
ENDBRANCH   8   9
BRANCH   8  11
HETATM   11  N4  UNL     1      32.978  24.009  39.682  1.00  0.00    -0.286 N 
ATOM     12  H4  UNL     1      32.645  23.089  39.394  1.00  0.00     0.188 HD
BRANCH  11  13
HETATM   13  N5  UNL     1      34.282  24.416  39.296  1.00  0.00    -0.343 N 
ATOM     14  H52 UNL     1      34.847  24.915  39.983  1.00  0.00     0.176 HD
ATOM     15  H51 UNL     1      34.661  24.226  38.368  1.00  0.00     0.176 HD
ENDBRANCH  11  13
ENDBRANCH   8  11
ENDBRANCH   7   8
BRANCH   3  16
HETATM   16  C4  UNL     1      29.851  24.649  44.925  1.00  0.00     0.283 C 
HETATM   17  O1  UNL     1      30.661  24.550  45.933  1.00  0.00    -0.265 OA
HETATM   18  N1  UNL     1      28.506  24.924  45.257  1.00  0.00    -0.276 N 
HETATM   19  C5  UNL     1      28.088  25.037  46.626  1.00  0.00     0.335 C 
ATOM     20  H1  UNL     1      27.820  25.044  44.512  1.00  0.00     0.173 HD
HETATM   21  N2  UNL     1      26.738  25.312  46.916  1.00  0.00    -0.040 NA
HETATM   22  O2  UNL     1      28.939  24.887  47.520  1.00  0.00    -0.251 OA
ENDBRANCH   3  16
TORSDOF 5
ENDMDL
MODEL 5
REMARK VINA RESULT: -6.923817750      2.023      2.605
REMARK  5 active torsions:
REMARK  status: ('A' for Active; 'I' for Inactive)
REMARK    1  A    between atoms: C3_3  and  C4_4 
REMARK       I    between atoms: C4_4  and  N1_6 
REMARK       I    between atoms: N1_6  and  C5_8 
REMARK    2  A    between atoms: C7_14  and  C8_15 
REMARK    3  A    between atoms: C8_15  and  O4_16 
REMARK    4  A    between atoms: C8_15  and  N4_18 
REMARK    5  A    between atoms: N4_18  and  N5_20 
ROOT
HETATM    1  C1  UNL     1      33.129  25.731  43.393  1.00  0.00     0.052 C 
HETATM    2  C2  UNL     1      31.763  25.638  42.879  1.00  0.00    -0.004 A 
HETATM    3  C3  UNL     1      31.454  25.477  41.557  1.00  0.00     0.152 A 
HETATM    4  O3  UNL     1      30.118  25.353  41.480  1.00  0.00    -0.289 OA
HETATM    5  C6  UNL     1      29.604  25.432  42.668  1.00  0.00     0.173 A 
HETATM    6  N3  UNL     1      28.209  25.335  42.909  1.00  0.00    -0.073 NA
HETATM    7  C7  UNL     1      30.625  25.620  43.616  1.00  0.00     0.073 A 
ENDROOT
BRANCH   7   8
HETATM    8  C8  UNL     1      30.367  25.752  45.013  1.00  0.00     0.169 C 
BRANCH   8   9
HETATM    9  O4  UNL     1      30.817  24.799  45.788  1.00  0.00    -0.344 OA
ATOM     10  H4  UNL     1      30.527  24.810  46.693  1.00  0.00     0.219 HD
ENDBRANCH   8   9
BRANCH   8  11
HETATM   11  N4  UNL     1      29.705  26.727  45.739  1.00  0.00    -0.286 N 
ATOM     12  H4  UNL     1      28.962  26.445  46.379  1.00  0.00     0.188 HD
BRANCH  11  13
HETATM   13  N5  UNL     1      30.022  28.106  45.625  1.00  0.00    -0.343 N 
ATOM     14  H52 UNL     1      30.645  28.510  46.324  1.00  0.00     0.176 HD
ATOM     15  H51 UNL     1      29.651  28.691  44.876  1.00  0.00     0.176 HD
ENDBRANCH  11  13
ENDBRANCH   8  11
ENDBRANCH   7   8
BRANCH   3  16
HETATM   16  C4  UNL     1      32.225  25.430  40.335  1.00  0.00     0.283 C 
HETATM   17  O1  UNL     1      32.151  26.408  39.485  1.00  0.00    -0.265 OA
HETATM   18  N1  UNL     1      33.091  24.377  39.967  1.00  0.00    -0.276 N 
HETATM   19  C5  UNL     1      33.792  24.396  38.715  1.00  0.00     0.335 C 
ATOM     20  H1  UNL     1      33.219  23.589  40.603  1.00  0.00     0.173 HD
HETATM   21  N2  UNL     1      34.646  23.326  38.385  1.00  0.00    -0.040 NA
HETATM   22  O2  UNL     1      33.621  25.364  37.954  1.00  0.00    -0.251 OA
ENDBRANCH   3  16
TORSDOF 5
ENDMDL
