MODEL 1
REMARK VINA RESULT: -7.713897918      0.000      0.000
REMARK  3 active torsions:
REMARK  status: ('A' for Active; 'I' for Inactive)
REMARK    1  A    between atoms: N1_2  and  C3_4 
REMARK    2  A    between atoms: C4_7  and  N3_8 
REMARK       I    between atoms: N3_8  and  C5_9 
REMARK       I    between atoms: C5_9  and  N4_10 
REMARK       I    between atoms: C5_9  and  N5_14 
REMARK    3  A    between atoms: C7_21  and  N7_22 
ROOT
HETATM    1  C3  UNL     1      31.022  24.279  41.284  1.00  0.00     0.683 A 
HETATM    2  N2  UNL     1      30.139  24.120  40.315  1.00  0.00    -0.162 N 
ATOM      3  H2  UNL     1      29.172  23.945  40.588  1.00  0.00     0.187 HD
HETATM    4  C4  UNL     1      30.416  24.173  38.975  1.00  0.00     0.222 A 
HETATM    5  C6  UNL     1      31.732  24.413  38.640  1.00  0.00     0.138 A 
HETATM    6  N6  UNL     1      32.155  24.494  37.366  1.00  0.00    -0.335 N 
ATOM      7  H6  UNL     1      31.472  24.372  36.618  1.00  0.00     0.168 HD
HETATM    8  C7  UNL     1      33.447  24.730  37.029  1.00  0.00     0.115 A 
HETATM    9  C8  UNL     1      34.388  24.898  37.999  1.00  0.00     0.137 A 
HETATM   10  N8  UNL     1      33.995  24.823  39.286  1.00  0.00    -0.346 N 
ATOM     11  H8  UNL     1      34.685  24.946  40.027  1.00  0.00     0.167 HD
HETATM   12  C9  UNL     1      32.693  24.585  39.621  1.00  0.00     0.153 A 
HETATM   13  N9  UNL     1      32.312  24.514  40.906  1.00  0.00    -0.174 N 
ATOM     14  H9  UNL     1      33.017  24.643  41.631  1.00  0.00     0.186 HD
ENDROOT
BRANCH   4  15
HETATM   15  N3  UNL     1      29.526  24.009  38.172  1.00  0.00    -0.369 NA
HETATM   16  C5  UNL     1      28.651  23.384  37.366  1.00  0.00     0.556 C 
HETATM   17  N4  UNL     1      29.111  23.056  36.017  1.00  0.00    -0.021 N 
HETATM   18  N5  UNL     1      27.481  24.278  37.138  1.00  0.00    -0.021 N 
ATOM     19  H43 UNL     1      29.453  23.901  35.559  1.00  0.00     0.280 HD
ATOM     20  H42 UNL     1      29.971  22.511  36.073  1.00  0.00     0.280 HD
ATOM     21  H41 UNL     1      28.446  22.582  35.406  1.00  0.00     0.280 HD
ATOM     22  H53 UNL     1      27.053  24.589  38.010  1.00  0.00     0.280 HD
ATOM     23  H52 UNL     1      27.754  25.193  36.780  1.00  0.00     0.280 HD
ATOM     24  H51 UNL     1      26.817  23.803  36.527  1.00  0.00     0.280 HD
ENDBRANCH   4  15
BRANCH   1  25
HETATM   25  N1  UNL     1      30.709  24.220  42.665  1.00  0.00    -0.226 N 
HETATM   26  C1  UNL     1      29.998  23.097  43.192  1.00  0.00     0.168 C 
HETATM   27  C2  UNL     1      31.106  25.293  43.524  1.00  0.00     0.168 C 
ENDBRANCH   1  25
BRANCH   8  28
HETATM   28  N7  UNL     1      33.769  24.798  35.763  1.00  0.00    -0.384 N 
ATOM     29  H72 UNL     1      33.184  24.363  35.050  1.00  0.00     0.157 HD
ATOM     30  H71 UNL     1      34.621  25.290  35.497  1.00  0.00     0.157 HD
ENDBRANCH   8  28
TORSDOF 3
ENDMDL
MODEL 2
REMARK VINA RESULT: -7.433976464      1.391      4.128
REMARK  3 active torsions:
REMARK  status: ('A' for Active; 'I' for Inactive)
REMARK    1  A    between atoms: N1_2  and  C3_4 
REMARK    2  A    between atoms: C4_7  and  N3_8 
REMARK       I    between atoms: N3_8  and  C5_9 
REMARK       I    between atoms: C5_9  and  N4_10 
REMARK       I    between atoms: C5_9  and  N5_14 
REMARK    3  A    between atoms: C7_21  and  N7_22 
ROOT
HETATM    1  C3  UNL     1      31.740  25.010  41.832  1.00  0.00     0.683 A 
HETATM    2  N2  UNL     1      32.711  24.842  40.954  1.00  0.00    -0.162 N 
ATOM      3  H2  UNL     1      33.662  25.042  41.265  1.00  0.00     0.187 HD
HETATM    4  C4  UNL     1      32.547  24.421  39.661  1.00  0.00     0.222 A 
HETATM    5  C6  UNL     1      31.249  24.158  39.274  1.00  0.00     0.138 A 
HETATM    6  N6  UNL     1      30.931  23.736  38.037  1.00  0.00    -0.335 N 
ATOM      7  H6  UNL     1      31.683  23.605  37.360  1.00  0.00     0.168 HD
HETATM    8  C7  UNL     1      29.658  23.475  37.649  1.00  0.00     0.115 A 
HETATM    9  C8  UNL     1      28.629  23.637  38.525  1.00  0.00     0.137 A 
HETATM   10  N8  UNL     1      28.916  24.059  39.773  1.00  0.00    -0.346 N 
ATOM     11  H8  UNL     1      28.157  24.186  40.443  1.00  0.00     0.167 HD
HETATM   12  C9  UNL     1      30.198  24.320  40.160  1.00  0.00     0.153 A 
HETATM   13  N9  UNL     1      30.473  24.737  41.405  1.00  0.00    -0.174 N 
ATOM     14  H9  UNL     1      29.701  24.856  42.061  1.00  0.00     0.186 HD
ENDROOT
BRANCH   4  15
HETATM   15  N3  UNL     1      33.511  24.305  38.940  1.00  0.00    -0.369 NA
HETATM   16  C5  UNL     1      34.423  23.740  38.132  1.00  0.00     0.556 C 
HETATM   17  N4  UNL     1      35.583  23.122  38.773  1.00  0.00    -0.021 N 
HETATM   18  N5  UNL     1      35.014  24.793  37.259  1.00  0.00    -0.021 N 
ATOM     19  H43 UNL     1      36.041  23.803  39.378  1.00  0.00     0.280 HD
ATOM     20  H42 UNL     1      35.268  22.439  39.462  1.00  0.00     0.280 HD
ATOM     21  H41 UNL     1      36.275  22.693  38.159  1.00  0.00     0.280 HD
ATOM     22  H53 UNL     1      34.306  25.313  36.742  1.00  0.00     0.280 HD
ATOM     23  H52 UNL     1      35.399  25.571  37.795  1.00  0.00     0.280 HD
ATOM     24  H51 UNL     1      35.706  24.364  36.645  1.00  0.00     0.280 HD
ENDBRANCH   4  15
BRANCH   1  25
HETATM   25  N1  UNL     1      31.938  25.446  43.167  1.00  0.00    -0.226 N 
HETATM   26  C1  UNL     1      33.228  25.894  43.589  1.00  0.00     0.168 C 
HETATM   27  C2  UNL     1      30.840  25.431  44.083  1.00  0.00     0.168 C 
ENDBRANCH   1  25
BRANCH   8  28
HETATM   28  N7  UNL     1      29.441  23.063  36.427  1.00  0.00    -0.384 N 
ATOM     29  H72 UNL     1      30.214  22.788  35.822  1.00  0.00     0.157 HD
ATOM     30  H71 UNL     1      28.482  23.025  36.083  1.00  0.00     0.157 HD
ENDBRANCH   8  28
TORSDOF 3
ENDMDL
MODEL 3
REMARK VINA RESULT: -7.407112774      1.420      5.145
REMARK  3 active torsions:
REMARK  status: ('A' for Active; 'I' for Inactive)
REMARK    1  A    between atoms: N1_2  and  C3_4 
REMARK    2  A    between atoms: C4_7  and  N3_8 
REMARK       I    between atoms: N3_8  and  C5_9 
REMARK       I    between atoms: C5_9  and  N4_10 
REMARK       I    between atoms: C5_9  and  N5_14 
REMARK    3  A    between atoms: C7_21  and  N7_22 
ROOT
HETATM    1  C3  UNL     1      29.819  23.988  38.153  1.00  0.00     0.683 A 
HETATM    2  N2  UNL     1      31.098  23.974  37.826  1.00  0.00    -0.162 N 
ATOM      3  H2  UNL     1      31.331  23.750  36.858  1.00  0.00     0.187 HD
HETATM    4  C4  UNL     1      32.138  24.234  38.679  1.00  0.00     0.222 A 
HETATM    5  C6  UNL     1      31.788  24.534  39.980  1.00  0.00     0.138 A 
HETATM    6  N6  UNL     1      32.698  24.813  40.930  1.00  0.00    -0.335 N 
ATOM      7  H6  UNL     1      33.686  24.803  40.676  1.00  0.00     0.168 HD
HETATM    8  C7  UNL     1      32.363  25.109  42.211  1.00  0.00     0.115 A 
HETATM    9  C8  UNL     1      31.055  25.133  42.587  1.00  0.00     0.137 A 
HETATM   10  N8  UNL     1      30.119  24.858  41.657  1.00  0.00    -0.346 N 
ATOM     11  H8  UNL     1      29.134  24.871  41.921  1.00  0.00     0.167 HD
HETATM   12  C9  UNL     1      30.461  24.561  40.369  1.00  0.00     0.153 A 
HETATM   13  N9  UNL     1      29.521  24.290  39.450  1.00  0.00    -0.174 N 
ATOM     14  H9  UNL     1      28.542  24.311  39.733  1.00  0.00     0.186 HD
ENDROOT
BRANCH   4  15
HETATM   15  N3  UNL     1      33.275  24.189  38.271  1.00  0.00    -0.369 NA
HETATM   16  C5  UNL     1      34.430  23.686  37.804  1.00  0.00     0.556 C 
HETATM   17  N4  UNL     1      35.409  23.246  38.797  1.00  0.00    -0.021 N 
HETATM   18  N5  UNL     1      35.146  24.747  37.042  1.00  0.00    -0.021 N 
ATOM     19  H43 UNL     1      35.607  24.010  39.444  1.00  0.00     0.280 HD
ATOM     20  H42 UNL     1      34.975  22.573  39.429  1.00  0.00     0.280 HD
ATOM     21  H41 UNL     1      36.286  22.864  38.443  1.00  0.00     0.280 HD
ATOM     22  H53 UNL     1      34.571  25.150  36.302  1.00  0.00     0.280 HD
ATOM     23  H52 UNL     1      35.285  25.595  37.592  1.00  0.00     0.280 HD
ATOM     24  H51 UNL     1      36.023  24.365  36.688  1.00  0.00     0.280 HD
ENDBRANCH   4  15
BRANCH   1  25
HETATM   25  N1  UNL     1      28.762  23.715  37.249  1.00  0.00    -0.226 N 
HETATM   26  C1  UNL     1      28.994  22.893  36.102  1.00  0.00     0.168 C 
HETATM   27  C2  UNL     1      27.466  24.271  37.491  1.00  0.00     0.168 C 
ENDBRANCH   1  25
BRANCH   8  28
HETATM   28  N7  UNL     1      33.314  25.373  43.068  1.00  0.00    -0.384 N 
ATOM     29  H72 UNL     1      34.291  25.391  42.778  1.00  0.00     0.157 HD
ATOM     30  H71 UNL     1      33.064  25.558  44.040  1.00  0.00     0.157 HD
ENDBRANCH   8  28
TORSDOF 3
ENDMDL
MODEL 4
REMARK VINA RESULT: -7.392222236      1.368      1.658
REMARK  3 active torsions:
REMARK  status: ('A' for Active; 'I' for Inactive)
REMARK    1  A    between atoms: N1_2  and  C3_4 
REMARK    2  A    between atoms: C4_7  and  N3_8 
REMARK       I    between atoms: N3_8  and  C5_9 
REMARK       I    between atoms: C5_9  and  N4_10 
REMARK       I    between atoms: C5_9  and  N5_14 
REMARK    3  A    between atoms: C7_21  and  N7_22 
ROOT
HETATM    1  C3  UNL     1      29.936  22.961  40.562  1.00  0.00     0.683 A 
HETATM    2  N2  UNL     1      29.288  22.961  39.412  1.00  0.00    -0.162 N 
ATOM      3  H2  UNL     1      28.308  22.682  39.427  1.00  0.00     0.187 HD
HETATM    4  C4  UNL     1      29.826  23.305  38.200  1.00  0.00     0.222 A 
HETATM    5  C6  UNL     1      31.154  23.678  38.214  1.00  0.00     0.138 A 
HETATM    6  N6  UNL     1      31.818  24.043  37.102  1.00  0.00    -0.335 N 
ATOM      7  H6  UNL     1      31.316  24.044  36.214  1.00  0.00     0.168 HD
HETATM    8  C7  UNL     1      33.123  24.411  37.108  1.00  0.00     0.115 A 
HETATM    9  C8  UNL     1      33.826  24.423  38.275  1.00  0.00     0.137 A 
HETATM   10  N8  UNL     1      33.188  24.062  39.406  1.00  0.00    -0.346 N 
ATOM     11  H8  UNL     1      33.698  24.065  40.289  1.00  0.00     0.167 HD
HETATM   12  C9  UNL     1      31.874  23.693  39.396  1.00  0.00     0.153 A 
HETATM   13  N9  UNL     1      31.248  23.337  40.528  1.00  0.00    -0.174 N 
ATOM     14  H9  UNL     1      31.774  23.349  41.401  1.00  0.00     0.186 HD
ENDROOT
BRANCH   4  15
HETATM   15  N3  UNL     1      29.139  23.265  37.206  1.00  0.00    -0.369 NA
HETATM   16  C5  UNL     1      28.139  23.535  36.349  1.00  0.00     0.556 C 
HETATM   17  N4  UNL     1      26.912  22.754  36.497  1.00  0.00    -0.021 N 
HETATM   18  N5  UNL     1      28.594  23.229  34.964  1.00  0.00    -0.021 N 
ATOM     19  H43 UNL     1      27.134  21.759  36.457  1.00  0.00     0.280 HD
ATOM     20  H42 UNL     1      26.570  22.833  37.454  1.00  0.00     0.280 HD
ATOM     21  H41 UNL     1      26.154  22.960  35.847  1.00  0.00     0.280 HD
ATOM     22  H53 UNL     1      29.456  23.716  34.720  1.00  0.00     0.280 HD
ATOM     23  H52 UNL     1      28.939  22.274  34.870  1.00  0.00     0.280 HD
ATOM     24  H51 UNL     1      27.836  23.435  34.314  1.00  0.00     0.280 HD
ENDBRANCH   4  15
BRANCH   1  25
HETATM   25  N1  UNL     1      29.355  22.601  41.804  1.00  0.00    -0.226 N 
HETATM   26  C1  UNL     1      28.203  21.754  41.837  1.00  0.00     0.168 C 
HETATM   27  C2  UNL     1      29.927  23.094  43.019  1.00  0.00     0.168 C 
ENDBRANCH   1  25
BRANCH   8  28
HETATM   28  N7  UNL     1      33.688  24.757  35.981  1.00  0.00    -0.384 N 
ATOM     29  H72 UNL     1      33.181  24.690  35.099  1.00  0.00     0.157 HD
ATOM     30  H71 UNL     1      34.651  25.092  35.994  1.00  0.00     0.157 HD
ENDBRANCH   8  28
TORSDOF 3
ENDMDL
MODEL 5
REMARK VINA RESULT: -7.325801007      1.323      4.965
REMARK  3 active torsions:
REMARK  status: ('A' for Active; 'I' for Inactive)
REMARK    1  A    between atoms: N1_2  and  C3_4 
REMARK    2  A    between atoms: C4_7  and  N3_8 
REMARK       I    between atoms: N3_8  and  C5_9 
REMARK       I    between atoms: C5_9  and  N4_10 
REMARK       I    between atoms: C5_9  and  N5_14 
REMARK    3  A    between atoms: C7_21  and  N7_22 
ROOT
HETATM    1  C3  UNL     1      29.275  24.197  38.129  1.00  0.00     0.683 A 
HETATM    2  N2  UNL     1      30.460  24.528  37.651  1.00  0.00    -0.162 N 
ATOM      3  H2  UNL     1      30.561  24.565  36.636  1.00  0.00     0.187 HD
HETATM    4  C4  UNL     1      31.564  24.827  38.404  1.00  0.00     0.222 A 
HETATM    5  C6  UNL     1      31.393  24.769  39.772  1.00  0.00     0.138 A 
HETATM    6  N6  UNL     1      32.385  25.038  40.640  1.00  0.00    -0.335 N 
ATOM      7  H6  UNL     1      33.300  25.295  40.269  1.00  0.00     0.168 HD
HETATM    8  C7  UNL     1      32.225  24.983  41.986  1.00  0.00     0.115 A 
HETATM    9  C8  UNL     1      31.018  24.645  42.518  1.00  0.00     0.137 A 
HETATM   10  N8  UNL     1      30.004  24.370  41.673  1.00  0.00    -0.346 N 
ATOM     11  H8  UNL     1      29.093  24.114  42.054  1.00  0.00     0.167 HD
HETATM   12  C9  UNL     1      30.169  24.426  40.320  1.00  0.00     0.153 A 
HETATM   13  N9  UNL     1      29.153  24.153  39.488  1.00  0.00    -0.174 N 
ATOM     14  H9  UNL     1      28.249  23.902  39.888  1.00  0.00     0.186 HD
ENDROOT
BRANCH   4  15
HETATM   15  N3  UNL     1      32.603  25.115  37.858  1.00  0.00    -0.369 NA
HETATM   16  C5  UNL     1      33.457  25.642  36.964  1.00  0.00     0.556 C 
HETATM   17  N4  UNL     1      33.760  24.834  35.783  1.00  0.00    -0.021 N 
HETATM   18  N5  UNL     1      34.782  25.834  37.615  1.00  0.00    -0.021 N 
ATOM     19  H43 UNL     1      34.096  23.916  36.074  1.00  0.00     0.280 HD
ATOM     20  H42 UNL     1      32.892  24.576  35.314  1.00  0.00     0.280 HD
ATOM     21  H41 UNL     1      34.407  25.234  35.104  1.00  0.00     0.280 HD
ATOM     22  H53 UNL     1      34.720  26.391  38.468  1.00  0.00     0.280 HD
ATOM     23  H52 UNL     1      35.139  24.974  38.033  1.00  0.00     0.280 HD
ATOM     24  H51 UNL     1      35.430  26.234  36.937  1.00  0.00     0.280 HD
ENDBRANCH   4  15
BRANCH   1  25
HETATM   25  N1  UNL     1      28.147  23.893  37.326  1.00  0.00    -0.226 N 
HETATM   26  C1  UNL     1      28.306  23.130  36.127  1.00  0.00     0.168 C 
HETATM   27  C2  UNL     1      26.854  24.359  37.722  1.00  0.00     0.168 C 
ENDBRANCH   1  25
BRANCH   8  28
HETATM   28  N7  UNL     1      33.243  25.265  42.756  1.00  0.00    -0.384 N 
ATOM     29  H72 UNL     1      33.400  26.217  43.088  1.00  0.00     0.157 HD
ATOM     30  H71 UNL     1      33.885  24.518  43.018  1.00  0.00     0.157 HD
ENDBRANCH   8  28
TORSDOF 3
ENDMDL
