MODEL 1
REMARK VINA RESULT: -6.308613734      0.000      0.000
REMARK  6 active torsions:
REMARK  status: ('A' for Active; 'I' for Inactive)
REMARK    1  A    between atoms: C2_3  and  C3_4 
REMARK    2  A    between atoms: C3_4  and  S1_5 
REMARK    3  A    between atoms: S1_5  and  N2_6 
REMARK    4  A    between atoms: C4_11  and  N3_12 
REMARK    5  A    between atoms: C5_15  and  N4_16 
REMARK    6  A    between atoms: C6_21  and  N6_22 
ROOT
HETATM    1  C1  UNL     1       0.348   5.086  16.088  1.00  0.00     0.175 C 
HETATM    2  N1  UNL     1      -0.377   6.133  15.353  1.00  0.00    -0.188 N 
HETATM    3  C2  UNL     1      -1.363   6.821  15.965  1.00  0.00     0.081 A 
HETATM    4  C4  UNL     1      -1.883   7.897  15.262  1.00  0.00     0.171 A 
HETATM    5  C5  UNL     1      -1.421   8.233  13.994  1.00  0.00     0.150 A 
HETATM    6  N5  UNL     1      -0.444   7.520  13.421  1.00  0.00    -0.175 N 
ATOM      7  H5  UNL     1      -0.100   7.766  12.493  1.00  0.00     0.186 HD
HETATM    8  C6  UNL     1       0.078   6.472  14.087  1.00  0.00     0.679 A 
ENDROOT
BRANCH   3   9
HETATM    9  C3  UNL     1      -1.796   6.612  17.345  1.00  0.00     0.223 C 
BRANCH   9  10
HETATM   10  S1  UNL     1      -2.984   5.418  17.705  1.00  0.00     0.229 S 
HETATM   11  O1  UNL     1      -3.106   4.542  16.349  1.00  0.00    -0.206 OA
HETATM   12  O2  UNL     1      -2.872   4.441  18.760  1.00  0.00    -0.206 OA
BRANCH  10  13
HETATM   13  N2  UNL     1      -4.614   6.075  17.675  1.00  0.00    -0.328 N 
ATOM     14  H22 UNL     1      -4.861   6.927  17.172  1.00  0.00     0.168 HD
ATOM     15  H21 UNL     1      -5.267   5.508  18.214  1.00  0.00     0.168 HD
ENDBRANCH  10  13
ENDBRANCH   9  10
ENDBRANCH   3   9
BRANCH   4  16
HETATM   16  N3  UNL     1      -2.966   8.665  15.751  1.00  0.00    -0.110 N 
HETATM   17  O3  UNL     1      -4.119   8.239  15.755  1.00  0.00    -0.532 OA
HETATM   18  O4  UNL     1      -2.732   9.931  16.210  1.00  0.00    -0.532 OA
ENDBRANCH   4  16
BRANCH   8  19
HETATM   19  N6  UNL     1       1.005   5.786  13.559  1.00  0.00    -0.234 N 
ATOM     20  H62 UNL     1       0.793   4.877  13.147  1.00  0.00     0.174 HD
ATOM     21  H61 UNL     1       1.955   6.157  13.548  1.00  0.00     0.174 HD
ENDBRANCH   8  19
BRANCH   5  22
HETATM   22  N4  UNL     1      -1.938   9.245  13.332  1.00  0.00    -0.383 N 
ATOM     23  H42 UNL     1      -2.739   9.735  13.730  1.00  0.00     0.157 HD
ATOM     24  H41 UNL     1      -1.545   9.545  12.440  1.00  0.00     0.157 HD
ENDBRANCH   5  22
TORSDOF 6
ENDMDL
MODEL 2
REMARK VINA RESULT: -6.210340978      2.234      3.129
REMARK  6 active torsions:
REMARK  status: ('A' for Active; 'I' for Inactive)
REMARK    1  A    between atoms: C2_3  and  C3_4 
REMARK    2  A    between atoms: C3_4  and  S1_5 
REMARK    3  A    between atoms: S1_5  and  N2_6 
REMARK    4  A    between atoms: C4_11  and  N3_12 
REMARK    5  A    between atoms: C5_15  and  N4_16 
REMARK    6  A    between atoms: C6_21  and  N6_22 
ROOT
HETATM    1  C1  UNL     1      -1.244   6.581  12.213  1.00  0.00     0.175 C 
HETATM    2  N1  UNL     1      -1.874   7.365  13.284  1.00  0.00    -0.188 N 
HETATM    3  C2  UNL     1      -2.609   6.742  14.229  1.00  0.00     0.081 A 
HETATM    4  C4  UNL     1      -3.030   7.527  15.291  1.00  0.00     0.171 A 
HETATM    5  C5  UNL     1      -2.723   8.881  15.366  1.00  0.00     0.150 A 
HETATM    6  N5  UNL     1      -1.995   9.462  14.404  1.00  0.00    -0.175 N 
ATOM      7  H5  UNL     1      -1.763  10.453  14.458  1.00  0.00     0.186 HD
HETATM    8  C6  UNL     1      -1.572   8.717  13.363  1.00  0.00     0.679 A 
ENDROOT
BRANCH   3   9
HETATM    9  C3  UNL     1      -2.848   5.301  14.286  1.00  0.00     0.223 C 
BRANCH   9  10
HETATM   10  S1  UNL     1      -1.722   4.271  15.085  1.00  0.00     0.229 S 
HETATM   11  O1  UNL     1      -2.612   3.445  16.155  1.00  0.00    -0.206 OA
HETATM   12  O2  UNL     1      -0.919   3.268  14.430  1.00  0.00    -0.206 OA
BRANCH  10  13
HETATM   13  N2  UNL     1      -0.744   5.142  16.257  1.00  0.00    -0.328 N 
ATOM     14  H22 UNL     1       0.259   5.291  16.145  1.00  0.00     0.168 HD
ATOM     15  H21 UNL     1      -1.296   5.474  17.047  1.00  0.00     0.168 HD
ENDBRANCH  10  13
ENDBRANCH   9  10
ENDBRANCH   3   9
BRANCH   4  16
HETATM   16  N3  UNL     1      -3.864   7.023  16.317  1.00  0.00    -0.110 N 
HETATM   17  O3  UNL     1      -5.088   7.129  16.274  1.00  0.00    -0.532 OA
HETATM   18  O4  UNL     1      -3.294   6.423  17.405  1.00  0.00    -0.532 OA
ENDBRANCH   4  16
BRANCH   8  19
HETATM   19  N6  UNL     1      -0.881   9.251  12.444  1.00  0.00    -0.234 N 
ATOM     20  H62 UNL     1       0.034   9.647  12.661  1.00  0.00     0.174 HD
ATOM     21  H61 UNL     1      -1.249   9.272  11.493  1.00  0.00     0.174 HD
ENDBRANCH   8  19
BRANCH   5  22
HETATM   22  N4  UNL     1      -3.146   9.617  16.371  1.00  0.00    -0.383 N 
ATOM     23  H42 UNL     1      -3.487  10.559  16.179  1.00  0.00     0.157 HD
ATOM     24  H41 UNL     1      -3.143   9.255  17.324  1.00  0.00     0.157 HD
ENDBRANCH   5  22
TORSDOF 6
ENDMDL
MODEL 3
REMARK VINA RESULT: -6.207704669      2.055      3.893
REMARK  6 active torsions:
REMARK  status: ('A' for Active; 'I' for Inactive)
REMARK    1  A    between atoms: C2_3  and  C3_4 
REMARK    2  A    between atoms: C3_4  and  S1_5 
REMARK    3  A    between atoms: S1_5  and  N2_6 
REMARK    4  A    between atoms: C4_11  and  N3_12 
REMARK    5  A    between atoms: C5_15  and  N4_16 
REMARK    6  A    between atoms: C6_21  and  N6_22 
ROOT
HETATM    1  C1  UNL     1      -1.260   6.208  13.798  1.00  0.00     0.175 C 
HETATM    2  N1  UNL     1      -0.728   5.663  15.055  1.00  0.00    -0.188 N 
HETATM    3  C2  UNL     1      -1.237   6.077  16.234  1.00  0.00     0.081 A 
HETATM    4  C4  UNL     1      -0.798   5.397  17.361  1.00  0.00     0.171 A 
HETATM    5  C5  UNL     1       0.124   4.360  17.275  1.00  0.00     0.150 A 
HETATM    6  N5  UNL     1       0.608   3.984  16.084  1.00  0.00    -0.175 N 
ATOM      7  H5  UNL     1       1.281   3.221  16.017  1.00  0.00     0.186 HD
HETATM    8  C6  UNL     1       0.193   4.628  14.976  1.00  0.00     0.679 A 
ENDROOT
BRANCH   3   9
HETATM    9  C3  UNL     1      -2.309   7.059  16.383  1.00  0.00     0.223 C 
BRANCH   9  10
HETATM   10  S1  UNL     1      -3.954   6.569  16.231  1.00  0.00     0.229 S 
HETATM   11  O1  UNL     1      -4.794   7.953  16.236  1.00  0.00    -0.206 OA
HETATM   12  O2  UNL     1      -4.488   5.825  15.117  1.00  0.00    -0.206 OA
BRANCH  10  13
HETATM   13  N2  UNL     1      -4.597   5.929  17.736  1.00  0.00    -0.328 N 
ATOM     14  H22 UNL     1      -4.067   5.919  18.607  1.00  0.00     0.168 HD
ATOM     15  H21 UNL     1      -5.547   5.577  17.629  1.00  0.00     0.168 HD
ENDBRANCH  10  13
ENDBRANCH   9  10
ENDBRANCH   3   9
BRANCH   4  16
HETATM   16  N3  UNL     1      -1.193   5.768  18.667  1.00  0.00    -0.110 N 
HETATM   17  O3  UNL     1      -0.630   6.666  19.289  1.00  0.00    -0.532 OA
HETATM   18  O4  UNL     1      -2.217   5.093  19.271  1.00  0.00    -0.532 OA
ENDBRANCH   4  16
BRANCH   8  19
HETATM   19  N6  UNL     1       0.640   4.284  13.840  1.00  0.00    -0.234 N 
ATOM     20  H62 UNL     1       0.560   3.315  13.535  1.00  0.00     0.174 HD
ATOM     21  H61 UNL     1       1.071   4.988  13.241  1.00  0.00     0.174 HD
ENDBRANCH   8  19
BRANCH   5  22
HETATM   22  N4  UNL     1       0.546   3.738  18.354  1.00  0.00    -0.383 N 
ATOM     23  H42 UNL     1      -0.126   3.210  18.910  1.00  0.00     0.157 HD
ATOM     24  H41 UNL     1       1.527   3.772  18.630  1.00  0.00     0.157 HD
ENDBRANCH   5  22
TORSDOF 6
ENDMDL
MODEL 4
REMARK VINA RESULT: -6.110856855      2.079      3.102
REMARK  6 active torsions:
REMARK  status: ('A' for Active; 'I' for Inactive)
REMARK    1  A    between atoms: C2_3  and  C3_4 
REMARK    2  A    between atoms: C3_4  and  S1_5 
REMARK    3  A    between atoms: S1_5  and  N2_6 
REMARK    4  A    between atoms: C4_11  and  N3_12 
REMARK    5  A    between atoms: C5_15  and  N4_16 
REMARK    6  A    between atoms: C6_21  and  N6_22 
ROOT
HETATM    1  C1  UNL     1       0.226   7.010  12.663  1.00  0.00     0.175 C 
HETATM    2  N1  UNL     1      -0.747   7.557  13.619  1.00  0.00    -0.188 N 
HETATM    3  C2  UNL     1      -0.981   6.912  14.781  1.00  0.00     0.081 A 
HETATM    4  C4  UNL     1      -1.785   7.575  15.696  1.00  0.00     0.171 A 
HETATM    5  C5  UNL     1      -2.328   8.825  15.420  1.00  0.00     0.150 A 
HETATM    6  N5  UNL     1      -2.075   9.428  14.251  1.00  0.00    -0.175 N 
ATOM      7  H5  UNL     1      -2.468  10.346  14.047  1.00  0.00     0.186 HD
HETATM    8  C6  UNL     1      -1.293   8.803  13.348  1.00  0.00     0.679 A 
ENDROOT
BRANCH   3   9
HETATM    9  C3  UNL     1      -0.331   5.669  15.192  1.00  0.00     0.223 C 
BRANCH   9  10
HETATM   10  S1  UNL     1      -1.093   4.155  14.884  1.00  0.00     0.229 S 
HETATM   11  O1  UNL     1      -2.375   4.522  13.966  1.00  0.00    -0.206 OA
HETATM   12  O2  UNL     1      -0.468   3.045  14.207  1.00  0.00    -0.206 OA
BRANCH  10  13
HETATM   13  N2  UNL     1      -1.994   3.571  16.276  1.00  0.00    -0.328 N 
ATOM     14  H22 UNL     1      -1.589   2.960  16.984  1.00  0.00     0.168 HD
ATOM     15  H21 UNL     1      -2.953   3.914  16.284  1.00  0.00     0.168 HD
ENDBRANCH  10  13
ENDBRANCH   9  10
ENDBRANCH   3   9
BRANCH   4  16
HETATM   16  N3  UNL     1      -2.170   6.990  16.925  1.00  0.00    -0.110 N 
HETATM   17  O3  UNL     1      -3.201   6.332  17.040  1.00  0.00    -0.532 OA
HETATM   18  O4  UNL     1      -1.386   7.182  18.028  1.00  0.00    -0.532 OA
ENDBRANCH   4  16
BRANCH   8  19
HETATM   19  N6  UNL     1      -1.043   9.360  12.237  1.00  0.00    -0.234 N 
ATOM     20  H62 UNL     1      -0.601   8.826  11.489  1.00  0.00     0.174 HD
ATOM     21  H61 UNL     1      -1.294  10.339  12.103  1.00  0.00     0.174 HD
ENDBRANCH   8  19
BRANCH   5  22
HETATM   22  N4  UNL     1      -3.105   9.433  16.289  1.00  0.00    -0.383 N 
ATOM     23  H42 UNL     1      -3.964   8.970  16.588  1.00  0.00     0.157 HD
ATOM     24  H41 UNL     1      -2.855  10.346  16.668  1.00  0.00     0.157 HD
ENDBRANCH   5  22
TORSDOF 6
ENDMDL
MODEL 5
REMARK VINA RESULT: -6.088388274      2.400      3.770
REMARK  6 active torsions:
REMARK  status: ('A' for Active; 'I' for Inactive)
REMARK    1  A    between atoms: C2_3  and  C3_4 
REMARK    2  A    between atoms: C3_4  and  S1_5 
REMARK    3  A    between atoms: S1_5  and  N2_6 
REMARK    4  A    between atoms: C4_11  and  N3_12 
REMARK    5  A    between atoms: C5_15  and  N4_16 
REMARK    6  A    between atoms: C6_21  and  N6_22 
ROOT
HETATM    1  C1  UNL     1      -1.362   5.643  13.707  1.00  0.00     0.175 C 
HETATM    2  N1  UNL     1      -0.783   5.287  15.011  1.00  0.00    -0.188 N 
HETATM    3  C2  UNL     1      -1.288   5.829  16.139  1.00  0.00     0.081 A 
HETATM    4  C4  UNL     1      -0.798   5.319  17.332  1.00  0.00     0.171 A 
HETATM    5  C5  UNL     1       0.166   4.318  17.358  1.00  0.00     0.150 A 
HETATM    6  N5  UNL     1       0.644   3.812  16.214  1.00  0.00    -0.175 N 
ATOM      7  H5  UNL     1       1.348   3.075  16.229  1.00  0.00     0.186 HD
HETATM    8  C6  UNL     1       0.181   4.290  15.043  1.00  0.00     0.679 A 
ENDROOT
BRANCH   3   9
HETATM    9  C3  UNL     1      -2.399   6.777  16.186  1.00  0.00     0.223 C 
BRANCH   9  10
HETATM   10  S1  UNL     1      -4.023   6.202  16.196  1.00  0.00     0.229 S 
HETATM   11  O1  UNL     1      -3.897   4.627  16.552  1.00  0.00    -0.206 OA
HETATM   12  O2  UNL     1      -5.060   6.689  17.072  1.00  0.00    -0.206 OA
BRANCH  10  13
HETATM   13  N2  UNL     1      -4.664   5.998  14.573  1.00  0.00    -0.328 N 
ATOM     14  H22 UNL     1      -5.133   6.745  14.062  1.00  0.00     0.168 HD
ATOM     15  H21 UNL     1      -4.509   5.056  14.214  1.00  0.00     0.168 HD
ENDBRANCH  10  13
ENDBRANCH   9  10
ENDBRANCH   3   9
BRANCH   4  16
HETATM   16  N3  UNL     1      -1.186   5.839  18.589  1.00  0.00    -0.110 N 
HETATM   17  O3  UNL     1      -2.075   5.323  19.263  1.00  0.00    -0.532 OA
HETATM   18  O4  UNL     1      -0.574   6.966  19.062  1.00  0.00    -0.532 OA
ENDBRANCH   4  16
BRANCH   8  19
HETATM   19  N6  UNL     1       0.622   3.821  13.950  1.00  0.00    -0.234 N 
ATOM     20  H62 UNL     1       1.626   3.805  13.773  1.00  0.00     0.174 HD
ATOM     21  H61 UNL     1      -0.038   3.458  13.262  1.00  0.00     0.174 HD
ENDBRANCH   8  19
BRANCH   5  22
HETATM   22  N4  UNL     1       0.634   3.859  18.498  1.00  0.00    -0.383 N 
ATOM     23  H42 UNL     1       0.004   3.795  19.297  1.00  0.00     0.157 HD
ATOM     24  H41 UNL     1       1.606   3.562  18.585  1.00  0.00     0.157 HD
ENDBRANCH   5  22
TORSDOF 6
ENDMDL
