MODEL 1
REMARK VINA RESULT: -7.141686240      0.000      0.000
REMARK  7 active torsions:
REMARK  status: ('A' for Active; 'I' for Inactive)
REMARK    1  A    between atoms: O1_2  and  C2_3 
REMARK    2  A    between atoms: C2_3  and  O2_4 
REMARK    3  A    between atoms: C2_3  and  C3_6 
REMARK    4  A    between atoms: C3_6  and  N1_7 
REMARK    5  A    between atoms: N1_7  and  C4_9 
REMARK    6  A    between atoms: C7_16  and  N4_17 
REMARK    7  A    between atoms: C8_22  and  N6_23 
ROOT
HETATM    1  C4  UNL     1      -0.744   6.705   9.790  1.00  0.00     0.132 A 
HETATM    2  N2  UNL     1       0.286   6.458  10.616  1.00  0.00    -0.337 N 
ATOM      3  H2  UNL     1       0.690   5.522  10.648  1.00  0.00     0.168 HD
HETATM    4  C5  UNL     1       0.800   7.438  11.411  1.00  0.00     0.182 A 
HETATM    5  N3  UNL     1       0.274   8.672  11.371  1.00  0.00    -0.347 N 
ATOM      6  H3  UNL     1       0.665   9.401  11.969  1.00  0.00     0.167 HD
HETATM    7  C6  UNL     1      -0.769   8.973  10.552  1.00  0.00     0.109 A 
HETATM    8  C7  UNL     1      -1.297  10.231  10.519  1.00  0.00     0.144 A 
HETATM    9  N5  UNL     1      -2.341  10.478   9.680  1.00  0.00    -0.175 N 
ATOM     10  H5  UNL     1      -2.743  11.414   9.648  1.00  0.00     0.186 HD
HETATM   11  C8  UNL     1      -2.853   9.515   8.894  1.00  0.00     0.678 A 
HETATM   12  N7  UNL     1      -2.324   8.278   8.935  1.00  0.00    -0.186 N 
ATOM     13  H7  UNL     1      -2.712   7.548   8.339  1.00  0.00     0.184 HD
HETATM   14  C9  UNL     1      -1.298   7.988   9.742  1.00  0.00     0.123 A 
ENDROOT
BRANCH   1  15
HETATM   15  N1  UNL     1      -1.289   5.848   9.011  1.00  0.00    -0.370 N 
ATOM     16  H1  UNL     1      -1.921   6.177   8.281  1.00  0.00     0.161 HD
BRANCH  15  17
HETATM   17  C3  UNL     1      -1.038   4.429   9.130  1.00  0.00     0.181 C 
BRANCH  17  18
HETATM   18  C2  UNL     1      -0.027   3.960   8.074  1.00  0.00     0.273 C 
BRANCH  18  19
HETATM   19  O1  UNL     1       1.242   3.994   8.638  1.00  0.00    -0.365 OA
HETATM   20  C1  UNL     1       1.361   3.125   9.726  1.00  0.00     0.204 C 
ENDBRANCH  18  19
BRANCH  18  21
HETATM   21  O2  UNL     1      -0.076   4.803   6.970  1.00  0.00    -0.370 OA
ATOM     22  H2  UNL     1      -0.245   5.694   7.251  1.00  0.00     0.212 HD
ENDBRANCH  18  21
ENDBRANCH  17  18
ENDBRANCH  15  17
ENDBRANCH   1  15
BRANCH   8  23
HETATM   23  N4  UNL     1      -0.799  11.135  11.272  1.00  0.00    -0.383 N 
ATOM     24  H42 UNL     1      -0.580  10.966  12.253  1.00  0.00     0.157 HD
ATOM     25  H41 UNL     1      -0.613  12.060  10.883  1.00  0.00     0.157 HD
ENDBRANCH   8  23
BRANCH  11  26
HETATM   26  N6  UNL     1      -3.859   9.781   8.094  1.00  0.00    -0.234 N 
ATOM     27  H62 UNL     1      -4.209  10.736   8.003  1.00  0.00     0.174 HD
ATOM     28  H61 UNL     1      -4.300   9.034   7.557  1.00  0.00     0.174 HD
ENDBRANCH  11  26
TORSDOF 7
ENDMDL
MODEL 2
REMARK VINA RESULT: -7.052809242      1.096      1.103
REMARK  7 active torsions:
REMARK  status: ('A' for Active; 'I' for Inactive)
REMARK    1  A    between atoms: O1_2  and  C2_3 
REMARK    2  A    between atoms: C2_3  and  O2_4 
REMARK    3  A    between atoms: C2_3  and  C3_6 
REMARK    4  A    between atoms: C3_6  and  N1_7 
REMARK    5  A    between atoms: N1_7  and  C4_9 
REMARK    6  A    between atoms: C7_16  and  N4_17 
REMARK    7  A    between atoms: C8_22  and  N6_23 
ROOT
HETATM    1  C4  UNL     1      -0.220   6.827   9.800  1.00  0.00     0.132 A 
HETATM    2  N2  UNL     1       0.684   6.619  10.771  1.00  0.00    -0.337 N 
ATOM      3  H2  UNL     1       1.246   5.768  10.759  1.00  0.00     0.168 HD
HETATM    4  C5  UNL     1       0.864   7.528  11.771  1.00  0.00     0.182 A 
HETATM    5  N3  UNL     1       0.129   8.651  11.791  1.00  0.00    -0.347 N 
ATOM      6  H3  UNL     1       0.270   9.327  12.542  1.00  0.00     0.167 HD
HETATM    7  C6  UNL     1      -0.800   8.907  10.831  1.00  0.00     0.109 A 
HETATM    8  C7  UNL     1      -1.543  10.052  10.859  1.00  0.00     0.144 A 
HETATM    9  N5  UNL     1      -2.459  10.260   9.874  1.00  0.00    -0.175 N 
ATOM     10  H5  UNL     1      -3.019  11.112   9.886  1.00  0.00     0.186 HD
HETATM   11  C8  UNL     1      -2.641   9.367   8.885  1.00  0.00     0.678 A 
HETATM   12  N7  UNL     1      -1.903   8.241   8.868  1.00  0.00    -0.186 N 
ATOM     13  H7  UNL     1      -2.042   7.564   8.118  1.00  0.00     0.184 HD
HETATM   14  C9  UNL     1      -0.991   7.994   9.813  1.00  0.00     0.123 A 
ENDROOT
BRANCH   1  15
HETATM   15  N1  UNL     1      -0.456   6.031   8.826  1.00  0.00    -0.370 N 
ATOM     16  H1  UNL     1      -1.398   5.658   8.711  1.00  0.00     0.161 HD
BRANCH  15  17
HETATM   17  C3  UNL     1       0.569   5.643   7.883  1.00  0.00     0.181 C 
BRANCH  17  18
HETATM   18  C2  UNL     1       0.201   4.327   7.183  1.00  0.00     0.273 C 
BRANCH  18  19
HETATM   19  O1  UNL     1       1.323   3.507   7.176  1.00  0.00    -0.365 OA
HETATM   20  C1  UNL     1       0.994   2.161   6.998  1.00  0.00     0.204 C 
ENDBRANCH  18  19
BRANCH  18  21
HETATM   21  O2  UNL     1      -0.203   4.586   5.879  1.00  0.00    -0.370 OA
ATOM     22  H2  UNL     1       0.235   5.363   5.553  1.00  0.00     0.212 HD
ENDBRANCH  18  21
ENDBRANCH  17  18
ENDBRANCH  15  17
ENDBRANCH   1  15
BRANCH   8  23
HETATM   23  N4  UNL     1      -1.357  10.891  11.806  1.00  0.00    -0.383 N 
ATOM     24  H42 UNL     1      -0.508  10.895  12.370  1.00  0.00     0.157 HD
ATOM     25  H41 UNL     1      -2.080  11.582  12.006  1.00  0.00     0.157 HD
ENDBRANCH   8  23
BRANCH  11  26
HETATM   26  N6  UNL     1      -3.532   9.593   7.948  1.00  0.00    -0.234 N 
ATOM     27  H62 UNL     1      -4.496   9.819   8.194  1.00  0.00     0.174 HD
ATOM     28  H61 UNL     1      -3.265   9.545   6.964  1.00  0.00     0.174 HD
ENDBRANCH  11  26
TORSDOF 7
ENDMDL
MODEL 3
REMARK VINA RESULT: -6.926661636      0.684      1.178
REMARK  7 active torsions:
REMARK  status: ('A' for Active; 'I' for Inactive)
REMARK    1  A    between atoms: O1_2  and  C2_3 
REMARK    2  A    between atoms: C2_3  and  O2_4 
REMARK    3  A    between atoms: C2_3  and  C3_6 
REMARK    4  A    between atoms: C3_6  and  N1_7 
REMARK    5  A    between atoms: N1_7  and  C4_9 
REMARK    6  A    between atoms: C7_16  and  N4_17 
REMARK    7  A    between atoms: C8_22  and  N6_23 
ROOT
HETATM    1  C4  UNL     1      -0.801   6.684   9.926  1.00  0.00     0.132 A 
HETATM    2  N2  UNL     1       0.169   6.435  10.821  1.00  0.00    -0.337 N 
ATOM      3  H2  UNL     1       0.572   5.500  10.878  1.00  0.00     0.168 HD
HETATM    4  C5  UNL     1       0.623   7.412  11.656  1.00  0.00     0.182 A 
HETATM    5  N3  UNL     1       0.097   8.646  11.586  1.00  0.00    -0.347 N 
ATOM      6  H3  UNL     1       0.443   9.372  12.213  1.00  0.00     0.167 HD
HETATM    7  C6  UNL     1      -0.886   8.947  10.696  1.00  0.00     0.109 A 
HETATM    8  C7  UNL     1      -1.415  10.204  10.632  1.00  0.00     0.144 A 
HETATM    9  N5  UNL     1      -2.397  10.453   9.723  1.00  0.00    -0.175 N 
ATOM     10  H5  UNL     1      -2.799  11.388   9.667  1.00  0.00     0.186 HD
HETATM   11  C8  UNL     1      -2.849   9.493   8.898  1.00  0.00     0.678 A 
HETATM   12  N7  UNL     1      -2.321   8.257   8.970  1.00  0.00    -0.186 N 
ATOM     13  H7  UNL     1      -2.664   7.529   8.344  1.00  0.00     0.184 HD
HETATM   14  C9  UNL     1      -1.354   7.966   9.846  1.00  0.00     0.123 A 
ENDROOT
BRANCH   1  15
HETATM   15  N1  UNL     1      -1.287   5.829   9.106  1.00  0.00    -0.370 N 
ATOM     16  H1  UNL     1      -1.946   6.147   8.396  1.00  0.00     0.161 HD
BRANCH  15  17
HETATM   17  C3  UNL     1      -0.932   4.429   9.153  1.00  0.00     0.181 C 
BRANCH  17  18
HETATM   18  C2  UNL     1       0.389   4.172   8.413  1.00  0.00     0.273 C 
BRANCH  18  19
HETATM   19  O1  UNL     1       0.207   3.094   7.555  1.00  0.00    -0.365 OA
HETATM   20  C1  UNL     1       0.647   3.370   6.258  1.00  0.00     0.204 C 
ENDBRANCH  18  19
BRANCH  18  21
HETATM   21  O2  UNL     1       1.392   3.882   9.330  1.00  0.00    -0.370 OA
ATOM     22  H2  UNL     1       1.977   4.625   9.416  1.00  0.00     0.212 HD
ENDBRANCH  18  21
ENDBRANCH  17  18
ENDBRANCH  15  17
ENDBRANCH   1  15
BRANCH   8  23
HETATM   23  N4  UNL     1      -0.974  11.106  11.423  1.00  0.00    -0.383 N 
ATOM     24  H42 UNL     1      -0.392  11.877  11.097  1.00  0.00     0.157 HD
ATOM     25  H41 UNL     1      -1.209  11.057  12.414  1.00  0.00     0.157 HD
ENDBRANCH   8  23
BRANCH  11  26
HETATM   26  N6  UNL     1      -3.798   9.761   8.031  1.00  0.00    -0.234 N 
ATOM     27  H62 UNL     1      -3.961  10.720   7.722  1.00  0.00     0.174 HD
ATOM     28  H61 UNL     1      -4.379   9.010   7.658  1.00  0.00     0.174 HD
ENDBRANCH  11  26
TORSDOF 7
ENDMDL
MODEL 4
REMARK VINA RESULT: -6.791793391      2.757      5.120
REMARK  7 active torsions:
REMARK  status: ('A' for Active; 'I' for Inactive)
REMARK    1  A    between atoms: O1_2  and  C2_3 
REMARK    2  A    between atoms: C2_3  and  O2_4 
REMARK    3  A    between atoms: C2_3  and  C3_6 
REMARK    4  A    between atoms: C3_6  and  N1_7 
REMARK    5  A    between atoms: N1_7  and  C4_9 
REMARK    6  A    between atoms: C7_16  and  N4_17 
REMARK    7  A    between atoms: C8_22  and  N6_23 
ROOT
HETATM    1  C4  UNL     1      -0.428   9.387  10.580  1.00  0.00     0.132 A 
HETATM    2  N2  UNL     1      -0.899   9.840  11.753  1.00  0.00    -0.337 N 
ATOM      3  H2  UNL     1      -0.932  10.845  11.926  1.00  0.00     0.168 HD
HETATM    4  C5  UNL     1      -1.333   8.979  12.716  1.00  0.00     0.182 A 
HETATM    5  N3  UNL     1      -1.293   7.656  12.493  1.00  0.00    -0.347 N 
ATOM      6  H3  UNL     1      -1.621   7.017  13.218  1.00  0.00     0.167 HD
HETATM    7  C6  UNL     1      -0.825   7.147  11.322  1.00  0.00     0.109 A 
HETATM    8  C7  UNL     1      -0.789   5.801  11.105  1.00  0.00     0.144 A 
HETATM    9  N5  UNL     1      -0.311   5.345   9.914  1.00  0.00    -0.175 N 
ATOM     10  H5  UNL     1      -0.279   4.340   9.742  1.00  0.00     0.186 HD
HETATM   11  C8  UNL     1       0.120   6.190   8.961  1.00  0.00     0.678 A 
HETATM   12  N7  UNL     1       0.079   7.516   9.186  1.00  0.00    -0.186 N 
ATOM     13  H7  UNL     1       0.406   8.156   8.463  1.00  0.00     0.184 HD
HETATM   14  C9  UNL     1      -0.382   8.010  10.339  1.00  0.00     0.123 A 
ENDROOT
BRANCH   1  15
HETATM   15  N1  UNL     1       0.000  10.121   9.622  1.00  0.00    -0.370 N 
ATOM     16  H1  UNL     1       0.861   9.855   9.144  1.00  0.00     0.161 HD
BRANCH  15  17
HETATM   17  C3  UNL     1      -0.695  11.314   9.195  1.00  0.00     0.181 C 
BRANCH  17  18
HETATM   18  C2  UNL     1      -1.701  10.993   8.080  1.00  0.00     0.273 C 
BRANCH  18  19
HETATM   19  O1  UNL     1      -2.963  10.875   8.650  1.00  0.00    -0.365 OA
HETATM   20  C1  UNL     1      -3.535   9.623   8.414  1.00  0.00     0.204 C 
ENDBRANCH  18  19
BRANCH  18  21
HETATM   21  O2  UNL     1      -1.350   9.800   7.459  1.00  0.00    -0.370 OA
ATOM     22  H2  UNL     1      -0.597   9.419   7.894  1.00  0.00     0.212 HD
ENDBRANCH  18  21
ENDBRANCH  17  18
ENDBRANCH  15  17
ENDBRANCH   1  15
BRANCH   8  23
HETATM   23  N4  UNL     1      -1.202   5.011  12.021  1.00  0.00    -0.383 N 
ATOM     24  H42 UNL     1      -1.994   5.242  12.621  1.00  0.00     0.157 HD
ATOM     25  H41 UNL     1      -0.728   4.118  12.159  1.00  0.00     0.157 HD
ENDBRANCH   8  23
BRANCH  11  26
HETATM   26  N6  UNL     1       0.575   5.722   7.822  1.00  0.00    -0.234 N 
ATOM     27  H62 UNL     1       1.189   4.906   7.805  1.00  0.00     0.174 HD
ATOM     28  H61 UNL     1       0.318   6.172   6.943  1.00  0.00     0.174 HD
ENDBRANCH  11  26
TORSDOF 7
ENDMDL
MODEL 5
REMARK VINA RESULT: -6.717976522      3.069      5.223
REMARK  7 active torsions:
REMARK  status: ('A' for Active; 'I' for Inactive)
REMARK    1  A    between atoms: O1_2  and  C2_3 
REMARK    2  A    between atoms: C2_3  and  O2_4 
REMARK    3  A    between atoms: C2_3  and  C3_6 
REMARK    4  A    between atoms: C3_6  and  N1_7 
REMARK    5  A    between atoms: N1_7  and  C4_9 
REMARK    6  A    between atoms: C7_16  and  N4_17 
REMARK    7  A    between atoms: C8_22  and  N6_23 
ROOT
HETATM    1  C4  UNL     1      -0.371   9.250  10.388  1.00  0.00     0.132 A 
HETATM    2  N2  UNL     1      -0.009   8.436   9.383  1.00  0.00    -0.337 N 
ATOM      3  H2  UNL     1       0.358   8.835   8.519  1.00  0.00     0.168 HD
HETATM    4  C5  UNL     1      -0.124   7.082   9.499  1.00  0.00     0.182 A 
HETATM    5  N3  UNL     1      -0.605   6.550  10.634  1.00  0.00    -0.347 N 
ATOM      6  H3  UNL     1      -0.687   5.536  10.714  1.00  0.00     0.167 HD
HETATM    7  C6  UNL     1      -0.984   7.332  11.680  1.00  0.00     0.109 A 
HETATM    8  C7  UNL     1      -1.472   6.782  12.829  1.00  0.00     0.144 A 
HETATM    9  N5  UNL     1      -1.837   7.611  13.845  1.00  0.00    -0.175 N 
ATOM     10  H5  UNL     1      -2.203   7.209  14.708  1.00  0.00     0.186 HD
HETATM   11  C8  UNL     1      -1.727   8.946  13.736  1.00  0.00     0.678 A 
HETATM   12  N7  UNL     1      -1.245   9.478  12.598  1.00  0.00    -0.186 N 
ATOM     13  H7  UNL     1      -1.161  10.491  12.515  1.00  0.00     0.184 HD
HETATM   14  C9  UNL     1      -0.873   8.704  11.573  1.00  0.00     0.123 A 
ENDROOT
BRANCH   1  15
HETATM   15  N1  UNL     1      -0.298  10.528  10.366  1.00  0.00    -0.370 N 
ATOM     16  H1  UNL     1      -0.393  11.043  11.241  1.00  0.00     0.161 HD
BRANCH  15  17
HETATM   17  C3  UNL     1      -0.084  11.267   9.141  1.00  0.00     0.181 C 
BRANCH  17  18
HETATM   18  C2  UNL     1      -1.368  11.318   8.300  1.00  0.00     0.273 C 
BRANCH  18  19
HETATM   19  O1  UNL     1      -2.423  10.874   9.086  1.00  0.00    -0.365 OA
HETATM   20  C1  UNL     1      -3.272  10.008   8.392  1.00  0.00     0.204 C 
ENDBRANCH  18  19
BRANCH  18  21
HETATM   21  O2  UNL     1      -1.231  10.500   7.185  1.00  0.00    -0.370 OA
ATOM     22  H2  UNL     1      -0.312  10.389   6.976  1.00  0.00     0.212 HD
ENDBRANCH  18  21
ENDBRANCH  17  18
ENDBRANCH  15  17
ENDBRANCH   1  15
BRANCH   8  23
HETATM   23  N4  UNL     1      -1.571   5.510  12.918  1.00  0.00    -0.383 N 
ATOM     24  H42 UNL     1      -0.971   4.960  13.532  1.00  0.00     0.157 HD
ATOM     25  H41 UNL     1      -2.271   5.025  12.357  1.00  0.00     0.157 HD
ENDBRANCH   8  23
BRANCH  11  26
HETATM   26  N6  UNL     1      -2.087   9.722  14.732  1.00  0.00    -0.234 N 
ATOM     27  H62 UNL     1      -1.495   9.810  15.559  1.00  0.00     0.174 HD
ATOM     28  H61 UNL     1      -2.962  10.243  14.686  1.00  0.00     0.174 HD
ENDBRANCH  11  26
TORSDOF 7
ENDMDL
