MODEL 1
REMARK VINA RESULT: -6.557165382      0.000      0.000
REMARK  1 active torsions:
REMARK  status: ('A' for Active; 'I' for Inactive)
REMARK    1  A    between atoms: N1_1  and  N2_4 
ROOT
HETATM    1  N2  UNL     1      -1.682  11.483   8.134  1.00  0.00    -0.039 NA
HETATM    2  N3  UNL     1      -0.667  12.263   8.681  1.00  0.00    -0.234 N 
ATOM      3  H3  UNL     1      -0.532  13.226   8.377  1.00  0.00     0.189 HD
HETATM    4  C1  UNL     1       0.178  11.693   9.673  1.00  0.00     0.341 C 
HETATM    5  O1  UNL     1       1.326  12.177   9.864  1.00  0.00    -0.245 OA
HETATM    6  N4  UNL     1      -0.299  10.573  10.435  1.00  0.00    -0.259 N 
ATOM      7  H4  UNL     1       0.271  10.131  11.156  1.00  0.00     0.175 HD
HETATM    8  C2  UNL     1      -1.610  10.115  10.130  1.00  0.00     0.341 C 
HETATM    9  O2  UNL     1      -2.079   9.123  10.782  1.00  0.00    -0.245 OA
HETATM   10  N5  UNL     1      -2.341  10.773   9.123  1.00  0.00    -0.234 N 
ATOM     11  H5  UNL     1      -3.360  10.727   9.122  1.00  0.00     0.189 HD
ENDROOT
BRANCH   1  12
HETATM   12  N1  UNL     1      -1.176  10.548   7.217  1.00  0.00    -0.327 NA
ATOM     13  H12 UNL     1      -0.167  10.693   7.163  1.00  0.00     0.174 HD
ATOM     14  H11 UNL     1      -1.605  10.654   6.299  1.00  0.00     0.174 HD
ENDBRANCH   1  12
TORSDOF 1
ENDMDL
MODEL 2
REMARK VINA RESULT: -6.405247875      1.215      2.847
REMARK  1 active torsions:
REMARK  status: ('A' for Active; 'I' for Inactive)
REMARK    1  A    between atoms: N1_1  and  N2_4 
ROOT
HETATM    1  N2  UNL     1      -1.561  10.983   7.999  1.00  0.00    -0.039 NA
HETATM    2  N3  UNL     1      -1.134   9.660   8.045  1.00  0.00    -0.234 N 
ATOM      3  H3  UNL     1      -1.392   9.006   7.307  1.00  0.00     0.189 HD
HETATM    4  C1  UNL     1      -0.332   9.235   9.140  1.00  0.00     0.341 C 
HETATM    5  O1  UNL     1      -0.297   8.012   9.447  1.00  0.00    -0.245 OA
HETATM    6  N4  UNL     1       0.422  10.213   9.873  1.00  0.00    -0.259 N 
ATOM      7  H4  UNL     1       1.011   9.956  10.665  1.00  0.00     0.175 HD
HETATM    8  C2  UNL     1       0.302  11.560   9.434  1.00  0.00     0.341 C 
HETATM    9  O2  UNL     1       0.954  12.466  10.053  1.00  0.00    -0.245 OA
HETATM   10  N5  UNL     1      -0.528  11.843   8.332  1.00  0.00    -0.234 N 
ATOM     11  H5  UNL     1      -0.368  12.684   7.778  1.00  0.00     0.189 HD
ENDROOT
BRANCH   1  12
HETATM   12  N1  UNL     1      -2.607  11.219   8.905  1.00  0.00    -0.327 NA
ATOM     13  H12 UNL     1      -3.383  11.617   8.374  1.00  0.00     0.174 HD
ATOM     14  H11 UNL     1      -2.321  11.851   9.652  1.00  0.00     0.174 HD
ENDBRANCH   1  12
TORSDOF 1
ENDMDL
MODEL 3
REMARK VINA RESULT: -6.382298520      0.977      1.002
REMARK  1 active torsions:
REMARK  status: ('A' for Active; 'I' for Inactive)
REMARK    1  A    between atoms: N1_1  and  N2_4 
ROOT
HETATM    1  N2  UNL     1      -2.243  11.214   8.761  1.00  0.00    -0.039 NA
HETATM    2  N3  UNL     1      -1.069  11.933   8.562  1.00  0.00    -0.234 N 
ATOM      3  H3  UNL     1      -1.096  12.867   8.153  1.00  0.00     0.189 HD
HETATM    4  C1  UNL     1       0.170  11.345   8.939  1.00  0.00     0.341 C 
HETATM    5  O1  UNL     1       1.237  11.743   8.398  1.00  0.00    -0.245 OA
HETATM    6  N4  UNL     1       0.175  10.307   9.932  1.00  0.00    -0.259 N 
ATOM      7  H4  UNL     1       1.038   9.855  10.234  1.00  0.00     0.175 HD
HETATM    8  C2  UNL     1      -1.089   9.943  10.470  1.00  0.00     0.341 C 
HETATM    9  O2  UNL     1      -1.136   9.026  11.356  1.00  0.00    -0.245 OA
HETATM   10  N5  UNL     1      -2.241  10.609  10.007  1.00  0.00    -0.234 N 
ATOM     11  H5  UNL     1      -3.076  10.646  10.592  1.00  0.00     0.189 HD
ENDROOT
BRANCH   1  12
HETATM   12  N1  UNL     1      -2.393  10.197   7.806  1.00  0.00    -0.327 NA
ATOM     13  H12 UNL     1      -1.501   9.705   7.744  1.00  0.00     0.174 HD
ATOM     14  H11 UNL     1      -2.660  10.574   6.897  1.00  0.00     0.174 HD
ENDBRANCH   1  12
TORSDOF 1
ENDMDL
MODEL 4
REMARK VINA RESULT: -6.097787592      1.583      3.503
REMARK  1 active torsions:
REMARK  status: ('A' for Active; 'I' for Inactive)
REMARK    1  A    between atoms: N1_1  and  N2_4 
ROOT
HETATM    1  N2  UNL     1      -1.011  10.445  10.693  1.00  0.00    -0.039 NA
HETATM    2  N3  UNL     1      -2.225  10.501  10.016  1.00  0.00    -0.234 N 
ATOM      3  H3  UNL     1      -3.105  10.527  10.531  1.00  0.00     0.189 HD
HETATM    4  C1  UNL     1      -2.219  10.523   8.594  1.00  0.00     0.341 C 
HETATM    5  O1  UNL     1      -3.240  10.140   7.962  1.00  0.00    -0.245 OA
HETATM    6  N4  UNL     1      -1.042  10.981   7.910  1.00  0.00    -0.259 N 
ATOM      7  H4  UNL     1      -0.990  11.014   6.892  1.00  0.00     0.175 HD
HETATM    8  C2  UNL     1       0.047  11.387   8.729  1.00  0.00     0.341 C 
HETATM    9  O2  UNL     1       1.114  11.803   8.168  1.00  0.00    -0.245 OA
HETATM   10  N5  UNL     1      -0.095  11.316  10.129  1.00  0.00    -0.234 N 
ATOM     11  H5  UNL     1       0.480  11.908  10.728  1.00  0.00     0.189 HD
ENDROOT
BRANCH   1  12
HETATM   12  N1  UNL     1      -0.450   9.159  10.640  1.00  0.00    -0.327 NA
ATOM     13  H12 UNL     1      -1.046   8.594  10.035  1.00  0.00     0.174 HD
ATOM     14  H11 UNL     1      -0.381   8.742  11.568  1.00  0.00     0.174 HD
ENDBRANCH   1  12
TORSDOF 1
ENDMDL
MODEL 5
REMARK VINA RESULT: -5.996706177      2.181      2.465
REMARK  1 active torsions:
REMARK  status: ('A' for Active; 'I' for Inactive)
REMARK    1  A    between atoms: N1_1  and  N2_4 
ROOT
HETATM    1  N2  UNL     1      -0.201  11.628   9.084  1.00  0.00    -0.039 NA
HETATM    2  N3  UNL     1       0.346  10.478   9.645  1.00  0.00    -0.234 N 
ATOM      3  H3  UNL     1       1.132  10.540  10.291  1.00  0.00     0.189 HD
HETATM    4  C1  UNL     1      -0.211   9.215   9.303  1.00  0.00     0.341 C 
HETATM    5  O1  UNL     1       0.491   8.174   9.421  1.00  0.00    -0.245 OA
HETATM    6  N4  UNL     1      -1.565   9.156   8.827  1.00  0.00    -0.259 N 
ATOM      7  H4  UNL     1      -2.006   8.273   8.569  1.00  0.00     0.175 HD
HETATM    8  C2  UNL     1      -2.256  10.394   8.736  1.00  0.00     0.341 C 
HETATM    9  O2  UNL     1      -3.462  10.393   8.319  1.00  0.00    -0.245 OA
HETATM   10  N5  UNL     1      -1.584  11.575   9.109  1.00  0.00    -0.234 N 
ATOM     11  H5  UNL     1      -2.119  12.393   9.400  1.00  0.00     0.189 HD
ENDROOT
BRANCH   1  12
HETATM   12  N1  UNL     1       0.185  11.781   7.743  1.00  0.00    -0.327 NA
ATOM     13  H12 UNL     1       0.745  10.965   7.494  1.00  0.00     0.174 HD
ATOM     14  H11 UNL     1       0.716  12.639   7.602  1.00  0.00     0.174 HD
ENDBRANCH   1  12
TORSDOF 1
ENDMDL
