MODEL 1
REMARK VINA RESULT: -5.613975600      0.000      0.000
REMARK  3 active torsions:
REMARK  status: ('A' for Active; 'I' for Inactive)
REMARK       I    between atoms: C1_4  and  N3_6 
REMARK    1  A    between atoms: N3_6  and  N4_8 
REMARK       I    between atoms: N4_8  and  C2_10 
REMARK    2  A    between atoms: C2_10  and  C3_12 
REMARK    3  A    between atoms: N5_13  and  O2_15 
ROOT
HETATM    1  N4  UNL     1      -1.503  10.310  10.751  1.00  0.00    -0.263 N 
ATOM      2  H4  UNL     1      -1.137  10.766  11.587  1.00  0.00     0.190 HD
HETATM    3  C2  UNL     1      -1.604   8.920  10.718  1.00  0.00     0.277 C 
HETATM    4  O1  UNL     1      -2.044   8.275   9.749  1.00  0.00    -0.265 OA
ENDROOT
BRANCH   1   5
HETATM    5  N3  UNL     1      -1.893  11.088   9.663  1.00  0.00    -0.271 N 
HETATM    6  C1  UNL     1      -1.025  11.533   8.644  1.00  0.00     0.200 C 
HETATM    7  N1  UNL     1      -0.494  12.702   8.663  1.00  0.00    -0.372 N 
HETATM    8  N2  UNL     1      -0.712  10.677   7.553  1.00  0.00    -0.062 NA
ATOM      9  H12 UNL     1       0.134  13.024   7.926  1.00  0.00     0.158 HD
ATOM     10  H11 UNL     1      -0.718  13.316   9.446  1.00  0.00     0.158 HD
ATOM     11  H3  UNL     1      -2.875  11.355   9.598  1.00  0.00     0.189 HD
ENDBRANCH   1   5
BRANCH   3  12
HETATM   12  C3  UNL     1      -1.177   8.114  11.893  1.00  0.00     0.189 C 
HETATM   13  N5  UNL     1      -0.267   8.545  12.679  1.00  0.00    -0.275 N 
ATOM     14  H5  UNL     1       0.178   9.447  12.507  1.00  0.00     0.193 HD
BRANCH  13  15
HETATM   15  O2  UNL     1       0.104   7.786  13.752  1.00  0.00    -0.290 OA
ATOM     16  H2  UNL     1       0.314   8.214  14.574  1.00  0.00     0.244 HD
ENDBRANCH  13  15
ENDBRANCH   3  12
TORSDOF 3
ENDMDL
MODEL 2
REMARK VINA RESULT: -5.561075959      1.514      1.776
REMARK  3 active torsions:
REMARK  status: ('A' for Active; 'I' for Inactive)
REMARK       I    between atoms: C1_4  and  N3_6 
REMARK    1  A    between atoms: N3_6  and  N4_8 
REMARK       I    between atoms: N4_8  and  C2_10 
REMARK    2  A    between atoms: C2_10  and  C3_12 
REMARK    3  A    between atoms: N5_13  and  O2_15 
ROOT
HETATM    1  N4  UNL     1      -0.152   9.362  10.882  1.00  0.00    -0.263 N 
ATOM      2  H4  UNL     1       0.578   9.157  11.563  1.00  0.00     0.190 HD
HETATM    3  C2  UNL     1      -1.469   9.000  11.160  1.00  0.00     0.277 C 
HETATM    4  O1  UNL     1      -2.429   9.214  10.397  1.00  0.00    -0.265 OA
ENDROOT
BRANCH   1   5
HETATM    5  N3  UNL     1       0.184  10.002   9.690  1.00  0.00    -0.271 N 
HETATM    6  C1  UNL     1      -0.010  11.375   9.436  1.00  0.00     0.200 C 
HETATM    7  N1  UNL     1      -1.041  11.813   8.807  1.00  0.00    -0.372 N 
HETATM    8  N2  UNL     1       0.951  12.324   9.881  1.00  0.00    -0.062 NA
ATOM      9  H12 UNL     1      -1.182  12.806   8.623  1.00  0.00     0.158 HD
ATOM     10  H11 UNL     1      -1.730  11.133   8.488  1.00  0.00     0.158 HD
ATOM     11  H3  UNL     1       0.601   9.437   8.950  1.00  0.00     0.189 HD
ENDBRANCH   1   5
BRANCH   3  12
HETATM   12  C3  UNL     1      -1.799   8.316  12.439  1.00  0.00     0.189 C 
HETATM   13  N5  UNL     1      -1.504   8.856  13.559  1.00  0.00    -0.275 N 
ATOM     14  H5  UNL     1      -1.037   9.763  13.586  1.00  0.00     0.193 HD
BRANCH  13  15
HETATM   15  O2  UNL     1      -1.819   8.207  14.718  1.00  0.00    -0.290 OA
ATOM     16  H2  UNL     1      -2.597   8.466  15.199  1.00  0.00     0.244 HD
ENDBRANCH  13  15
ENDBRANCH   3  12
TORSDOF 3
ENDMDL
MODEL 3
REMARK VINA RESULT: -5.458433054      3.727      4.871
REMARK  3 active torsions:
REMARK  status: ('A' for Active; 'I' for Inactive)
REMARK       I    between atoms: C1_4  and  N3_6 
REMARK    1  A    between atoms: N3_6  and  N4_8 
REMARK       I    between atoms: N4_8  and  C2_10 
REMARK    2  A    between atoms: C2_10  and  C3_12 
REMARK    3  A    between atoms: N5_13  and  O2_15 
ROOT
HETATM    1  N4  UNL     1       0.325   8.085   9.097  1.00  0.00    -0.263 N 
ATOM      2  H4  UNL     1       1.339   8.167   9.163  1.00  0.00     0.190 HD
HETATM    3  C2  UNL     1      -0.458   9.239   9.113  1.00  0.00     0.277 C 
HETATM    4  O1  UNL     1      -1.700   9.241   9.030  1.00  0.00    -0.265 OA
ENDROOT
BRANCH   1   5
HETATM    5  N3  UNL     1      -0.254   6.821   8.990  1.00  0.00    -0.271 N 
HETATM    6  C1  UNL     1       0.445   5.648   8.643  1.00  0.00     0.200 C 
HETATM    7  N1  UNL     1       0.469   5.198   7.440  1.00  0.00    -0.372 N 
HETATM    8  N2  UNL     1       1.156   4.922   9.639  1.00  0.00    -0.062 NA
ATOM      9  H12 UNL     1       0.975   4.349   7.189  1.00  0.00     0.158 HD
ATOM     10  H11 UNL     1      -0.040   5.718   6.726  1.00  0.00     0.158 HD
ATOM     11  H3  UNL     1      -1.253   6.740   9.177  1.00  0.00     0.189 HD
ENDBRANCH   1   5
BRANCH   3  12
HETATM   12  C3  UNL     1       0.187  10.574   9.230  1.00  0.00     0.189 C 
HETATM   13  N5  UNL     1      -0.019  11.306  10.258  1.00  0.00    -0.275 N 
ATOM     14  H5  UNL     1      -0.629  10.981  11.008  1.00  0.00     0.193 HD
BRANCH  13  15
HETATM   15  O2  UNL     1       0.587  12.526  10.341  1.00  0.00    -0.290 OA
ATOM     16  H2  UNL     1       0.285  13.152  10.989  1.00  0.00     0.244 HD
ENDBRANCH  13  15
ENDBRANCH   3  12
TORSDOF 3
ENDMDL
MODEL 4
REMARK VINA RESULT: -5.387118902      2.020      4.980
REMARK  3 active torsions:
REMARK  status: ('A' for Active; 'I' for Inactive)
REMARK       I    between atoms: C1_4  and  N3_6 
REMARK    1  A    between atoms: N3_6  and  N4_8 
REMARK       I    between atoms: N4_8  and  C2_10 
REMARK    2  A    between atoms: C2_10  and  C3_12 
REMARK    3  A    between atoms: N5_13  and  O2_15 
ROOT
HETATM    1  N4  UNL     1      -0.998   9.622  11.374  1.00  0.00    -0.263 N 
ATOM      2  H4  UNL     1      -0.520  10.509  11.531  1.00  0.00     0.190 HD
HETATM    3  C2  UNL     1      -1.158   9.151  10.072  1.00  0.00     0.277 C 
HETATM    4  O1  UNL     1      -1.720   8.079   9.781  1.00  0.00    -0.265 OA
ENDROOT
BRANCH   1   5
HETATM    5  N3  UNL     1      -1.479   8.902  12.467  1.00  0.00    -0.271 N 
HETATM    6  C1  UNL     1      -0.921   7.698  12.940  1.00  0.00     0.200 C 
HETATM    7  N1  UNL     1      -1.388   6.550  12.602  1.00  0.00    -0.372 N 
HETATM    8  N2  UNL     1       0.197   7.729  13.819  1.00  0.00    -0.062 NA
ATOM      9  H12 UNL     1      -0.984   5.678  12.945  1.00  0.00     0.158 HD
ATOM     10  H11 UNL     1      -2.190   6.528  11.972  1.00  0.00     0.158 HD
ATOM     11  H3  UNL     1      -2.293   9.273  12.958  1.00  0.00     0.189 HD
ENDBRANCH   1   5
BRANCH   3  12
HETATM   12  C3  UNL     1      -0.637   9.942   8.925  1.00  0.00     0.189 C 
HETATM   13  N5  UNL     1      -1.315  10.045   7.846  1.00  0.00    -0.275 N 
ATOM     14  H5  UNL     1      -2.221   9.584   7.761  1.00  0.00     0.193 HD
BRANCH  13  15
HETATM   15  O2  UNL     1      -0.814  10.779   6.810  1.00  0.00    -0.290 OA
ATOM     16  H2  UNL     1      -0.012  10.496   6.385  1.00  0.00     0.244 HD
ENDBRANCH  13  15
ENDBRANCH   3  12
TORSDOF 3
ENDMDL
MODEL 5
REMARK VINA RESULT: -5.380371052      2.780      3.192
REMARK  3 active torsions:
REMARK  status: ('A' for Active; 'I' for Inactive)
REMARK       I    between atoms: C1_4  and  N3_6 
REMARK    1  A    between atoms: N3_6  and  N4_8 
REMARK       I    between atoms: N4_8  and  C2_10 
REMARK    2  A    between atoms: C2_10  and  C3_12 
REMARK    3  A    between atoms: N5_13  and  O2_15 
ROOT
HETATM    1  N4  UNL     1      -0.542   8.808   8.581  1.00  0.00    -0.263 N 
ATOM      2  H4  UNL     1      -0.487   8.394   7.651  1.00  0.00     0.190 HD
HETATM    3  C2  UNL     1      -0.216   8.036   9.695  1.00  0.00     0.277 C 
HETATM    4  O1  UNL     1      -0.246   8.454  10.867  1.00  0.00    -0.265 OA
ENDROOT
BRANCH   1   5
HETATM    5  N3  UNL     1      -0.944  10.136   8.715  1.00  0.00    -0.271 N 
HETATM    6  C1  UNL     1      -0.093  11.196   9.090  1.00  0.00     0.200 C 
HETATM    7  N1  UNL     1      -0.014  11.611  10.304  1.00  0.00    -0.372 N 
HETATM    8  N2  UNL     1       0.715  11.839   8.113  1.00  0.00    -0.062 NA
ATOM      9  H12 UNL     1       0.602  12.377  10.575  1.00  0.00     0.158 HD
ATOM     10  H11 UNL     1      -0.593  11.149  11.004  1.00  0.00     0.158 HD
ATOM     11  H3  UNL     1      -1.922  10.357   8.529  1.00  0.00     0.189 HD
ENDBRANCH   1   5
BRANCH   3  12
HETATM   12  C3  UNL     1       0.207   6.621   9.523  1.00  0.00     0.189 C 
HETATM   13  N5  UNL     1       0.561   6.185   8.375  1.00  0.00    -0.275 N 
ATOM     14  H5  UNL     1       0.556   6.804   7.564  1.00  0.00     0.193 HD
BRANCH  13  15
HETATM   15  O2  UNL     1       0.946   4.882   8.245  1.00  0.00    -0.290 OA
ATOM     16  H2  UNL     1       1.862   4.654   8.359  1.00  0.00     0.244 HD
ENDBRANCH  13  15
ENDBRANCH   3  12
TORSDOF 3
ENDMDL
