MODEL 1
REMARK VINA RESULT: -6.364401749      0.000      0.000
REMARK  1 active torsions:
REMARK  status: ('A' for Active; 'I' for Inactive)
REMARK       I    between atoms: C1_4  and  N3_6 
REMARK    1  A    between atoms: C2_7  and  N4_8 
ROOT
HETATM    1  N1  UNL     1       0.298  12.329  10.376  1.00  0.00    -0.373 N 
ATOM      2  H11 UNL     1      -0.474  12.371  11.040  1.00  0.00     0.158 HD
ATOM      3  H12 UNL     1       1.085  12.966  10.494  1.00  0.00     0.158 HD
HETATM    4  C1  UNL     1       0.250  11.480   9.425  1.00  0.00     0.213 C 
HETATM    5  N2  UNL     1       1.318  11.423   8.507  1.00  0.00    -0.062 NA
HETATM    6  N3  UNL     1      -0.838  10.598   9.261  1.00  0.00    -0.065 N 
HETATM    7  C2  UNL     1      -1.375   9.741  10.160  1.00  0.00     0.703 A 
HETATM    8  N5  UNL     1      -2.408   9.061   9.635  1.00  0.00    -0.128 N 
ATOM      9  H5  UNL     1      -2.979   8.358  10.105  1.00  0.00     0.205 HD
HETATM   10  N6  UNL     1      -2.538   9.482   8.397  1.00  0.00    -0.236 N 
ATOM     11  H6  UNL     1      -3.240   9.154   7.732  1.00  0.00     0.192 HD
HETATM   12  C3  UNL     1      -1.603  10.410   8.144  1.00  0.00     0.362 A 
HETATM   13  O1  UNL     1      -1.424  11.035   7.058  1.00  0.00    -0.244 OA
ENDROOT
BRANCH   7  14
HETATM   14  N4  UNL     1      -0.941   9.592  11.382  1.00  0.00    -0.233 N 
ATOM     15  H42 UNL     1      -0.828   8.692  11.848  1.00  0.00     0.174 HD
ATOM     16  H41 UNL     1      -0.672  10.364  11.992  1.00  0.00     0.174 HD
ENDBRANCH   7  14
TORSDOF 1
ENDMDL
MODEL 2
REMARK VINA RESULT: -6.234369444      1.096      1.118
REMARK  1 active torsions:
REMARK  status: ('A' for Active; 'I' for Inactive)
REMARK       I    between atoms: C1_4  and  N3_6 
REMARK    1  A    between atoms: C2_7  and  N4_8 
ROOT
HETATM    1  N1  UNL     1       0.275  11.937  10.332  1.00  0.00    -0.373 N 
ATOM      2  H11 UNL     1       0.021  11.547  11.239  1.00  0.00     0.158 HD
ATOM      3  H12 UNL     1       0.820  12.798  10.302  1.00  0.00     0.158 HD
HETATM    4  C1  UNL     1      -0.097  11.333   9.273  1.00  0.00     0.213 C 
HETATM    5  N2  UNL     1       0.254  11.873   8.018  1.00  0.00    -0.062 NA
HETATM    6  N3  UNL     1      -0.851  10.141   9.314  1.00  0.00    -0.065 N 
HETATM    7  C2  UNL     1      -0.578   8.990   9.970  1.00  0.00     0.703 A 
HETATM    8  N5  UNL     1      -1.537   8.071   9.770  1.00  0.00    -0.128 N 
ATOM      9  H5  UNL     1      -1.566   7.125  10.153  1.00  0.00     0.205 HD
HETATM   10  N6  UNL     1      -2.430   8.630   8.984  1.00  0.00    -0.236 N 
ATOM     11  H6  UNL     1      -3.284   8.184   8.649  1.00  0.00     0.192 HD
HETATM   12  C3  UNL     1      -2.041   9.881   8.693  1.00  0.00     0.362 A 
HETATM   13  O1  UNL     1      -2.649  10.717   7.964  1.00  0.00    -0.244 OA
ENDROOT
BRANCH   7  14
HETATM   14  N4  UNL     1       0.484   8.798  10.705  1.00  0.00    -0.233 N 
ATOM     15  H42 UNL     1       1.442   8.872  10.361  1.00  0.00     0.174 HD
ATOM     16  H41 UNL     1       0.460   8.556  11.695  1.00  0.00     0.174 HD
ENDBRANCH   7  14
TORSDOF 1
ENDMDL
MODEL 3
REMARK VINA RESULT: -6.067630917      1.046      3.061
REMARK  1 active torsions:
REMARK  status: ('A' for Active; 'I' for Inactive)
REMARK       I    between atoms: C1_4  and  N3_6 
REMARK    1  A    between atoms: C2_7  and  N4_8 
ROOT
HETATM    1  N1  UNL     1      -2.840   8.307   9.177  1.00  0.00    -0.373 N 
ATOM      2  H11 UNL     1      -2.086   7.795   9.633  1.00  0.00     0.158 HD
ATOM      3  H12 UNL     1      -3.720   7.826   8.989  1.00  0.00     0.158 HD
HETATM    4  C1  UNL     1      -2.656   9.529   8.860  1.00  0.00     0.213 C 
HETATM    5  N2  UNL     1      -3.700  10.236   8.229  1.00  0.00    -0.062 NA
HETATM    6  N3  UNL     1      -1.441  10.195   9.120  1.00  0.00    -0.065 N 
HETATM    7  C2  UNL     1      -0.775  10.316  10.291  1.00  0.00     0.703 A 
HETATM    8  N5  UNL     1       0.355  11.028  10.144  1.00  0.00    -0.128 N 
ATOM      9  H5  UNL     1       1.030  11.259  10.874  1.00  0.00     0.205 HD
HETATM   10  N6  UNL     1       0.418  11.366   8.876  1.00  0.00    -0.236 N 
ATOM     11  H6  UNL     1       1.164  11.915   8.448  1.00  0.00     0.192 HD
HETATM   12  C3  UNL     1      -0.654  10.877   8.234  1.00  0.00     0.362 A 
HETATM   13  O1  UNL     1      -0.928  11.005   7.005  1.00  0.00    -0.244 OA
ENDROOT
BRANCH   7  14
HETATM   14  N4  UNL     1      -1.181   9.804  11.422  1.00  0.00    -0.233 N 
ATOM     15  H42 UNL     1      -1.369   8.812  11.570  1.00  0.00     0.174 HD
ATOM     16  H41 UNL     1      -1.350  10.346  12.268  1.00  0.00     0.174 HD
ENDBRANCH   7  14
TORSDOF 1
ENDMDL
MODEL 4
REMARK VINA RESULT: -5.705030978      1.765      3.074
REMARK  1 active torsions:
REMARK  status: ('A' for Active; 'I' for Inactive)
REMARK       I    between atoms: C1_4  and  N3_6 
REMARK    1  A    between atoms: C2_7  and  N4_8 
ROOT
HETATM    1  N1  UNL     1       0.501   8.314  10.674  1.00  0.00    -0.373 N 
ATOM      2  H11 UNL     1       1.034   8.605   9.855  1.00  0.00     0.158 HD
ATOM      3  H12 UNL     1       0.873   7.571  11.265  1.00  0.00     0.158 HD
HETATM    4  C1  UNL     1      -0.607   8.891  10.928  1.00  0.00     0.213 C 
HETATM    5  N2  UNL     1      -1.344   8.488  12.061  1.00  0.00    -0.062 NA
HETATM    6  N3  UNL     1      -1.121   9.919  10.112  1.00  0.00    -0.065 N 
HETATM    7  C2  UNL     1      -0.523  11.067   9.719  1.00  0.00     0.703 A 
HETATM    8  N5  UNL     1      -1.333  11.803   8.939  1.00  0.00    -0.128 N 
ATOM      9  H5  UNL     1      -1.119  12.707   8.517  1.00  0.00     0.205 HD
HETATM   10  N6  UNL     1      -2.456  11.128   8.829  1.00  0.00    -0.236 N 
ATOM     11  H6  UNL     1      -3.274  11.425   8.296  1.00  0.00     0.192 HD
HETATM   12  C3  UNL     1      -2.356   9.987   9.527  1.00  0.00     0.362 A 
HETATM   13  O1  UNL     1      -3.240   9.090   9.650  1.00  0.00    -0.244 OA
ENDROOT
BRANCH   7  14
HETATM   14  N4  UNL     1       0.690  11.415  10.056  1.00  0.00    -0.233 N 
ATOM     15  H42 UNL     1       1.383  11.788   9.407  1.00  0.00     0.174 HD
ATOM     16  H41 UNL     1       1.062  11.348  11.003  1.00  0.00     0.174 HD
ENDBRANCH   7  14
TORSDOF 1
ENDMDL
MODEL 5
REMARK VINA RESULT: -5.365745636      1.781      2.599
REMARK  1 active torsions:
REMARK  status: ('A' for Active; 'I' for Inactive)
REMARK       I    between atoms: C1_4  and  N3_6 
REMARK    1  A    between atoms: C2_7  and  N4_8 
ROOT
HETATM    1  N1  UNL     1      -0.126   8.309  11.187  1.00  0.00    -0.373 N 
ATOM      2  H11 UNL     1      -0.763   8.773  11.834  1.00  0.00     0.158 HD
ATOM      3  H12 UNL     1       0.402   7.500  11.512  1.00  0.00     0.158 HD
HETATM    4  C1  UNL     1      -0.016   8.758   9.999  1.00  0.00     0.213 C 
HETATM    5  N2  UNL     1       0.866   8.116   9.105  1.00  0.00    -0.062 NA
HETATM    6  N3  UNL     1      -0.747   9.877   9.549  1.00  0.00    -0.065 N 
HETATM    7  C2  UNL     1      -2.082  10.087   9.590  1.00  0.00     0.703 A 
HETATM    8  N5  UNL     1      -2.409  11.280   9.063  1.00  0.00    -0.128 N 
ATOM      9  H5  UNL     1      -3.347  11.672   8.976  1.00  0.00     0.205 HD
HETATM   10  N6  UNL     1      -1.282  11.839   8.683  1.00  0.00    -0.236 N 
ATOM     11  H6  UNL     1      -1.197  12.756   8.244  1.00  0.00     0.192 HD
HETATM   12  C3  UNL     1      -0.262  11.014   8.964  1.00  0.00     0.362 A 
HETATM   13  O1  UNL     1       0.966  11.219   8.740  1.00  0.00    -0.244 OA
ENDROOT
BRANCH   7  14
HETATM   14  N4  UNL     1      -2.945   9.237  10.079  1.00  0.00    -0.233 N 
ATOM     15  H42 UNL     1      -2.932   8.893  11.039  1.00  0.00     0.174 HD
ATOM     16  H41 UNL     1      -3.716   8.834   9.548  1.00  0.00     0.174 HD
ENDBRANCH   7  14
TORSDOF 1
ENDMDL
