MODEL 1
REMARK VINA RESULT: -7.879811817      0.000      0.000
REMARK  9 active torsions:
REMARK  status: ('A' for Active; 'I' for Inactive)
REMARK    1  A    between atoms: O1_2  and  C2_3 
REMARK    2  A    between atoms: C2_3  and  C3_4 
REMARK    3  A    between atoms: C4_5  and  C5_6 
REMARK    4  A    between atoms: C5_6  and  N1_7 
REMARK    5  A    between atoms: C8_11  and  C9_12 
REMARK    6  A    between atoms: C9_12  and  N2_13 
REMARK       I    between atoms: N2_13  and  C10_14 
REMARK    7  A    between atoms: C10_14  and  C11_16 
REMARK    8  A    between atoms: C16_22  and  C17_23 
REMARK       I    between atoms: C17_23  and  N3_25 
REMARK    9  A    between atoms: C24_34  and  O5_35 
ROOT
HETATM    1  C17 UNL     1       4.124   3.102  20.107  1.00  0.00     0.248 C 
HETATM    2  O4  UNL     1       3.617   3.324  19.018  1.00  0.00    -0.271 OA
HETATM    3  N3  UNL     1       3.440   2.372  21.131  1.00  0.00    -0.316 N 
HETATM    4  C18 UNL     1       2.122   1.804  20.966  1.00  0.00     0.196 C 
HETATM    5  C19 UNL     1       1.893   1.363  19.585  1.00  0.00     0.085 C 
HETATM    6  N4  UNL     1       1.705   1.041  18.506  1.00  0.00    -0.195 NA
HETATM    7  C20 UNL     1       2.111   0.613  21.906  1.00  0.00     0.043 C 
HETATM    8  C21 UNL     1       3.439   0.622  22.636  1.00  0.00     0.043 C 
HETATM    9  C22 UNL     1       3.866   2.059  22.458  1.00  0.00     0.196 C 
HETATM   10  C23 UNL     1       3.050   2.867  23.394  1.00  0.00     0.085 C 
HETATM   11  N5  UNL     1       2.437   3.505  24.131  1.00  0.00    -0.195 NA
ENDROOT
BRANCH   1  12
HETATM   12  C16 UNL     1       5.538   3.596  20.455  1.00  0.00     0.165 A 
HETATM   13  C11 UNL     1       5.928   5.011  19.846  1.00  0.00     0.212 A 
HETATM   14  O3  UNL     1       6.185   4.645  18.646  1.00  0.00    -0.365 OA
HETATM   15  C24 UNL     1       5.256   4.791  21.080  1.00  0.00     0.198 A 
HETATM   16  C12 UNL     1       7.202   4.209  17.958  1.00  0.00     0.170 C 
HETATM   17  C13 UNL     1       8.125   3.076  18.263  1.00  0.00     0.037 C 
HETATM   18  C14 UNL     1       7.679   2.153  19.416  1.00  0.00     0.083 C 
HETATM   19  C15 UNL     1       6.580   2.729  20.087  1.00  0.00    -0.157 C 
BRANCH  13  20
HETATM   20  C10 UNL     1       7.137   5.760  20.317  1.00  0.00     0.331 C 
HETATM   21  N2  UNL     1       7.194   7.087  19.965  1.00  0.00    -0.383 NA
HETATM   22  O2  UNL     1       8.062   5.260  20.988  1.00  0.00    -0.253 OA
BRANCH  21  23
HETATM   23  C9  UNL     1       7.265   8.417  19.620  1.00  0.00     0.198 C 
BRANCH  23  24
HETATM   24  C8  UNL     1       6.963   9.454  20.662  1.00  0.00     0.311 C 
HETATM   25  N1  UNL     1       7.811   9.554  21.775  1.00  0.00     0.115 N 
HETATM   26  C6  UNL     1       7.490  10.947  21.867  1.00  0.00     0.314 C 
HETATM   27  C7  UNL     1       7.230  10.883  20.348  1.00  0.00     0.238 C 
HETATM   28  F1  UNL     1       8.387  11.198  19.699  1.00  0.00    -0.245 F 
BRANCH  25  29
HETATM   29  C5  UNL     1       9.149   9.130  21.779  1.00  0.00     0.367 C 
BRANCH  29  30
HETATM   30  C4  UNL     1       9.752   9.149  23.135  1.00  0.00    -0.074 C 
HETATM   31  C3  UNL     1      10.239   9.140  24.235  1.00  0.00    -0.079 C 
BRANCH  31  32
HETATM   32  C2  UNL     1      10.819   9.117  25.577  1.00  0.00     0.260 C 
BRANCH  32  33
HETATM   33  O1  UNL     1      10.089   8.234  26.364  1.00  0.00    -0.384 OA
HETATM   34  C1  UNL     1      11.023   7.362  26.971  1.00  0.00     0.202 C 
ENDBRANCH  32  33
ENDBRANCH  31  32
ENDBRANCH  29  30
ENDBRANCH  25  29
ENDBRANCH  23  24
ENDBRANCH  21  23
ENDBRANCH  13  20
BRANCH  15  35
HETATM   35  O5  UNL     1       4.086   5.546  21.089  1.00  0.00    -0.390 OA
ATOM     36  H5  UNL     1       4.317   6.460  21.207  1.00  0.00     0.210 HD
ENDBRANCH  15  35
ENDBRANCH   1  12
TORSDOF 9
ENDMDL
MODEL 2
REMARK VINA RESULT: -7.826471854      3.738      7.299
REMARK  9 active torsions:
REMARK  status: ('A' for Active; 'I' for Inactive)
REMARK    1  A    between atoms: O1_2  and  C2_3 
REMARK    2  A    between atoms: C2_3  and  C3_4 
REMARK    3  A    between atoms: C4_5  and  C5_6 
REMARK    4  A    between atoms: C5_6  and  N1_7 
REMARK    5  A    between atoms: C8_11  and  C9_12 
REMARK    6  A    between atoms: C9_12  and  N2_13 
REMARK       I    between atoms: N2_13  and  C10_14 
REMARK    7  A    between atoms: C10_14  and  C11_16 
REMARK    8  A    between atoms: C16_22  and  C17_23 
REMARK       I    between atoms: C17_23  and  N3_25 
REMARK    9  A    between atoms: C24_34  and  O5_35 
ROOT
HETATM    1  C17 UNL     1       5.450   8.918  23.464  1.00  0.00     0.248 C 
HETATM    2  O4  UNL     1       5.914   9.538  24.409  1.00  0.00    -0.271 OA
HETATM    3  N3  UNL     1       4.242   8.159  23.571  1.00  0.00    -0.316 N 
HETATM    4  C18 UNL     1       3.445   8.084  24.774  1.00  0.00     0.196 C 
HETATM    5  C19 UNL     1       3.499   9.337  25.535  1.00  0.00     0.085 C 
HETATM    6  N4  UNL     1       3.558  10.303  26.141  1.00  0.00    -0.195 NA
HETATM    7  C20 UNL     1       2.035   7.836  24.271  1.00  0.00     0.043 C 
HETATM    8  C21 UNL     1       2.129   7.696  22.765  1.00  0.00     0.043 C 
HETATM    9  C22 UNL     1       3.588   7.353  22.587  1.00  0.00     0.196 C 
HETATM   10  C23 UNL     1       3.747   5.937  22.989  1.00  0.00     0.085 C 
HETATM   11  N5  UNL     1       3.881   4.830  23.279  1.00  0.00    -0.195 NA
ENDROOT
BRANCH   1  12
HETATM   12  C16 UNL     1       6.140   8.908  22.090  1.00  0.00     0.165 A 
HETATM   13  C11 UNL     1       7.679   9.302  22.103  1.00  0.00     0.212 A 
HETATM   14  O3  UNL     1       7.555  10.572  22.203  1.00  0.00    -0.365 OA
HETATM   15  C24 UNL     1       7.150   7.997  22.305  1.00  0.00     0.198 A 
HETATM   16  C12 UNL     1       7.427  11.603  21.416  1.00  0.00     0.170 C 
HETATM   17  C13 UNL     1       6.452  11.822  20.306  1.00  0.00     0.037 C 
HETATM   18  C14 UNL     1       5.297  10.803  20.233  1.00  0.00     0.083 C 
HETATM   19  C15 UNL     1       5.548   9.735  21.121  1.00  0.00    -0.157 C 
BRANCH  13  20
HETATM   20  C10 UNL     1       8.558   9.065  20.913  1.00  0.00     0.331 C 
HETATM   21  N2  UNL     1       8.462   7.822  20.336  1.00  0.00    -0.383 NA
HETATM   22  O2  UNL     1       9.345   9.906  20.436  1.00  0.00    -0.253 OA
BRANCH  21  23
HETATM   23  C9  UNL     1       8.377   6.581  19.747  1.00  0.00     0.198 C 
BRANCH  23  24
HETATM   24  C8  UNL     1       7.376   6.366  18.650  1.00  0.00     0.311 C 
HETATM   25  N1  UNL     1       7.035   5.052  18.300  1.00  0.00     0.115 N 
HETATM   26  C6  UNL     1       5.741   5.517  17.898  1.00  0.00     0.314 C 
HETATM   27  C7  UNL     1       5.942   6.650  18.924  1.00  0.00     0.238 C 
HETATM   28  F1  UNL     1       5.419   6.247  20.118  1.00  0.00    -0.245 F 
BRANCH  25  29
HETATM   29  C5  UNL     1       7.158   3.955  19.167  1.00  0.00     0.367 C 
BRANCH  29  30
HETATM   30  C4  UNL     1       8.174   2.974  18.711  1.00  0.00    -0.074 C 
HETATM   31  C3  UNL     1       9.012   2.198  18.332  1.00  0.00    -0.079 C 
BRANCH  31  32
HETATM   32  C2  UNL     1      10.030   1.263  17.856  1.00  0.00     0.260 C 
BRANCH  32  33
HETATM   33  O1  UNL     1       9.502   0.524  16.804  1.00  0.00    -0.384 OA
HETATM   34  C1  UNL     1      10.321  -0.619  16.657  1.00  0.00     0.202 C 
ENDBRANCH  32  33
ENDBRANCH  31  32
ENDBRANCH  29  30
ENDBRANCH  25  29
ENDBRANCH  23  24
ENDBRANCH  21  23
ENDBRANCH  13  20
BRANCH  15  35
HETATM   35  O5  UNL     1       7.664   7.490  23.496  1.00  0.00    -0.390 OA
ATOM     36  H5  UNL     1       7.145   6.736  23.753  1.00  0.00     0.210 HD
ENDBRANCH  15  35
ENDBRANCH   1  12
TORSDOF 9
ENDMDL
MODEL 3
REMARK VINA RESULT: -7.680378510      3.184      7.274
REMARK  9 active torsions:
REMARK  status: ('A' for Active; 'I' for Inactive)
REMARK    1  A    between atoms: O1_2  and  C2_3 
REMARK    2  A    between atoms: C2_3  and  C3_4 
REMARK    3  A    between atoms: C4_5  and  C5_6 
REMARK    4  A    between atoms: C5_6  and  N1_7 
REMARK    5  A    between atoms: C8_11  and  C9_12 
REMARK    6  A    between atoms: C9_12  and  N2_13 
REMARK       I    between atoms: N2_13  and  C10_14 
REMARK    7  A    between atoms: C10_14  and  C11_16 
REMARK    8  A    between atoms: C16_22  and  C17_23 
REMARK       I    between atoms: C17_23  and  N3_25 
REMARK    9  A    between atoms: C24_34  and  O5_35 
ROOT
HETATM    1  C17 UNL     1       6.840   7.957  22.332  1.00  0.00     0.248 C 
HETATM    2  O4  UNL     1       8.008   7.719  22.599  1.00  0.00    -0.271 OA
HETATM    3  N3  UNL     1       5.849   8.142  23.348  1.00  0.00    -0.316 N 
HETATM    4  C18 UNL     1       6.135   8.105  24.764  1.00  0.00     0.196 C 
HETATM    5  C19 UNL     1       7.476   8.623  25.057  1.00  0.00     0.085 C 
HETATM    6  N4  UNL     1       8.528   9.004  25.285  1.00  0.00    -0.195 NA
HETATM    7  C20 UNL     1       5.079   9.003  25.379  1.00  0.00     0.043 C 
HETATM    8  C21 UNL     1       4.172   9.448  24.249  1.00  0.00     0.043 C 
HETATM    9  C22 UNL     1       4.447   8.387  23.212  1.00  0.00     0.196 C 
HETATM   10  C23 UNL     1       3.734   7.164  23.650  1.00  0.00     0.085 C 
HETATM   11  N5  UNL     1       3.167   6.214  23.969  1.00  0.00    -0.195 NA
ENDROOT
BRANCH   1  12
HETATM   12  C16 UNL     1       6.352   8.072  20.878  1.00  0.00     0.165 A 
HETATM   13  C11 UNL     1       7.350   7.498  19.783  1.00  0.00     0.212 A 
HETATM   14  O3  UNL     1       8.180   8.473  19.744  1.00  0.00    -0.365 OA
HETATM   15  C24 UNL     1       6.367   6.751  20.488  1.00  0.00     0.198 A 
HETATM   16  C12 UNL     1       8.327   9.600  19.106  1.00  0.00     0.170 C 
HETATM   17  C13 UNL     1       7.351  10.717  18.936  1.00  0.00     0.037 C 
HETATM   18  C14 UNL     1       6.092  10.635  19.824  1.00  0.00     0.083 C 
HETATM   19  C15 UNL     1       6.039   9.374  20.455  1.00  0.00    -0.157 C 
BRANCH  13  20
HETATM   20  C10 UNL     1       6.914   7.269  18.369  1.00  0.00     0.331 C 
HETATM   21  N2  UNL     1       7.229   6.043  17.835  1.00  0.00    -0.383 NA
HETATM   22  O2  UNL     1       6.301   8.104  17.673  1.00  0.00    -0.253 OA
BRANCH  21  23
HETATM   23  C9  UNL     1       7.538   4.819  17.288  1.00  0.00     0.198 C 
BRANCH  23  24
HETATM   24  C8  UNL     1       8.759   4.095  17.774  1.00  0.00     0.311 C 
HETATM   25  N1  UNL     1       8.590   2.959  18.579  1.00  0.00     0.115 N 
HETATM   26  C6  UNL     1       9.826   2.441  18.072  1.00  0.00     0.314 C 
HETATM   27  C7  UNL     1       9.537   3.276  16.807  1.00  0.00     0.238 C 
HETATM   28  F1  UNL     1       8.853   2.495  15.923  1.00  0.00    -0.245 F 
BRANCH  25  29
HETATM   29  C5  UNL     1       7.433   2.165  18.578  1.00  0.00     0.367 C 
BRANCH  29  30
HETATM   30  C4  UNL     1       6.558   2.425  19.749  1.00  0.00    -0.074 C 
HETATM   31  C3  UNL     1       5.839   2.614  20.695  1.00  0.00    -0.079 C 
BRANCH  31  32
HETATM   32  C2  UNL     1       4.951   2.837  21.836  1.00  0.00     0.260 C 
BRANCH  32  33
HETATM   33  O1  UNL     1       4.545   4.166  21.833  1.00  0.00    -0.384 OA
HETATM   34  C1  UNL     1       3.464   4.259  20.926  1.00  0.00     0.202 C 
ENDBRANCH  32  33
ENDBRANCH  31  32
ENDBRANCH  29  30
ENDBRANCH  25  29
ENDBRANCH  23  24
ENDBRANCH  21  23
ENDBRANCH  13  20
BRANCH  15  35
HETATM   35  O5  UNL     1       6.982   5.648  21.073  1.00  0.00    -0.390 OA
ATOM     36  H5  UNL     1       7.013   5.781  22.014  1.00  0.00     0.210 HD
ENDBRANCH  15  35
ENDBRANCH   1  12
TORSDOF 9
ENDMDL
MODEL 4
REMARK VINA RESULT: -7.523019941      2.990      4.864
REMARK  9 active torsions:
REMARK  status: ('A' for Active; 'I' for Inactive)
REMARK    1  A    between atoms: O1_2  and  C2_3 
REMARK    2  A    between atoms: C2_3  and  C3_4 
REMARK    3  A    between atoms: C4_5  and  C5_6 
REMARK    4  A    between atoms: C5_6  and  N1_7 
REMARK    5  A    between atoms: C8_11  and  C9_12 
REMARK    6  A    between atoms: C9_12  and  N2_13 
REMARK       I    between atoms: N2_13  and  C10_14 
REMARK    7  A    between atoms: C10_14  and  C11_16 
REMARK    8  A    between atoms: C16_22  and  C17_23 
REMARK       I    between atoms: C17_23  and  N3_25 
REMARK    9  A    between atoms: C24_34  and  O5_35 
ROOT
HETATM    1  C17 UNL     1       7.006   5.865  18.805  1.00  0.00     0.248 C 
HETATM    2  O4  UNL     1       7.587   6.013  17.740  1.00  0.00    -0.271 OA
HETATM    3  N3  UNL     1       6.715   4.570  19.340  1.00  0.00    -0.316 N 
HETATM    4  C18 UNL     1       7.107   3.333  18.704  1.00  0.00     0.196 C 
HETATM    5  C19 UNL     1       8.381   3.474  17.989  1.00  0.00     0.085 C 
HETATM    6  N4  UNL     1       9.360   3.588  17.414  1.00  0.00    -0.195 NA
HETATM    7  C20 UNL     1       7.256   2.356  19.855  1.00  0.00     0.043 C 
HETATM    8  C21 UNL     1       6.846   3.097  21.112  1.00  0.00     0.043 C 
HETATM    9  C22 UNL     1       6.018   4.221  20.538  1.00  0.00     0.196 C 
HETATM   10  C23 UNL     1       4.715   3.637  20.144  1.00  0.00     0.085 C 
HETATM   11  N5  UNL     1       3.690   3.199  19.854  1.00  0.00    -0.195 NA
ENDROOT
BRANCH   1  12
HETATM   12  C16 UNL     1       6.543   7.067  19.644  1.00  0.00     0.165 A 
HETATM   13  C11 UNL     1       6.352   8.423  18.837  1.00  0.00     0.212 A 
HETATM   14  O3  UNL     1       7.582   8.768  18.741  1.00  0.00    -0.365 OA
HETATM   15  C24 UNL     1       5.372   7.406  19.001  1.00  0.00     0.198 A 
HETATM   16  C12 UNL     1       8.459   9.446  19.426  1.00  0.00     0.170 C 
HETATM   17  C13 UNL     1       8.845   9.300  20.861  1.00  0.00     0.037 C 
HETATM   18  C14 UNL     1       8.313   8.034  21.563  1.00  0.00     0.083 C 
HETATM   19  C15 UNL     1       7.372   7.390  20.731  1.00  0.00    -0.157 C 
BRANCH  13  20
HETATM   20  C10 UNL     1       5.639   9.596  19.435  1.00  0.00     0.331 C 
HETATM   21  N2  UNL     1       5.125   9.407  20.695  1.00  0.00    -0.383 NA
HETATM   22  O2  UNL     1       5.492  10.698  18.869  1.00  0.00    -0.253 OA
BRANCH  21  23
HETATM   23  C9  UNL     1       4.604   9.232  21.956  1.00  0.00     0.198 C 
BRANCH  23  24
HETATM   24  C8  UNL     1       4.153   7.862  22.370  1.00  0.00     0.311 C 
HETATM   25  N1  UNL     1       4.524   7.387  23.637  1.00  0.00     0.115 N 
HETATM   26  C6  UNL     1       3.331   6.595  23.666  1.00  0.00     0.314 C 
HETATM   27  C7  UNL     1       2.724   7.659  22.729  1.00  0.00     0.238 C 
HETATM   28  F1  UNL     1       2.108   8.604  23.495  1.00  0.00    -0.245 F 
BRANCH  25  29
HETATM   29  C5  UNL     1       4.852   8.219  24.719  1.00  0.00     0.367 C 
BRANCH  29  30
HETATM   30  C4  UNL     1       6.317   8.403  24.877  1.00  0.00    -0.074 C 
HETATM   31  C3  UNL     1       7.502   8.572  24.992  1.00  0.00    -0.079 C 
BRANCH  31  32
HETATM   32  C2  UNL     1       8.944   8.781  25.114  1.00  0.00     0.260 C 
BRANCH  32  33
HETATM   33  O1  UNL     1       9.521   7.624  25.624  1.00  0.00    -0.384 OA
HETATM   34  C1  UNL     1      10.640   8.030  26.389  1.00  0.00     0.202 C 
ENDBRANCH  32  33
ENDBRANCH  31  32
ENDBRANCH  29  30
ENDBRANCH  25  29
ENDBRANCH  23  24
ENDBRANCH  21  23
ENDBRANCH  13  20
BRANCH  15  35
HETATM   35  O5  UNL     1       4.899   7.038  17.745  1.00  0.00    -0.390 OA
ATOM     36  H5  UNL     1       4.225   6.377  17.856  1.00  0.00     0.210 HD
ENDBRANCH  15  35
ENDBRANCH   1  12
TORSDOF 9
ENDMDL
MODEL 5
REMARK VINA RESULT: -7.519951793      4.210      8.013
REMARK  9 active torsions:
REMARK  status: ('A' for Active; 'I' for Inactive)
REMARK    1  A    between atoms: O1_2  and  C2_3 
REMARK    2  A    between atoms: C2_3  and  C3_4 
REMARK    3  A    between atoms: C4_5  and  C5_6 
REMARK    4  A    between atoms: C5_6  and  N1_7 
REMARK    5  A    between atoms: C8_11  and  C9_12 
REMARK    6  A    between atoms: C9_12  and  N2_13 
REMARK       I    between atoms: N2_13  and  C10_14 
REMARK    7  A    between atoms: C10_14  and  C11_16 
REMARK    8  A    between atoms: C16_22  and  C17_23 
REMARK       I    between atoms: C17_23  and  N3_25 
REMARK    9  A    between atoms: C24_34  and  O5_35 
ROOT
HETATM    1  C17 UNL     1       6.356   6.814  20.703  1.00  0.00     0.248 C 
HETATM    2  O4  UNL     1       5.140   6.769  20.596  1.00  0.00    -0.271 OA
HETATM    3  N3  UNL     1       7.013   7.795  21.512  1.00  0.00    -0.316 N 
HETATM    4  C18 UNL     1       6.314   8.785  22.299  1.00  0.00     0.196 C 
HETATM    5  C19 UNL     1       5.037   8.269  22.805  1.00  0.00     0.085 C 
HETATM    6  N4  UNL     1       4.033   7.877  23.180  1.00  0.00    -0.195 NA
HETATM    7  C20 UNL     1       7.256   9.077  23.451  1.00  0.00     0.043 C 
HETATM    8  C21 UNL     1       8.514   8.270  23.200  1.00  0.00     0.043 C 
HETATM    9  C22 UNL     1       8.411   8.011  21.717  1.00  0.00     0.196 C 
HETATM   10  C23 UNL     1       8.773   9.276  21.035  1.00  0.00     0.085 C 
HETATM   11  N5  UNL     1       9.073  10.246  20.492  1.00  0.00    -0.195 NA
ENDROOT
BRANCH   1  12
HETATM   12  C16 UNL     1       7.268   5.818  19.969  1.00  0.00     0.165 A 
HETATM   13  C11 UNL     1       6.834   5.474  18.480  1.00  0.00     0.212 A 
HETATM   14  O3  UNL     1       5.885   4.653  18.737  1.00  0.00    -0.365 OA
HETATM   15  C24 UNL     1       7.655   6.564  18.878  1.00  0.00     0.198 A 
HETATM   16  C12 UNL     1       5.732   3.375  18.943  1.00  0.00     0.170 C 
HETATM   17  C13 UNL     1       6.459   2.484  19.896  1.00  0.00     0.037 C 
HETATM   18  C14 UNL     1       7.337   3.209  20.938  1.00  0.00     0.083 C 
HETATM   19  C15 UNL     1       7.432   4.578  20.608  1.00  0.00    -0.157 C 
BRANCH  13  20
HETATM   20  C10 UNL     1       7.755   4.759  17.540  1.00  0.00     0.331 C 
HETATM   21  N2  UNL     1       7.213   4.390  16.333  1.00  0.00    -0.383 NA
HETATM   22  O2  UNL     1       8.948   4.489  17.787  1.00  0.00    -0.253 OA
BRANCH  21  23
HETATM   23  C9  UNL     1       6.682   4.016  15.120  1.00  0.00     0.198 C 
BRANCH  23  24
HETATM   24  C8  UNL     1       5.326   4.526  14.733  1.00  0.00     0.311 C 
HETATM   25  N1  UNL     1       5.244   5.640  13.884  1.00  0.00     0.115 N 
HETATM   26  C6  UNL     1       3.993   5.146  13.391  1.00  0.00     0.314 C 
HETATM   27  C7  UNL     1       4.518   3.743  13.759  1.00  0.00     0.238 C 
HETATM   28  F1  UNL     1       5.148   3.220  12.669  1.00  0.00    -0.245 F 
BRANCH  25  29
HETATM   29  C5  UNL     1       6.260   6.020  12.993  1.00  0.00     0.367 C 
BRANCH  29  30
HETATM   30  C4  UNL     1       6.581   7.467  13.073  1.00  0.00    -0.074 C 
HETATM   31  C3  UNL     1       6.858   8.635  13.155  1.00  0.00    -0.079 C 
BRANCH  31  32
HETATM   32  C2  UNL     1       7.194  10.053  13.272  1.00  0.00     0.260 C 
BRANCH  32  33
HETATM   33  O1  UNL     1       8.540  10.167  13.598  1.00  0.00    -0.384 OA
HETATM   34  C1  UNL     1       9.265  10.028  12.392  1.00  0.00     0.202 C 
ENDBRANCH  32  33
ENDBRANCH  31  32
ENDBRANCH  29  30
ENDBRANCH  25  29
ENDBRANCH  23  24
ENDBRANCH  21  23
ENDBRANCH  13  20
BRANCH  15  35
HETATM   35  O5  UNL     1       7.118   7.738  18.357  1.00  0.00    -0.390 OA
ATOM     36  H5  UNL     1       7.145   8.409  19.029  1.00  0.00     0.210 HD
ENDBRANCH  15  35
ENDBRANCH   1  12
TORSDOF 9
ENDMDL
