MODEL 1
REMARK VINA RESULT: -8.875034323      0.000      0.000
REMARK  10 active torsions:
REMARK  status: ('A' for Active; 'I' for Inactive)
REMARK    1  A    between atoms: C3_3  and  N1_4 
REMARK    2  A    between atoms: C8_13  and  O3_14 
REMARK    3  A    between atoms: C9_16  and  O4_17 
REMARK    4  A    between atoms: O4_17  and  C10_18 
REMARK    5  A    between atoms: C12_21  and  O6_22 
REMARK    6  A    between atoms: C14_24  and  O7_25 
REMARK    7  A    between atoms: O7_25  and  C15_26 
REMARK    8  A    between atoms: C15_26  and  C16_27 
REMARK    9  A    between atoms: C17_28  and  C18_29 
REMARK   10  A    between atoms: C24_36  and  C25_37 
ROOT
HETATM    1  C1  UNL     1       4.633   9.896  25.160  1.00  0.00     0.100 C 
HETATM    2  C2  UNL     1       4.639   9.125  24.205  1.00  0.00    -0.148 C 
HETATM    3  C3  UNL     1       4.614   8.172  23.020  1.00  0.00     0.147 C 
HETATM    4  C8  UNL     1       6.006   7.516  23.148  1.00  0.00     0.195 C 
HETATM    5  C9  UNL     1       7.013   8.629  23.131  1.00  0.00     0.196 C 
HETATM    6  C12 UNL     1       6.933   9.382  21.853  1.00  0.00     0.186 C 
HETATM    7  C14 UNL     1       5.782   9.062  20.983  1.00  0.00     0.186 C 
HETATM    8  C24 UNL     1       4.476   8.888  21.774  1.00  0.00    -0.007 C 
ENDROOT
BRANCH   3   9
HETATM    9  N1  UNL     1       3.596   7.230  23.430  1.00  0.00    -0.283 N 
HETATM   10  C4  UNL     1       2.617   7.564  24.273  1.00  0.00     0.103 A 
HETATM   11  C5  UNL     1       1.625   6.677  24.632  1.00  0.00     0.092 A 
HETATM   12  C6  UNL     1       1.625   5.384  24.109  1.00  0.00     0.250 A 
HETATM   13  O1  UNL     1       0.763   4.521  24.384  1.00  0.00    -0.268 OA
HETATM   14  N2  UNL     1       2.628   5.100  23.270  1.00  0.00    -0.275 N 
HETATM   15  C7  UNL     1       3.595   5.973  22.924  1.00  0.00     0.331 A 
ATOM     16  H2  UNL     1       2.662   4.164  22.867  1.00  0.00     0.173 HD
HETATM   17  O2  UNL     1       4.463   5.543  22.123  1.00  0.00    -0.246 OA
ENDBRANCH   3   9
BRANCH   4  18
HETATM   18  O3  UNL     1       6.096   6.966  24.445  1.00  0.00    -0.389 OA
ATOM     19  H3  UNL     1       6.975   7.132  24.763  1.00  0.00     0.210 HD
ENDBRANCH   4  18
BRANCH   8  20
HETATM   20  C25 UNL     1       3.455   8.638  20.765  1.00  0.00    -0.001 C 
HETATM   21  C26 UNL     1       2.215   8.973  20.623  1.00  0.00     0.011 C 
ENDBRANCH   8  20
BRANCH   5  22
HETATM   22  O4  UNL     1       8.297   8.021  23.314  1.00  0.00    -0.311 OA
BRANCH  22  23
HETATM   23  C10 UNL     1       9.118   8.426  24.333  1.00  0.00     0.255 C 
HETATM   24  C11 UNL     1      10.096   9.561  24.189  1.00  0.00     0.126 C 
HETATM   25  O5  UNL     1       9.047   7.818  25.439  1.00  0.00    -0.266 OA
ENDBRANCH  22  23
ENDBRANCH   5  22
BRANCH   7  26
HETATM   26  O7  UNL     1       6.051   7.939  20.224  1.00  0.00    -0.367 OA
BRANCH  26  27
HETATM   27  C15 UNL     1       7.194   7.952  19.486  1.00  0.00     0.262 C 
BRANCH  27  28
HETATM   28  C16 UNL     1       7.637   6.608  19.214  1.00  0.00    -0.075 C 
HETATM   29  C17 UNL     1       8.025   5.498  18.971  1.00  0.00    -0.065 C 
BRANCH  29  30
HETATM   30  C18 UNL     1       8.512   4.179  18.674  1.00  0.00     0.018 A 
HETATM   31  C19 UNL     1       9.613   3.984  17.841  1.00  0.00     0.024 A 
HETATM   32  C20 UNL     1      10.094   2.725  17.544  1.00  0.00     0.044 A 
HETATM   33  C21 UNL     1       9.485   1.603  18.077  1.00  0.00     0.116 A 
HETATM   34  F1  UNL     1       9.950   0.357  17.794  1.00  0.00    -0.206 F 
HETATM   35  C22 UNL     1       8.392   1.786  18.906  1.00  0.00     0.044 A 
HETATM   36  C23 UNL     1       7.915   3.051  19.197  1.00  0.00     0.024 A 
ENDBRANCH  29  30
ENDBRANCH  27  28
ENDBRANCH  26  27
ENDBRANCH   7  26
BRANCH   6  37
HETATM   37  O6  UNL     1       6.964  10.759  22.186  1.00  0.00    -0.385 OA
HETATM   38  C13 UNL     1       7.274  11.564  21.122  1.00  0.00     0.202 C 
ENDBRANCH   6  37
TORSDOF 10
ENDMDL
MODEL 2
REMARK VINA RESULT: -8.453548090      0.890      1.243
REMARK  10 active torsions:
REMARK  status: ('A' for Active; 'I' for Inactive)
REMARK    1  A    between atoms: C3_3  and  N1_4 
REMARK    2  A    between atoms: C8_13  and  O3_14 
REMARK    3  A    between atoms: C9_16  and  O4_17 
REMARK    4  A    between atoms: O4_17  and  C10_18 
REMARK    5  A    between atoms: C12_21  and  O6_22 
REMARK    6  A    between atoms: C14_24  and  O7_25 
REMARK    7  A    between atoms: O7_25  and  C15_26 
REMARK    8  A    between atoms: C15_26  and  C16_27 
REMARK    9  A    between atoms: C17_28  and  C18_29 
REMARK   10  A    between atoms: C24_36  and  C25_37 
ROOT
HETATM    1  C1  UNL     1       3.900   9.552  24.672  1.00  0.00     0.100 C 
HETATM    2  C2  UNL     1       4.073   8.750  23.759  1.00  0.00    -0.148 C 
HETATM    3  C3  UNL     1       4.257   7.749  22.628  1.00  0.00     0.147 C 
HETATM    4  C8  UNL     1       5.763   7.438  22.758  1.00  0.00     0.195 C 
HETATM    5  C9  UNL     1       6.487   8.751  22.659  1.00  0.00     0.196 C 
HETATM    6  C12 UNL     1       6.222   9.390  21.344  1.00  0.00     0.186 C 
HETATM    7  C14 UNL     1       5.166   8.765  20.520  1.00  0.00     0.186 C 
HETATM    8  C24 UNL     1       3.945   8.342  21.349  1.00  0.00    -0.007 C 
ENDROOT
BRANCH   3   9
HETATM    9  N1  UNL     1       3.487   6.624  23.112  1.00  0.00    -0.283 N 
HETATM   10  C4  UNL     1       2.472   6.772  23.965  1.00  0.00     0.103 A 
HETATM   11  C5  UNL     1       1.715   5.703  24.394  1.00  0.00     0.092 A 
HETATM   12  C6  UNL     1       2.001   4.417  23.934  1.00  0.00     0.250 A 
HETATM   13  O1  UNL     1       1.363   3.397  24.275  1.00  0.00    -0.268 OA
HETATM   14  N2  UNL     1       3.028   4.325  23.082  1.00  0.00    -0.275 N 
HETATM   15  C7  UNL     1       3.764   5.375  22.667  1.00  0.00     0.331 A 
ATOM     16  H2  UNL     1       3.269   3.401  22.723  1.00  0.00     0.173 HD
HETATM   17  O2  UNL     1       4.694   5.111  21.863  1.00  0.00    -0.246 OA
ENDBRANCH   3   9
BRANCH   4  18
HETATM   18  O3  UNL     1       5.991   7.000  24.080  1.00  0.00    -0.389 OA
ATOM     19  H3  UNL     1       5.415   7.496  24.648  1.00  0.00     0.210 HD
ENDBRANCH   4  18
BRANCH   8  20
HETATM   20  C25 UNL     1       2.998   7.806  20.378  1.00  0.00    -0.001 C 
HETATM   21  C26 UNL     1       1.714   7.854  20.239  1.00  0.00     0.011 C 
ENDBRANCH   8  20
BRANCH   5  22
HETATM   22  O4  UNL     1       7.878   8.464  22.844  1.00  0.00    -0.311 OA
BRANCH  22  23
HETATM   23  C10 UNL     1       8.631   9.214  23.708  1.00  0.00     0.255 C 
HETATM   24  C11 UNL     1       9.047   8.718  25.067  1.00  0.00     0.126 C 
HETATM   25  O5  UNL     1       8.988  10.370  23.345  1.00  0.00    -0.266 OA
ENDBRANCH  22  23
ENDBRANCH   5  22
BRANCH   7  26
HETATM   26  O7  UNL     1       5.679   7.692  19.815  1.00  0.00    -0.367 OA
BRANCH  26  27
HETATM   27  C15 UNL     1       6.956   7.806  19.360  1.00  0.00     0.262 C 
BRANCH  27  28
HETATM   28  C16 UNL     1       7.525   6.505  19.115  1.00  0.00    -0.075 C 
HETATM   29  C17 UNL     1       7.984   5.419  18.890  1.00  0.00    -0.065 C 
BRANCH  29  30
HETATM   30  C18 UNL     1       8.526   4.120  18.597  1.00  0.00     0.018 A 
HETATM   31  C19 UNL     1       7.971   2.964  19.143  1.00  0.00     0.024 A 
HETATM   32  C20 UNL     1       8.478   1.709  18.874  1.00  0.00     0.044 A 
HETATM   33  C21 UNL     1       9.571   1.564  18.038  1.00  0.00     0.116 A 
HETATM   34  F1  UNL     1      10.080   0.333  17.763  1.00  0.00    -0.206 F 
HETATM   35  C22 UNL     1      10.129   2.706  17.490  1.00  0.00     0.044 A 
HETATM   36  C23 UNL     1       9.615   3.960  17.766  1.00  0.00     0.024 A 
ENDBRANCH  29  30
ENDBRANCH  27  28
ENDBRANCH  26  27
ENDBRANCH   7  26
BRANCH   6  37
HETATM   37  O6  UNL     1       5.938  10.754  21.602  1.00  0.00    -0.385 OA
HETATM   38  C13 UNL     1       6.196  11.570  20.533  1.00  0.00     0.202 C 
ENDBRANCH   6  37
TORSDOF 10
ENDMDL
MODEL 3
REMARK VINA RESULT: -8.036344354      1.156      1.290
REMARK  10 active torsions:
REMARK  status: ('A' for Active; 'I' for Inactive)
REMARK    1  A    between atoms: C3_3  and  N1_4 
REMARK    2  A    between atoms: C8_13  and  O3_14 
REMARK    3  A    between atoms: C9_16  and  O4_17 
REMARK    4  A    between atoms: O4_17  and  C10_18 
REMARK    5  A    between atoms: C12_21  and  O6_22 
REMARK    6  A    between atoms: C14_24  and  O7_25 
REMARK    7  A    between atoms: O7_25  and  C15_26 
REMARK    8  A    between atoms: C15_26  and  C16_27 
REMARK    9  A    between atoms: C17_28  and  C18_29 
REMARK   10  A    between atoms: C24_36  and  C25_37 
ROOT
HETATM    1  C1  UNL     1       3.797   9.572  24.517  1.00  0.00     0.100 C 
HETATM    2  C2  UNL     1       3.886   8.759  23.602  1.00  0.00    -0.148 C 
HETATM    3  C3  UNL     1       3.965   7.746  22.471  1.00  0.00     0.147 C 
HETATM    4  C8  UNL     1       5.463   7.377  22.517  1.00  0.00     0.195 C 
HETATM    5  C9  UNL     1       6.231   8.659  22.366  1.00  0.00     0.196 C 
HETATM    6  C12 UNL     1       5.916   9.302  21.064  1.00  0.00     0.186 C 
HETATM    7  C14 UNL     1       4.791   8.714  20.306  1.00  0.00     0.186 C 
HETATM    8  C24 UNL     1       3.604   8.344  21.207  1.00  0.00    -0.007 C 
ENDROOT
BRANCH   3   9
HETATM    9  N1  UNL     1       3.181   6.655  23.006  1.00  0.00    -0.283 N 
HETATM   10  C4  UNL     1       2.195   6.852  23.883  1.00  0.00     0.103 A 
HETATM   11  C5  UNL     1       1.423   5.816  24.362  1.00  0.00     0.092 A 
HETATM   12  C6  UNL     1       1.662   4.512  23.929  1.00  0.00     0.250 A 
HETATM   13  O1  UNL     1       1.009   3.518  24.314  1.00  0.00    -0.268 OA
HETATM   14  N2  UNL     1       2.662   4.369  23.051  1.00  0.00    -0.275 N 
HETATM   15  C7  UNL     1       3.413   5.388  22.588  1.00  0.00     0.331 A 
ATOM     16  H2  UNL     1       2.868   3.430  22.711  1.00  0.00     0.173 HD
HETATM   17  O2  UNL     1       4.312   5.078  21.766  1.00  0.00    -0.246 OA
ENDBRANCH   3   9
BRANCH   4  18
HETATM   18  O3  UNL     1       5.749   6.936  23.827  1.00  0.00    -0.389 OA
ATOM     19  H3  UNL     1       6.183   7.650  24.278  1.00  0.00     0.210 HD
ENDBRANCH   4  18
BRANCH   8  20
HETATM   20  C25 UNL     1       2.583   7.842  20.296  1.00  0.00    -0.001 C 
HETATM   21  C26 UNL     1       1.318   7.594  20.395  1.00  0.00     0.011 C 
ENDBRANCH   8  20
BRANCH   5  22
HETATM   22  O4  UNL     1       7.618   8.319  22.474  1.00  0.00    -0.311 OA
BRANCH  22  23
HETATM   23  C10 UNL     1       8.582   9.206  22.077  1.00  0.00     0.255 C 
HETATM   24  C11 UNL     1       9.316   9.082  20.768  1.00  0.00     0.126 C 
HETATM   25  O5  UNL     1       8.865  10.169  22.846  1.00  0.00    -0.266 OA
ENDBRANCH  22  23
ENDBRANCH   5  22
BRANCH   7  26
HETATM   26  O7  UNL     1       5.220   7.618  19.582  1.00  0.00    -0.367 OA
BRANCH  26  27
HETATM   27  C15 UNL     1       6.402   7.740  18.918  1.00  0.00     0.262 C 
BRANCH  27  28
HETATM   28  C16 UNL     1       7.032   6.453  18.763  1.00  0.00    -0.075 C 
HETATM   29  C17 UNL     1       7.580   5.394  18.631  1.00  0.00    -0.065 C 
BRANCH  29  30
HETATM   30  C18 UNL     1       8.258   4.136  18.478  1.00  0.00     0.018 A 
HETATM   31  C19 UNL     1       9.491   4.051  17.833  1.00  0.00     0.024 A 
HETATM   32  C20 UNL     1      10.157   2.853  17.677  1.00  0.00     0.044 A 
HETATM   33  C21 UNL     1       9.607   1.682  18.168  1.00  0.00     0.116 A 
HETATM   34  F1  UNL     1      10.253   0.494  18.022  1.00  0.00    -0.206 F 
HETATM   35  C22 UNL     1       8.384   1.755  18.811  1.00  0.00     0.044 A 
HETATM   36  C23 UNL     1       7.723   2.961  18.962  1.00  0.00     0.024 A 
ENDBRANCH  29  30
ENDBRANCH  27  28
ENDBRANCH  26  27
ENDBRANCH   7  26
BRANCH   6  37
HETATM   37  O6  UNL     1       5.702  10.677  21.328  1.00  0.00    -0.385 OA
HETATM   38  C13 UNL     1       6.221  11.498  20.362  1.00  0.00     0.202 C 
ENDBRANCH   6  37
TORSDOF 10
ENDMDL
MODEL 4
REMARK VINA RESULT: -8.031636928      2.543      5.371
REMARK  10 active torsions:
REMARK  status: ('A' for Active; 'I' for Inactive)
REMARK    1  A    between atoms: C3_3  and  N1_4 
REMARK    2  A    between atoms: C8_13  and  O3_14 
REMARK    3  A    between atoms: C9_16  and  O4_17 
REMARK    4  A    between atoms: O4_17  and  C10_18 
REMARK    5  A    between atoms: C12_21  and  O6_22 
REMARK    6  A    between atoms: C14_24  and  O7_25 
REMARK    7  A    between atoms: O7_25  and  C15_26 
REMARK    8  A    between atoms: C15_26  and  C16_27 
REMARK    9  A    between atoms: C17_28  and  C18_29 
REMARK   10  A    between atoms: C24_36  and  C25_37 
ROOT
HETATM    1  C1  UNL     1       4.932   8.128  23.953  1.00  0.00     0.100 C 
HETATM    2  C2  UNL     1       5.629   8.147  22.943  1.00  0.00    -0.148 C 
HETATM    3  C3  UNL     1       6.516   8.156  21.708  1.00  0.00     0.147 C 
HETATM    4  C8  UNL     1       5.874   9.302  20.898  1.00  0.00     0.195 C 
HETATM    5  C9  UNL     1       4.425   8.948  20.719  1.00  0.00     0.196 C 
HETATM    6  C12 UNL     1       4.291   7.672  19.969  1.00  0.00     0.186 C 
HETATM    7  C14 UNL     1       5.541   6.911  19.757  1.00  0.00     0.186 C 
HETATM    8  C24 UNL     1       6.441   6.898  21.001  1.00  0.00    -0.007 C 
ENDROOT
BRANCH   3   9
HETATM    9  N1  UNL     1       7.776   8.601  22.261  1.00  0.00    -0.283 N 
HETATM   10  C4  UNL     1       8.086   8.432  23.548  1.00  0.00     0.103 A 
HETATM   11  C5  UNL     1       9.302   8.822  24.065  1.00  0.00     0.092 A 
HETATM   12  C6  UNL     1      10.255   9.414  23.235  1.00  0.00     0.250 A 
HETATM   13  O1  UNL     1      11.380   9.794  23.625  1.00  0.00    -0.268 OA
HETATM   14  N2  UNL     1       9.893   9.560  21.955  1.00  0.00    -0.275 N 
HETATM   15  C7  UNL     1       8.701   9.177  21.457  1.00  0.00     0.331 A 
ATOM     16  H2  UNL     1      10.563   9.989  21.316  1.00  0.00     0.173 HD
HETATM   17  O2  UNL     1       8.524   9.388  20.230  1.00  0.00    -0.246 OA
ENDBRANCH   3   9
BRANCH   4  18
HETATM   18  O3  UNL     1       5.866  10.448  21.721  1.00  0.00    -0.389 OA
ATOM     19  H3  UNL     1       6.630  10.965  21.495  1.00  0.00     0.210 HD
ENDBRANCH   4  18
BRANCH   8  20
HETATM   20  C25 UNL     1       7.581   6.068  20.633  1.00  0.00    -0.001 C 
HETATM   21  C26 UNL     1       7.839   4.803  20.686  1.00  0.00     0.011 C 
ENDBRANCH   8  20
BRANCH   5  22
HETATM   22  O4  UNL     1       3.820  10.043  20.023  1.00  0.00    -0.311 OA
BRANCH  22  23
HETATM   23  C10 UNL     1       2.710  10.662  20.534  1.00  0.00     0.255 C 
HETATM   24  C11 UNL     1       1.999  10.172  21.767  1.00  0.00     0.126 C 
HETATM   25  O5  UNL     1       2.267  11.686  19.941  1.00  0.00    -0.266 OA
ENDBRANCH  22  23
ENDBRANCH   5  22
BRANCH   7  26
HETATM   26  O7  UNL     1       6.223   7.404  18.660  1.00  0.00    -0.367 OA
BRANCH  26  27
HETATM   27  C15 UNL     1       5.998   6.790  17.467  1.00  0.00     0.262 C 
BRANCH  27  28
HETATM   28  C16 UNL     1       6.746   5.561  17.380  1.00  0.00    -0.075 C 
HETATM   29  C17 UNL     1       7.392   4.551  17.309  1.00  0.00    -0.065 C 
BRANCH  29  30
HETATM   30  C18 UNL     1       8.183   3.354  17.236  1.00  0.00     0.018 A 
HETATM   31  C19 UNL     1       7.687   2.193  16.643  1.00  0.00     0.024 A 
HETATM   32  C20 UNL     1       8.432   1.034  16.564  1.00  0.00     0.044 A 
HETATM   33  C21 UNL     1       9.715   0.994  17.081  1.00  0.00     0.116 A 
HETATM   34  F1  UNL     1      10.460  -0.141  17.009  1.00  0.00    -0.206 F 
HETATM   35  C22 UNL     1      10.216   2.141  17.671  1.00  0.00     0.044 A 
HETATM   36  C23 UNL     1       9.463   3.298  17.746  1.00  0.00     0.024 A 
ENDBRANCH  29  30
ENDBRANCH  27  28
ENDBRANCH  26  27
ENDBRANCH   7  26
BRANCH   6  37
HETATM   37  O6  UNL     1       3.321   6.896  20.650  1.00  0.00    -0.385 OA
HETATM   38  C13 UNL     1       2.106   6.877  20.017  1.00  0.00     0.202 C 
ENDBRANCH   6  37
TORSDOF 10
ENDMDL
MODEL 5
REMARK VINA RESULT: -7.987615553      3.036      5.599
REMARK  10 active torsions:
REMARK  status: ('A' for Active; 'I' for Inactive)
REMARK    1  A    between atoms: C3_3  and  N1_4 
REMARK    2  A    between atoms: C8_13  and  O3_14 
REMARK    3  A    between atoms: C9_16  and  O4_17 
REMARK    4  A    between atoms: O4_17  and  C10_18 
REMARK    5  A    between atoms: C12_21  and  O6_22 
REMARK    6  A    between atoms: C14_24  and  O7_25 
REMARK    7  A    between atoms: O7_25  and  C15_26 
REMARK    8  A    between atoms: C15_26  and  C16_27 
REMARK    9  A    between atoms: C17_28  and  C18_29 
REMARK   10  A    between atoms: C24_36  and  C25_37 
ROOT
HETATM    1  C1  UNL     1       4.488   9.652  22.671  1.00  0.00     0.100 C 
HETATM    2  C2  UNL     1       5.302   9.301  21.822  1.00  0.00    -0.148 C 
HETATM    3  C3  UNL     1       6.327   8.848  20.794  1.00  0.00     0.147 C 
HETATM    4  C8  UNL     1       6.129   9.918  19.699  1.00  0.00     0.195 C 
HETATM    5  C9  UNL     1       4.679   9.877  19.309  1.00  0.00     0.196 C 
HETATM    6  C12 UNL     1       4.325   8.539  18.769  1.00  0.00     0.186 C 
HETATM    7  C14 UNL     1       5.348   7.484  18.926  1.00  0.00     0.186 C 
HETATM    8  C24 UNL     1       6.027   7.524  20.303  1.00  0.00    -0.007 C 
ENDROOT
BRANCH   3   9
HETATM    9  N1  UNL     1       7.568   9.097  21.495  1.00  0.00    -0.283 N 
HETATM   10  C4  UNL     1       7.651   9.062  22.826  1.00  0.00     0.103 A 
HETATM   11  C5  UNL     1       8.842   9.261  23.490  1.00  0.00     0.092 A 
HETATM   12  C6  UNL     1      10.010   9.507  22.768  1.00  0.00     0.250 A 
HETATM   13  O1  UNL     1      11.127   9.697  23.294  1.00  0.00    -0.268 OA
HETATM   14  N2  UNL     1       9.871   9.533  21.438  1.00  0.00    -0.275 N 
HETATM   15  C7  UNL     1       8.702   9.338  20.795  1.00  0.00     0.331 A 
ATOM     16  H2  UNL     1      10.702   9.710  20.875  1.00  0.00     0.173 HD
HETATM   17  O2  UNL     1       8.749   9.395  19.540  1.00  0.00    -0.246 OA
ENDBRANCH   3   9
BRANCH   4  18
HETATM   18  O3  UNL     1       6.305  11.181  20.304  1.00  0.00    -0.389 OA
ATOM     19  H3  UNL     1       6.395  11.820  19.608  1.00  0.00     0.210 HD
ENDBRANCH   4  18
BRANCH   8  20
HETATM   20  C25 UNL     1       6.950   6.395  20.300  1.00  0.00    -0.001 C 
HETATM   21  C26 UNL     1       6.832   5.124  20.496  1.00  0.00     0.011 C 
ENDBRANCH   8  20
BRANCH   5  22
HETATM   22  O4  UNL     1       4.488  10.914  18.340  1.00  0.00    -0.311 OA
BRANCH  22  23
HETATM   23  C10 UNL     1       3.538  11.881  18.537  1.00  0.00     0.255 C 
HETATM   24  C11 UNL     1       2.187  11.844  17.876  1.00  0.00     0.126 C 
HETATM   25  O5  UNL     1       3.814  12.844  19.309  1.00  0.00    -0.266 OA
ENDBRANCH  22  23
ENDBRANCH   5  22
BRANCH   7  26
HETATM   26  O7  UNL     1       6.285   7.569  17.913  1.00  0.00    -0.367 OA
BRANCH  26  27
HETATM   27  C15 UNL     1       6.082   6.785  16.819  1.00  0.00     0.262 C 
BRANCH  27  28
HETATM   28  C16 UNL     1       6.841   5.564  16.923  1.00  0.00    -0.075 C 
HETATM   29  C17 UNL     1       7.495   4.560  17.002  1.00  0.00    -0.065 C 
BRANCH  29  30
HETATM   30  C18 UNL     1       8.298   3.372  17.100  1.00  0.00     0.018 A 
HETATM   31  C19 UNL     1       7.871   2.163  16.552  1.00  0.00     0.024 A 
HETATM   32  C20 UNL     1       8.628   1.012  16.636  1.00  0.00     0.044 A 
HETATM   33  C21 UNL     1       9.854   1.030  17.278  1.00  0.00     0.116 A 
HETATM   34  F1  UNL     1      10.610  -0.096  17.367  1.00  0.00    -0.206 F 
HETATM   35  C22 UNL     1      10.286   2.226  17.825  1.00  0.00     0.044 A 
HETATM   36  C23 UNL     1       9.521   3.374  17.736  1.00  0.00     0.024 A 
ENDBRANCH  29  30
ENDBRANCH  27  28
ENDBRANCH  26  27
ENDBRANCH   7  26
BRANCH   6  37
HETATM   37  O6  UNL     1       3.098   8.166  19.372  1.00  0.00    -0.385 OA
HETATM   38  C13 UNL     1       2.659   6.929  18.979  1.00  0.00     0.202 C 
ENDBRANCH   6  37
TORSDOF 10
ENDMDL
