MODEL 1
REMARK VINA RESULT: -7.647671249      0.000      0.000
REMARK  6 active torsions:
REMARK  status: ('A' for Active; 'I' for Inactive)
REMARK    1  A    between atoms: O1_2  and  C2_3 
REMARK    2  A    between atoms: C7_8  and  O2_9 
REMARK    3  A    between atoms: C9_11  and  C10_12 
REMARK    4  A    between atoms: N1_14  and  N2_15 
REMARK    5  A    between atoms: N2_15  and  C12_16 
REMARK    6  A    between atoms: N3_27  and  C20_28 
ROOT
HETATM    1  C20 UNL     1       8.524   8.454  22.624  1.00  0.00     0.256 C 
HETATM    2  C21 UNL     1       8.032   8.828  23.926  1.00  0.00     0.079 C 
HETATM    3  N4  UNL     1       7.653   9.123  24.995  1.00  0.00    -0.196 NA
ENDROOT
BRANCH   1   4
HETATM    4  N3  UNL     1       7.636   8.918  21.536  1.00  0.00    -0.299 N 
HETATM    5  C9  UNL     1       6.622   8.219  20.847  1.00  0.00     0.065 C 
HETATM    6  C5  UNL     1       6.392   8.944  19.590  1.00  0.00     0.011 A 
HETATM    7  C4  UNL     1       6.860  10.195  19.752  1.00  0.00     0.048 A 
HETATM    8  C6  UNL     1       5.698   8.608  18.411  1.00  0.00     0.054 A 
HETATM    9  C3  UNL     1       6.703  11.226  18.817  1.00  0.00     0.057 A 
HETATM   10  C22 UNL     1       7.662  10.225  21.003  1.00  0.00     0.260 C 
HETATM   11  C2  UNL     1       6.004  10.901  17.629  1.00  0.00     0.102 A 
HETATM   12  C7  UNL     1       5.532   9.581  17.492  1.00  0.00     0.102 A 
HETATM   13  O5  UNL     1       8.243  11.260  21.472  1.00  0.00    -0.267 OA
BRANCH   5  14
HETATM   14  C10 UNL     1       6.539   6.796  20.801  1.00  0.00     0.061 A 
HETATM   15  C11 UNL     1       5.633   6.057  21.512  1.00  0.00     0.148 A 
HETATM   16  N1  UNL     1       5.644   4.687  21.547  1.00  0.00    -0.198 N 
HETATM   17  C13 UNL     1       6.619   4.003  20.824  1.00  0.00     0.083 A 
HETATM   18  C14 UNL     1       6.636   2.618  20.809  1.00  0.00     0.035 A 
HETATM   19  C18 UNL     1       7.534   4.717  20.098  1.00  0.00     0.046 A 
HETATM   20  C15 UNL     1       7.578   1.958  20.056  1.00  0.00     0.021 A 
HETATM   21  C16 UNL     1       8.509   2.644  19.316  1.00  0.00     0.012 A 
HETATM   22 BR1  UNL     1       9.820   1.752  18.235  1.00  0.00    -0.051 Br
HETATM   23  C17 UNL     1       8.476   4.026  19.347  1.00  0.00     0.037 A 
HETATM   24  C19 UNL     1       7.490   6.092  20.092  1.00  0.00     0.198 A 
HETATM   25  O4  UNL     1       8.373   6.649  19.393  1.00  0.00    -0.286 OA
BRANCH  16  26
HETATM   26  N2  UNL     1       4.697   3.939  22.082  1.00  0.00    -0.290 NA
BRANCH  26  27
HETATM   27  C12 UNL     1       3.740   3.185  22.624  1.00  0.00     0.467 C 
HETATM   28  O3  UNL     1       3.248   3.156  23.811  1.00  0.00    -0.266 OA
ENDBRANCH  26  27
ENDBRANCH  16  26
ENDBRANCH   5  14
BRANCH  11  29
HETATM   29  O1  UNL     1       5.832  11.812  16.739  1.00  0.00    -0.353 OA
HETATM   30  C1  UNL     1       5.475  12.547  15.738  1.00  0.00     0.210 C 
ENDBRANCH  11  29
BRANCH  12  31
HETATM   31  O2  UNL     1       4.853   9.293  16.317  1.00  0.00    -0.353 OA
HETATM   32  C8  UNL     1       5.415   8.622  15.222  1.00  0.00     0.210 C 
ENDBRANCH  12  31
ENDBRANCH   1   4
TORSDOF 6
ENDMDL
MODEL 2
REMARK VINA RESULT: -7.575997800      2.738      5.294
REMARK  6 active torsions:
REMARK  status: ('A' for Active; 'I' for Inactive)
REMARK    1  A    between atoms: O1_2  and  C2_3 
REMARK    2  A    between atoms: C7_8  and  O2_9 
REMARK    3  A    between atoms: C9_11  and  C10_12 
REMARK    4  A    between atoms: N1_14  and  N2_15 
REMARK    5  A    between atoms: N2_15  and  C12_16 
REMARK    6  A    between atoms: N3_27  and  C20_28 
ROOT
HETATM    1  C20 UNL     1       9.038   8.672  21.824  1.00  0.00     0.256 C 
HETATM    2  C21 UNL     1       8.866   9.819  20.968  1.00  0.00     0.079 C 
HETATM    3  N4  UNL     1       8.752  10.752  20.269  1.00  0.00    -0.196 NA
ENDROOT
BRANCH   1   4
HETATM    4  N3  UNL     1       7.747   8.140  22.312  1.00  0.00    -0.299 N 
HETATM    5  C9  UNL     1       6.974   7.069  21.816  1.00  0.00     0.065 C 
HETATM    6  C5  UNL     1       5.611   7.261  22.329  1.00  0.00     0.011 A 
HETATM    7  C4  UNL     1       5.691   8.069  23.401  1.00  0.00     0.048 A 
HETATM    8  C6  UNL     1       4.376   6.673  21.991  1.00  0.00     0.054 A 
HETATM    9  C3  UNL     1       4.614   8.379  24.241  1.00  0.00     0.057 A 
HETATM   10  C22 UNL     1       7.058   8.651  23.433  1.00  0.00     0.260 C 
HETATM   11  C2  UNL     1       3.368   7.791  23.914  1.00  0.00     0.102 A 
HETATM   12  C7  UNL     1       3.321   6.954  22.782  1.00  0.00     0.102 A 
HETATM   13  O5  UNL     1       7.488   9.455  24.328  1.00  0.00    -0.267 OA
BRANCH   5  14
HETATM   14  C10 UNL     1       7.104   6.551  20.493  1.00  0.00     0.061 A 
HETATM   15  C11 UNL     1       6.521   7.111  19.390  1.00  0.00     0.148 A 
HETATM   16  N1  UNL     1       6.558   6.536  18.147  1.00  0.00    -0.198 N 
HETATM   17  C13 UNL     1       7.224   5.321  17.987  1.00  0.00     0.083 A 
HETATM   18  C14 UNL     1       7.312   4.731  16.736  1.00  0.00     0.035 A 
HETATM   19  C18 UNL     1       7.822   4.741  19.072  1.00  0.00     0.046 A 
HETATM   20  C15 UNL     1       8.009   3.556  16.588  1.00  0.00     0.021 A 
HETATM   21  C16 UNL     1       8.620   2.949  17.657  1.00  0.00     0.012 A 
HETATM   22 BR1  UNL     1       9.622   1.321  17.477  1.00  0.00    -0.051 Br
HETATM   23  C17 UNL     1       8.518   3.553  18.895  1.00  0.00     0.037 A 
HETATM   24  C19 UNL     1       7.759   5.351  20.304  1.00  0.00     0.198 A 
HETATM   25  O4  UNL     1       8.342   4.737  21.233  1.00  0.00    -0.286 OA
BRANCH  16  26
HETATM   26  N2  UNL     1       6.155   7.119  17.034  1.00  0.00    -0.290 NA
BRANCH  26  27
HETATM   27  C12 UNL     1       5.748   7.706  15.907  1.00  0.00     0.467 C 
HETATM   28  O3  UNL     1       6.327   7.860  14.770  1.00  0.00    -0.266 OA
ENDBRANCH  26  27
ENDBRANCH  16  26
ENDBRANCH   5  14
BRANCH  11  29
HETATM   29  O1  UNL     1       2.348   8.044  24.654  1.00  0.00    -0.353 OA
HETATM   30  C1  UNL     1       1.270   8.495  25.207  1.00  0.00     0.210 C 
ENDBRANCH  11  29
BRANCH  12  31
HETATM   31  O2  UNL     1       2.085   6.395  22.486  1.00  0.00    -0.353 OA
HETATM   32  C8  UNL     1       1.809   5.022  22.521  1.00  0.00     0.210 C 
ENDBRANCH  12  31
ENDBRANCH   1   4
TORSDOF 6
ENDMDL
MODEL 3
REMARK VINA RESULT: -7.401760294      2.723      5.325
REMARK  6 active torsions:
REMARK  status: ('A' for Active; 'I' for Inactive)
REMARK    1  A    between atoms: O1_2  and  C2_3 
REMARK    2  A    between atoms: C7_8  and  O2_9 
REMARK    3  A    between atoms: C9_11  and  C10_12 
REMARK    4  A    between atoms: N1_14  and  N2_15 
REMARK    5  A    between atoms: N2_15  and  C12_16 
REMARK    6  A    between atoms: N3_27  and  C20_28 
ROOT
HETATM    1  C20 UNL     1       8.615   8.655  20.901  1.00  0.00     0.256 C 
HETATM    2  C21 UNL     1       8.353   9.349  19.665  1.00  0.00     0.079 C 
HETATM    3  N4  UNL     1       8.164   9.919  18.659  1.00  0.00    -0.196 NA
ENDROOT
BRANCH   1   4
HETATM    4  N3  UNL     1       7.411   7.978  21.429  1.00  0.00    -0.299 N 
HETATM    5  C9  UNL     1       6.880   6.712  21.104  1.00  0.00     0.065 C 
HETATM    6  C5  UNL     1       5.473   6.726  21.526  1.00  0.00     0.011 A 
HETATM    7  C4  UNL     1       5.333   7.703  22.439  1.00  0.00     0.048 A 
HETATM    8  C6  UNL     1       4.389   5.868  21.254  1.00  0.00     0.054 A 
HETATM    9  C3  UNL     1       4.163   7.940  23.172  1.00  0.00     0.057 A 
HETATM   10  C22 UNL     1       6.567   8.530  22.417  1.00  0.00     0.260 C 
HETATM   11  C2  UNL     1       3.068   7.081  22.910  1.00  0.00     0.102 A 
HETATM   12  C7  UNL     1       3.249   6.072  21.944  1.00  0.00     0.102 A 
HETATM   13  O5  UNL     1       6.783   9.539  23.169  1.00  0.00    -0.267 OA
BRANCH   5  14
HETATM   14  C10 UNL     1       7.190   6.014  19.899  1.00  0.00     0.061 A 
HETATM   15  C11 UNL     1       6.715   6.365  18.665  1.00  0.00     0.148 A 
HETATM   16  N1  UNL     1       6.928   5.615  17.538  1.00  0.00    -0.198 N 
HETATM   17  C13 UNL     1       7.666   4.438  17.642  1.00  0.00     0.083 A 
HETATM   18  C14 UNL     1       7.930   3.676  16.515  1.00  0.00     0.035 A 
HETATM   19  C18 UNL     1       8.159   4.066  18.863  1.00  0.00     0.046 A 
HETATM   20  C15 UNL     1       8.696   2.540  16.627  1.00  0.00     0.021 A 
HETATM   21  C16 UNL     1       9.206   2.140  17.837  1.00  0.00     0.012 A 
HETATM   22 BR1  UNL     1      10.299   0.573  18.022  1.00  0.00    -0.051 Br
HETATM   23  C17 UNL     1       8.928   2.913  18.949  1.00  0.00     0.037 A 
HETATM   24  C19 UNL     1       7.921   4.846  19.971  1.00  0.00     0.198 A 
HETATM   25  O4  UNL     1       8.419   4.416  21.041  1.00  0.00    -0.286 OA
BRANCH  16  26
HETATM   26  N2  UNL     1       6.631   5.999  16.311  1.00  0.00    -0.290 NA
BRANCH  26  27
HETATM   27  C12 UNL     1       6.329   6.387  15.071  1.00  0.00     0.467 C 
HETATM   28  O3  UNL     1       6.850   7.279  14.306  1.00  0.00    -0.266 OA
ENDBRANCH  26  27
ENDBRANCH  16  26
ENDBRANCH   5  14
BRANCH  11  29
HETATM   29  O1  UNL     1       1.971   7.256  23.557  1.00  0.00    -0.353 OA
HETATM   30  C1  UNL     1       0.987   7.674  24.283  1.00  0.00     0.210 C 
ENDBRANCH  11  29
BRANCH  12  31
HETATM   31  O2  UNL     1       2.157   5.248  21.708  1.00  0.00    -0.353 OA
HETATM   32  C8  UNL     1       2.126   3.876  21.990  1.00  0.00     0.210 C 
ENDBRANCH  12  31
ENDBRANCH   1   4
TORSDOF 6
ENDMDL
MODEL 4
REMARK VINA RESULT: -7.332887906      4.257      7.351
REMARK  6 active torsions:
REMARK  status: ('A' for Active; 'I' for Inactive)
REMARK    1  A    between atoms: O1_2  and  C2_3 
REMARK    2  A    between atoms: C7_8  and  O2_9 
REMARK    3  A    between atoms: C9_11  and  C10_12 
REMARK    4  A    between atoms: N1_14  and  N2_15 
REMARK    5  A    between atoms: N2_15  and  C12_16 
REMARK    6  A    between atoms: N3_27  and  C20_28 
ROOT
HETATM    1  C20 UNL     1       6.484   9.088  20.294  1.00  0.00     0.256 C 
HETATM    2  C21 UNL     1       6.669   8.235  19.148  1.00  0.00     0.079 C 
HETATM    3  N4  UNL     1       6.805   7.556  18.202  1.00  0.00    -0.196 NA
ENDROOT
BRANCH   1   4
HETATM    4  N3  UNL     1       7.327   8.679  21.438  1.00  0.00    -0.299 N 
HETATM    5  C9  UNL     1       7.002   7.870  22.547  1.00  0.00     0.065 C 
HETATM    6  C5  UNL     1       7.995   8.166  23.588  1.00  0.00     0.011 A 
HETATM    7  C4  UNL     1       9.066   8.710  22.984  1.00  0.00     0.048 A 
HETATM    8  C6  UNL     1       8.050   7.865  24.964  1.00  0.00     0.054 A 
HETATM    9  C3  UNL     1      10.274   9.006  23.629  1.00  0.00     0.057 A 
HETATM   10  C22 UNL     1       8.681   9.048  21.589  1.00  0.00     0.260 C 
HETATM   11  C2  UNL     1      10.343   8.705  25.011  1.00  0.00     0.102 A 
HETATM   12  C7  UNL     1       9.201   8.139  25.611  1.00  0.00     0.102 A 
HETATM   13  O5  UNL     1       9.461   9.570  20.723  1.00  0.00    -0.267 OA
BRANCH   5  14
HETATM   14  C10 UNL     1       5.663   7.625  22.977  1.00  0.00     0.061 A 
HETATM   15  C11 UNL     1       5.079   6.388  22.995  1.00  0.00     0.148 A 
HETATM   16  N1  UNL     1       3.758   6.187  23.297  1.00  0.00    -0.198 N 
HETATM   17  C13 UNL     1       2.962   7.289  23.607  1.00  0.00     0.083 A 
HETATM   18  C14 UNL     1       1.632   7.116  23.953  1.00  0.00     0.035 A 
HETATM   19  C18 UNL     1       3.523   8.537  23.603  1.00  0.00     0.046 A 
HETATM   20  C15 UNL     1       0.873   8.209  24.298  1.00  0.00     0.021 A 
HETATM   21  C16 UNL     1       1.405   9.474  24.305  1.00  0.00     0.012 A 
HETATM   22 BR1  UNL     1       0.378  11.017  24.806  1.00  0.00    -0.051 Br
HETATM   23  C17 UNL     1       2.733   9.625  23.954  1.00  0.00     0.037 A 
HETATM   24  C19 UNL     1       4.854   8.696  23.291  1.00  0.00     0.198 A 
HETATM   25  O4  UNL     1       5.269   9.882  23.319  1.00  0.00    -0.286 OA
BRANCH  16  26
HETATM   26  N2  UNL     1       3.199   5.006  23.485  1.00  0.00    -0.290 NA
BRANCH  26  27
HETATM   27  C12 UNL     1       2.634   3.813  23.678  1.00  0.00     0.467 C 
HETATM   28  O3  UNL     1       2.626   3.030  24.697  1.00  0.00    -0.266 OA
ENDBRANCH  26  27
ENDBRANCH  16  26
ENDBRANCH   5  14
BRANCH  11  29
HETATM   29  O1  UNL     1      11.429   8.957  25.650  1.00  0.00    -0.353 OA
HETATM   30  C1  UNL     1      12.556   8.932  26.283  1.00  0.00     0.210 C 
ENDBRANCH  11  29
BRANCH  12  31
HETATM   31  O2  UNL     1       9.298   7.857  26.967  1.00  0.00    -0.353 OA
HETATM   32  C8  UNL     1       9.982   6.756  27.499  1.00  0.00     0.210 C 
ENDBRANCH  12  31
ENDBRANCH   1   4
TORSDOF 6
ENDMDL
MODEL 5
REMARK VINA RESULT: -7.315216671      2.015      3.878
REMARK  6 active torsions:
REMARK  status: ('A' for Active; 'I' for Inactive)
REMARK    1  A    between atoms: O1_2  and  C2_3 
REMARK    2  A    between atoms: C7_8  and  O2_9 
REMARK    3  A    between atoms: C9_11  and  C10_12 
REMARK    4  A    between atoms: N1_14  and  N2_15 
REMARK    5  A    between atoms: N2_15  and  C12_16 
REMARK    6  A    between atoms: N3_27  and  C20_28 
ROOT
HETATM    1  C20 UNL     1       3.629   7.301  17.606  1.00  0.00     0.256 C 
HETATM    2  C21 UNL     1       2.580   7.334  18.594  1.00  0.00     0.079 C 
HETATM    3  N4  UNL     1       1.714   7.345  19.383  1.00  0.00    -0.196 NA
ENDROOT
BRANCH   1   4
HETATM    4  N3  UNL     1       4.836   8.034  18.046  1.00  0.00    -0.299 N 
HETATM    5  C9  UNL     1       6.059   7.532  18.538  1.00  0.00     0.065 C 
HETATM    6  C5  UNL     1       6.706   8.636  19.260  1.00  0.00     0.011 A 
HETATM    7  C4  UNL     1       6.162   9.783  18.818  1.00  0.00     0.048 A 
HETATM    8  C6  UNL     1       7.799   8.681  20.149  1.00  0.00     0.054 A 
HETATM    9  C3  UNL     1       6.611  11.061  19.174  1.00  0.00     0.057 A 
HETATM   10  C22 UNL     1       4.955   9.440  18.021  1.00  0.00     0.260 C 
HETATM   11  C2  UNL     1       7.711  11.120  20.065  1.00  0.00     0.102 A 
HETATM   12  C7  UNL     1       8.252   9.898  20.510  1.00  0.00     0.102 A 
HETATM   13  O5  UNL     1       4.201  10.289  17.438  1.00  0.00    -0.267 OA
BRANCH   5  14
HETATM   14  C10 UNL     1       6.210   6.222  19.083  1.00  0.00     0.061 A 
HETATM   15  C11 UNL     1       5.520   5.759  20.170  1.00  0.00     0.148 A 
HETATM   16  N1  UNL     1       5.764   4.542  20.751  1.00  0.00    -0.198 N 
HETATM   17  C13 UNL     1       6.757   3.726  20.214  1.00  0.00     0.083 A 
HETATM   18  C14 UNL     1       7.002   2.474  20.754  1.00  0.00     0.035 A 
HETATM   19  C18 UNL     1       7.458   4.160  19.121  1.00  0.00     0.046 A 
HETATM   20  C15 UNL     1       7.956   1.663  20.185  1.00  0.00     0.021 A 
HETATM   21  C16 UNL     1       8.676   2.070  19.089  1.00  0.00     0.012 A 
HETATM   22 BR1  UNL     1       9.995   0.951  18.257  1.00  0.00    -0.051 Br
HETATM   23  C17 UNL     1       8.417   3.323  18.567  1.00  0.00     0.037 A 
HETATM   24  C19 UNL     1       7.185   5.391  18.570  1.00  0.00     0.198 A 
HETATM   25  O4  UNL     1       7.883   5.693  17.570  1.00  0.00    -0.286 OA
BRANCH  16  26
HETATM   26  N2  UNL     1       5.016   3.993  21.690  1.00  0.00    -0.290 NA
BRANCH  26  27
HETATM   27  C12 UNL     1       4.264   3.436  22.640  1.00  0.00     0.467 C 
HETATM   28  O3  UNL     1       3.577   3.953  23.595  1.00  0.00    -0.266 OA
ENDBRANCH  26  27
ENDBRANCH  16  26
ENDBRANCH   5  14
BRANCH  11  29
HETATM   29  O1  UNL     1       8.162  12.269  20.423  1.00  0.00    -0.353 OA
HETATM   30  C1  UNL     1       8.498  13.510  20.544  1.00  0.00     0.210 C 
ENDBRANCH  11  29
BRANCH  12  31
HETATM   31  O2  UNL     1       9.328   9.988  21.383  1.00  0.00    -0.353 OA
HETATM   32  C8  UNL     1       9.450   9.248  22.567  1.00  0.00     0.210 C 
ENDBRANCH  12  31
ENDBRANCH   1   4
TORSDOF 6
ENDMDL
