MODEL 1
REMARK VINA RESULT: -7.179544547      0.000      0.000
REMARK  7 active torsions:
REMARK  status: ('A' for Active; 'I' for Inactive)
REMARK    1  A    between atoms: C3_3  and  O1_4 
REMARK    2  A    between atoms: O1_4  and  C4_5 
REMARK    3  A    between atoms: C4_5  and  C5_6 
REMARK    4  A    between atoms: C5_6  and  O2_7 
REMARK    5  A    between atoms: O2_7  and  C6_8 
REMARK    6  A    between atoms: C14_18  and  O4_19 
REMARK    7  A    between atoms: C20_28  and  C21_29 
ROOT
HETATM    1  C1  UNL     1       9.761   9.471  12.882  1.00  0.00     0.014 C 
HETATM    2  C2  UNL     1       8.588   9.232  12.958  1.00  0.00    -0.091 C 
HETATM    3  C3  UNL     1       7.151   8.923  13.049  1.00  0.00     0.260 C 
ENDROOT
BRANCH   3   4
HETATM    4  O1  UNL     1       6.922   7.995  14.066  1.00  0.00    -0.377 OA
BRANCH   4   5
HETATM    5  C4  UNL     1       6.300   6.857  13.575  1.00  0.00     0.195 C 
BRANCH   5   6
HETATM    6  C5  UNL     1       6.852   5.678  14.393  1.00  0.00     0.195 C 
BRANCH   6   7
HETATM    7  O2  UNL     1       6.511   5.908  15.676  1.00  0.00    -0.374 OA
BRANCH   7   8
HETATM    8  C6  UNL     1       6.443   4.807  16.533  1.00  0.00     0.110 A 
HETATM    9  C7  UNL     1       7.413   3.839  16.552  1.00  0.00     0.102 A 
HETATM   10  C8  UNL     1       7.308   2.421  16.927  1.00  0.00     0.149 C 
HETATM   11  C24 UNL     1       7.655   4.903  17.494  1.00  0.00     0.044 A 
HETATM   12  O3  UNL     1       6.613   1.625  16.272  1.00  0.00    -0.296 OA
HETATM   13  C9  UNL     1       8.043   1.944  18.099  1.00  0.00     0.131 C 
HETATM   14 BR1  UNL     1       9.783   2.850  18.072  1.00  0.00    -0.083 Br
HETATM   15  C10 UNL     1       7.481   2.008  19.434  1.00  0.00     0.068 C 
HETATM   16  C11 UNL     1       6.235   2.825  19.681  1.00  0.00     0.129 A 
HETATM   17  C12 UNL     1       5.213   2.147  20.567  1.00  0.00     0.047 A 
HETATM   18  C14 UNL     1       6.397   3.986  20.646  1.00  0.00     0.097 A 
HETATM   19  O6  UNL     1       5.853   3.378  18.611  1.00  0.00    -0.226 OA
HETATM   20  C13 UNL     1       5.318   3.306  21.505  1.00  0.00     0.044 A 
HETATM   21  C15 UNL     1       5.871   5.301  20.180  1.00  0.00     0.039 C 
HETATM   22  C16 UNL     1       4.533   5.312  19.518  1.00  0.00     0.012 C 
HETATM   23  C20 UNL     1       6.733   6.263  19.493  1.00  0.00     0.024 A 
HETATM   24  C17 UNL     1       4.533   5.623  18.028  1.00  0.00     0.044 C 
HETATM   25  C18 UNL     1       5.148   4.615  17.138  1.00  0.00     0.125 C 
HETATM   26  C19 UNL     1       4.189   4.383  15.934  1.00  0.00     0.052 C 
HETATM   27  O5  UNL     1       4.952   3.376  17.823  1.00  0.00    -0.226 OA
HETATM   28  C22 UNL     1       8.179   6.304  19.452  1.00  0.00     0.024 A 
HETATM   29  C23 UNL     1       7.269   6.084  18.204  1.00  0.00     0.010 A 
BRANCH  18  30
HETATM   30  O4  UNL     1       7.550   4.054  21.356  1.00  0.00    -0.386 OA
ATOM     31  H4  UNL     1       7.488   4.300  22.271  1.00  0.00     0.210 HD
ENDBRANCH  18  30
BRANCH  23  32
HETATM   32  C21 UNL     1       6.228   7.678  19.818  1.00  0.00     0.241 C 
HETATM   33  O7  UNL     1       6.401   8.014  20.966  1.00  0.00    -0.306 OA
ENDBRANCH  23  32
ENDBRANCH   7   8
ENDBRANCH   6   7
ENDBRANCH   5   6
ENDBRANCH   4   5
ENDBRANCH   3   4
TORSDOF 7
ENDMDL
MODEL 2
REMARK VINA RESULT: -7.071816002      3.268      6.444
REMARK  7 active torsions:
REMARK  status: ('A' for Active; 'I' for Inactive)
REMARK    1  A    between atoms: C3_3  and  O1_4 
REMARK    2  A    between atoms: O1_4  and  C4_5 
REMARK    3  A    between atoms: C4_5  and  C5_6 
REMARK    4  A    between atoms: C5_6  and  O2_7 
REMARK    5  A    between atoms: O2_7  and  C6_8 
REMARK    6  A    between atoms: C14_18  and  O4_19 
REMARK    7  A    between atoms: C20_28  and  C21_29 
ROOT
HETATM    1  C1  UNL     1      10.111   1.270  18.291  1.00  0.00     0.014 C 
HETATM    2  C2  UNL     1       9.033   1.569  18.724  1.00  0.00    -0.091 C 
HETATM    3  C3  UNL     1       7.712   1.928  19.268  1.00  0.00     0.260 C 
ENDROOT
BRANCH   3   4
HETATM    4  O1  UNL     1       7.857   2.579  20.493  1.00  0.00    -0.377 OA
BRANCH   4   5
HETATM    5  C4  UNL     1       6.664   2.586  21.201  1.00  0.00     0.195 C 
BRANCH   5   6
HETATM    6  C5  UNL     1       5.838   3.755  20.639  1.00  0.00     0.195 C 
BRANCH   6   7
HETATM    7  O2  UNL     1       6.584   4.865  20.802  1.00  0.00    -0.374 OA
BRANCH   7   8
HETATM    8  C6  UNL     1       6.275   5.972  20.010  1.00  0.00     0.110 A 
HETATM    9  C7  UNL     1       4.982   6.351  19.759  1.00  0.00     0.102 A 
HETATM   10  C8  UNL     1       4.428   7.076  18.607  1.00  0.00     0.149 C 
HETATM   11  C24 UNL     1       5.547   6.994  20.918  1.00  0.00     0.044 A 
HETATM   12  O3  UNL     1       4.442   6.588  17.463  1.00  0.00    -0.296 OA
HETATM   13  C9  UNL     1       3.850   8.403  18.819  1.00  0.00     0.131 C 
HETATM   14 BR1  UNL     1       2.871   8.318  20.517  1.00  0.00    -0.083 Br
HETATM   15  C10 UNL     1       4.658   9.607  18.782  1.00  0.00     0.068 C 
HETATM   16  C11 UNL     1       6.164   9.495  18.800  1.00  0.00     0.129 A 
HETATM   17  C12 UNL     1       6.867  10.418  17.829  1.00  0.00     0.047 A 
HETATM   18  C14 UNL     1       6.850  10.127  19.998  1.00  0.00     0.097 A 
HETATM   19  O6  UNL     1       6.514   8.282  18.863  1.00  0.00    -0.226 OA
HETATM   20  C13 UNL     1       7.594  11.019  18.989  1.00  0.00     0.044 A 
HETATM   21  C15 UNL     1       7.851   9.275  20.702  1.00  0.00     0.039 C 
HETATM   22  C16 UNL     1       8.807   8.498  19.861  1.00  0.00     0.012 C 
HETATM   23  C20 UNL     1       7.473   8.451  21.851  1.00  0.00     0.024 A 
HETATM   24  C17 UNL     1       8.620   6.987  19.866  1.00  0.00     0.044 C 
HETATM   25  C18 UNL     1       7.387   6.468  19.236  1.00  0.00     0.125 C 
HETATM   26  C19 UNL     1       7.781   5.276  18.315  1.00  0.00     0.052 C 
HETATM   27  O5  UNL     1       7.074   7.434  18.231  1.00  0.00    -0.226 OA
HETATM   28  C22 UNL     1       6.289   8.552  22.677  1.00  0.00     0.024 A 
HETATM   29  C23 UNL     1       6.637   7.320  21.786  1.00  0.00     0.010 A 
BRANCH  18  30
HETATM   30  O4  UNL     1       6.098  10.910  20.810  1.00  0.00    -0.386 OA
ATOM     31  H4  UNL     1       6.290  10.889  21.740  1.00  0.00     0.210 HD
ENDBRANCH  18  30
BRANCH  23  32
HETATM   32  C21 UNL     1       8.690   8.332  22.780  1.00  0.00     0.241 C 
HETATM   33  O7  UNL     1       8.526   7.590  23.720  1.00  0.00    -0.306 OA
ENDBRANCH  23  32
ENDBRANCH   7   8
ENDBRANCH   6   7
ENDBRANCH   5   6
ENDBRANCH   4   5
ENDBRANCH   3   4
TORSDOF 7
ENDMDL
MODEL 3
REMARK VINA RESULT: -7.053777453      2.583      3.816
REMARK  7 active torsions:
REMARK  status: ('A' for Active; 'I' for Inactive)
REMARK    1  A    between atoms: C3_3  and  O1_4 
REMARK    2  A    between atoms: O1_4  and  C4_5 
REMARK    3  A    between atoms: C4_5  and  C5_6 
REMARK    4  A    between atoms: C5_6  and  O2_7 
REMARK    5  A    between atoms: O2_7  and  C6_8 
REMARK    6  A    between atoms: C14_18  and  O4_19 
REMARK    7  A    between atoms: C20_28  and  C21_29 
ROOT
HETATM    1  C1  UNL     1       9.409   9.513  12.993  1.00  0.00     0.014 C 
HETATM    2  C2  UNL     1       8.699  10.285  13.576  1.00  0.00    -0.091 C 
HETATM    3  C3  UNL     1       7.816  11.223  14.289  1.00  0.00     0.260 C 
ENDROOT
BRANCH   3   4
HETATM    4  O1  UNL     1       7.270  10.607  15.416  1.00  0.00    -0.377 OA
BRANCH   4   5
HETATM    5  C4  UNL     1       5.946  10.254  15.203  1.00  0.00     0.195 C 
BRANCH   5   6
HETATM    6  C5  UNL     1       5.715   8.953  15.989  1.00  0.00     0.195 C 
BRANCH   6   7
HETATM    7  O2  UNL     1       6.198   9.163  17.229  1.00  0.00    -0.374 OA
BRANCH   7   8
HETATM    8  C6  UNL     1       5.892   8.217  18.209  1.00  0.00     0.110 A 
HETATM    9  C7  UNL     1       6.226   6.894  18.074  1.00  0.00     0.102 A 
HETATM   10  C8  UNL     1       5.582   5.706  18.652  1.00  0.00     0.149 C 
HETATM   11  C24 UNL     1       7.237   7.669  18.749  1.00  0.00     0.044 A 
HETATM   12  O3  UNL     1       4.421   5.381  18.345  1.00  0.00    -0.296 OA
HETATM   13  C9  UNL     1       6.330   4.892  19.610  1.00  0.00     0.131 C 
HETATM   14 BR1  UNL     1       8.176   4.813  18.950  1.00  0.00    -0.083 Br
HETATM   15  C10 UNL     1       6.333   5.186  21.030  1.00  0.00     0.068 C 
HETATM   16  C11 UNL     1       5.787   6.508  21.518  1.00  0.00     0.129 A 
HETATM   17  C12 UNL     1       4.913   6.401  22.749  1.00  0.00     0.047 A 
HETATM   18  C14 UNL     1       6.787   7.404  22.226  1.00  0.00     0.097 A 
HETATM   19  O6  UNL     1       5.396   7.209  20.543  1.00  0.00    -0.226 OA
HETATM   20  C13 UNL     1       5.857   7.326  23.449  1.00  0.00     0.044 A 
HETATM   21  C15 UNL     1       6.837   8.820  21.761  1.00  0.00     0.039 C 
HETATM   22  C16 UNL     1       5.537   9.515  21.526  1.00  0.00     0.012 C 
HETATM   23  C20 UNL     1       7.781   9.247  20.727  1.00  0.00     0.024 A 
HETATM   24  C17 UNL     1       5.205   9.829  20.074  1.00  0.00     0.044 C 
HETATM   25  C18 UNL     1       4.938   8.676  19.188  1.00  0.00     0.125 C 
HETATM   26  C19 UNL     1       3.655   8.988  18.363  1.00  0.00     0.052 C 
HETATM   27  O5  UNL     1       4.405   7.679  20.062  1.00  0.00    -0.226 OA
HETATM   28  C22 UNL     1       8.967   8.564  20.257  1.00  0.00     0.024 A 
HETATM   29  C23 UNL     1       7.717   8.863  19.374  1.00  0.00     0.010 A 
BRANCH  18  30
HETATM   30  O4  UNL     1       7.990   6.869  22.550  1.00  0.00    -0.386 OA
ATOM     31  H4  UNL     1       8.593   6.683  21.840  1.00  0.00     0.210 HD
ENDBRANCH  18  30
BRANCH  23  32
HETATM   32  C21 UNL     1       8.152  10.714  20.990  1.00  0.00     0.241 C 
HETATM   33  O7  UNL     1       8.934  11.178  20.194  1.00  0.00    -0.306 OA
ENDBRANCH  23  32
ENDBRANCH   7   8
ENDBRANCH   6   7
ENDBRANCH   5   6
ENDBRANCH   4   5
ENDBRANCH   3   4
TORSDOF 7
ENDMDL
MODEL 4
REMARK VINA RESULT: -6.953035752      3.428      7.284
REMARK  7 active torsions:
REMARK  status: ('A' for Active; 'I' for Inactive)
REMARK    1  A    between atoms: C3_3  and  O1_4 
REMARK    2  A    between atoms: O1_4  and  C4_5 
REMARK    3  A    between atoms: C4_5  and  C5_6 
REMARK    4  A    between atoms: C5_6  and  O2_7 
REMARK    5  A    between atoms: O2_7  and  C6_8 
REMARK    6  A    between atoms: C14_18  and  O4_19 
REMARK    7  A    between atoms: C20_28  and  C21_29 
ROOT
HETATM    1  C1  UNL     1       7.516   2.302  20.534  1.00  0.00     0.014 C 
HETATM    2  C2  UNL     1       6.504   2.340  21.177  1.00  0.00    -0.091 C 
HETATM    3  C3  UNL     1       5.268   2.400  21.974  1.00  0.00     0.260 C 
ENDROOT
BRANCH   3   4
HETATM    4  O1  UNL     1       4.599   3.601  21.736  1.00  0.00    -0.377 OA
BRANCH   4   5
HETATM    5  C4  UNL     1       3.766   3.930  22.796  1.00  0.00     0.195 C 
BRANCH   5   6
HETATM    6  C5  UNL     1       3.771   5.465  22.886  1.00  0.00     0.195 C 
BRANCH   6   7
HETATM    7  O2  UNL     1       4.308   5.915  21.735  1.00  0.00    -0.374 OA
BRANCH   7   8
HETATM    8  C6  UNL     1       4.921   7.170  21.757  1.00  0.00     0.110 A 
HETATM    9  C7  UNL     1       5.617   7.622  22.849  1.00  0.00     0.102 A 
HETATM   10  C8  UNL     1       5.858   9.001  23.295  1.00  0.00     0.149 C 
HETATM   11  C24 UNL     1       6.445   6.929  21.894  1.00  0.00     0.044 A 
HETATM   12  O3  UNL     1       4.926   9.739  23.661  1.00  0.00    -0.296 OA
HETATM   13  C9  UNL     1       7.229   9.510  23.308  1.00  0.00     0.131 C 
HETATM   14 BR1  UNL     1       8.363   8.037  23.936  1.00  0.00    -0.083 Br
HETATM   15  C10 UNL     1       7.830  10.123  22.139  1.00  0.00     0.068 C 
HETATM   16  C11 UNL     1       7.148   9.999  20.797  1.00  0.00     0.129 A 
HETATM   17  C12 UNL     1       7.126  11.279  19.991  1.00  0.00     0.047 A 
HETATM   18  C14 UNL     1       7.938   9.263  19.730  1.00  0.00     0.097 A 
HETATM   19  O6  UNL     1       6.088   9.319  20.905  1.00  0.00    -0.226 OA
HETATM   20  C13 UNL     1       7.858  10.559  18.904  1.00  0.00     0.044 A 
HETATM   21  C15 UNL     1       7.205   8.191  18.998  1.00  0.00     0.039 C 
HETATM   22  C16 UNL     1       5.812   8.490  18.552  1.00  0.00     0.012 C 
HETATM   23  C20 UNL     1       7.258   6.797  19.440  1.00  0.00     0.024 A 
HETATM   24  C17 UNL     1       4.708   7.726  19.268  1.00  0.00     0.044 C 
HETATM   25  C18 UNL     1       4.495   8.048  20.696  1.00  0.00     0.125 C 
HETATM   26  C19 UNL     1       2.966   8.225  20.929  1.00  0.00     0.052 C 
HETATM   27  O5  UNL     1       4.899   9.414  20.810  1.00  0.00    -0.226 OA
HETATM   28  C22 UNL     1       8.205   6.177  20.342  1.00  0.00     0.024 A 
HETATM   29  C23 UNL     1       6.677   6.309  20.626  1.00  0.00     0.010 A 
BRANCH  18  30
HETATM   30  O4  UNL     1       9.239   8.986  19.992  1.00  0.00    -0.386 OA
ATOM     31  H4  UNL     1       9.870   9.150  19.302  1.00  0.00     0.210 HD
ENDBRANCH  18  30
BRANCH  23  32
HETATM   32  C21 UNL     1       7.119   5.894  18.205  1.00  0.00     0.241 C 
HETATM   33  O7  UNL     1       7.902   4.974  18.174  1.00  0.00    -0.306 OA
ENDBRANCH  23  32
ENDBRANCH   7   8
ENDBRANCH   6   7
ENDBRANCH   5   6
ENDBRANCH   4   5
ENDBRANCH   3   4
TORSDOF 7
ENDMDL
MODEL 5
REMARK VINA RESULT: -6.904587284      2.999      5.339
REMARK  7 active torsions:
REMARK  status: ('A' for Active; 'I' for Inactive)
REMARK    1  A    between atoms: C3_3  and  O1_4 
REMARK    2  A    between atoms: O1_4  and  C4_5 
REMARK    3  A    between atoms: C4_5  and  C5_6 
REMARK    4  A    between atoms: C5_6  and  O2_7 
REMARK    5  A    between atoms: O2_7  and  C6_8 
REMARK    6  A    between atoms: C14_18  and  O4_19 
REMARK    7  A    between atoms: C20_28  and  C21_29 
ROOT
HETATM    1  C1  UNL     1       8.723   4.207  18.245  1.00  0.00     0.014 C 
HETATM    2  C2  UNL     1       7.790   4.574  17.586  1.00  0.00    -0.091 C 
HETATM    3  C3  UNL     1       6.640   5.032  16.789  1.00  0.00     0.260 C 
ENDROOT
BRANCH   3   4
HETATM    4  O1  UNL     1       6.677   6.420  16.645  1.00  0.00    -0.377 OA
BRANCH   4   5
HETATM    5  C4  UNL     1       5.535   6.888  16.012  1.00  0.00     0.195 C 
BRANCH   5   6
HETATM    6  C5  UNL     1       4.541   7.246  17.128  1.00  0.00     0.195 C 
BRANCH   6   7
HETATM    7  O2  UNL     1       5.214   8.008  18.012  1.00  0.00    -0.374 OA
BRANCH   7   8
HETATM    8  C6  UNL     1       4.883   7.874  19.362  1.00  0.00     0.110 A 
HETATM    9  C7  UNL     1       4.415   6.696  19.884  1.00  0.00     0.102 A 
HETATM   10  C8  UNL     1       3.545   6.472  21.048  1.00  0.00     0.149 C 
HETATM   11  C24 UNL     1       5.849   6.822  19.965  1.00  0.00     0.044 A 
HETATM   12  O3  UNL     1       2.370   6.877  21.069  1.00  0.00    -0.296 OA
HETATM   13  C9  UNL     1       4.083   5.754  22.204  1.00  0.00     0.131 C 
HETATM   14 BR1  UNL     1       5.199   4.307  21.490  1.00  0.00    -0.083 Br
HETATM   15  C10 UNL     1       4.792   6.436  23.268  1.00  0.00     0.068 C 
HETATM   16  C11 UNL     1       5.236   7.867  23.072  1.00  0.00     0.129 A 
HETATM   17  C12 UNL     1       4.996   8.761  24.268  1.00  0.00     0.047 A 
HETATM   18  C14 UNL     1       6.735   8.096  23.119  1.00  0.00     0.097 A 
HETATM   19  O6  UNL     1       4.909   8.274  21.921  1.00  0.00    -0.226 OA
HETATM   20  C13 UNL     1       6.463   9.043  24.301  1.00  0.00     0.044 A 
HETATM   21  C15 UNL     1       7.310   8.893  21.998  1.00  0.00     0.039 C 
HETATM   22  C16 UNL     1       6.573  10.121  21.577  1.00  0.00     0.012 C 
HETATM   23  C20 UNL     1       7.844   8.244  20.800  1.00  0.00     0.024 A 
HETATM   24  C17 UNL     1       5.908  10.061  20.210  1.00  0.00     0.044 C 
HETATM   25  C18 UNL     1       4.769   9.128  20.065  1.00  0.00     0.125 C 
HETATM   26  C19 UNL     1       3.620   9.880  19.332  1.00  0.00     0.052 C 
HETATM   27  O5  UNL     1       4.199   9.067  21.373  1.00  0.00    -0.226 OA
HETATM   28  C22 UNL     1       8.223   6.859  20.623  1.00  0.00     0.024 A 
HETATM   29  C23 UNL     1       7.068   7.561  19.844  1.00  0.00     0.010 A 
BRANCH  18  30
HETATM   30  O4  UNL     1       7.514   7.071  23.545  1.00  0.00    -0.386 OA
ATOM     31  H4  UNL     1       7.333   6.207  23.193  1.00  0.00     0.210 HD
ENDBRANCH  18  30
BRANCH  23  32
HETATM   32  C21 UNL     1       8.976   9.120  20.242  1.00  0.00     0.241 C 
HETATM   33  O7  UNL     1       8.957   9.247  19.040  1.00  0.00    -0.306 OA
ENDBRANCH  23  32
ENDBRANCH   7   8
ENDBRANCH   6   7
ENDBRANCH   5   6
ENDBRANCH   4   5
ENDBRANCH   3   4
TORSDOF 7
ENDMDL
