MODEL 1
REMARK VINA RESULT: -8.185748718      0.000      0.000
REMARK  6 active torsions:
REMARK  status: ('A' for Active; 'I' for Inactive)
REMARK    1  A    between atoms: O1_2  and  C2_3 
REMARK    2  A    between atoms: C5_7  and  S1_8 
REMARK    3  A    between atoms: C8_13  and  O4_14 
REMARK    4  A    between atoms: O4_14  and  C9_15 
REMARK    5  A    between atoms: C14_20  and  N1_21 
REMARK    6  A    between atoms: N1_21  and  S2_23 
ROOT
HETATM    1  C9  UNL     1       7.092   5.948  19.512  1.00  0.00     0.104 A 
HETATM    2  C10 UNL     1       7.996   4.808  19.474  1.00  0.00     0.047 A 
HETATM    3  C11 UNL     1       8.213   4.113  18.347  1.00  0.00    -0.039 A 
HETATM    4  C12 UNL     1       7.562   4.488  17.193  1.00  0.00     0.040 A 
HETATM    5  C13 UNL     1       6.706   5.554  17.197  1.00  0.00     0.050 A 
HETATM    6  C14 UNL     1       6.455   6.306  18.357  1.00  0.00     0.079 A 
HETATM    7  C17 UNL     1       7.682   3.852  15.901  1.00  0.00     0.252 C 
HETATM    8  O7  UNL     1       6.688   4.089  15.137  1.00  0.00    -0.268 OA
HETATM    9  N2  UNL     1       8.716   3.031  15.382  1.00  0.00    -0.356 N 
ATOM     10  H2  UNL     1       8.729   2.850  14.379  1.00  0.00     0.162 HD
HETATM   11  C18 UNL     1       9.764   2.430  16.206  1.00  0.00     0.132 C 
HETATM   12  C19 UNL     1       9.135   1.943  17.520  1.00  0.00    -0.028 C 
HETATM   13  C20 UNL     1      10.041   0.804  18.000  1.00  0.00     0.016 C 
HETATM   14  C21 UNL     1       7.774   1.356  17.324  1.00  0.00     0.016 C 
HETATM   15  C22 UNL     1       9.182   2.995  18.587  1.00  0.00     0.050 C 
ENDROOT
BRANCH   1  16
HETATM   16  O4  UNL     1       6.979   6.521  20.657  1.00  0.00    -0.306 OA
BRANCH  16  17
HETATM   17  C8  UNL     1       6.865   7.096  21.811  1.00  0.00     0.111 A 
HETATM   18  C2  UNL     1       5.804   7.146  22.679  1.00  0.00     0.105 A 
HETATM   19  C3  UNL     1       5.883   7.831  23.891  1.00  0.00     0.083 A 
HETATM   20  C4  UNL     1       7.022   8.484  24.274  1.00  0.00     0.140 A 
HETATM   21  F1  UNL     1       7.124   9.157  25.446  1.00  0.00    -0.204 F 
HETATM   22  C5  UNL     1       8.121   8.471  23.446  1.00  0.00     0.100 A 
HETATM   23  C7  UNL     1       8.036   7.811  22.283  1.00  0.00     0.066 A 
BRANCH  18  24
HETATM   24  O1  UNL     1       4.619   6.518  22.379  1.00  0.00    -0.353 OA
HETATM   25  C1  UNL     1       3.577   7.154  21.680  1.00  0.00     0.210 C 
ENDBRANCH  18  24
BRANCH  22  26
HETATM   26  S1  UNL     1       9.606   9.322  23.930  1.00  0.00     0.174 S 
HETATM   27  C6  UNL     1      10.152   8.787  25.526  1.00  0.00     0.167 C 
HETATM   28  O2  UNL     1      10.657   8.975  22.919  1.00  0.00    -0.223 OA
HETATM   29  O3  UNL     1       9.340  10.812  23.910  1.00  0.00    -0.223 OA
ENDBRANCH  22  26
ENDBRANCH  16  17
ENDBRANCH   1  16
BRANCH   6  30
HETATM   30  N1  UNL     1       5.555   7.400  18.211  1.00  0.00    -0.278 N 
HETATM   31  C15 UNL     1       4.164   7.088  17.959  1.00  0.00     0.169 C 
BRANCH  30  32
HETATM   32  S2  UNL     1       6.039   9.035  18.259  1.00  0.00     0.228 S 
HETATM   33  C16 UNL     1       5.383   9.801  19.759  1.00  0.00     0.186 C 
HETATM   34  O5  UNL     1       7.530   9.114  18.388  1.00  0.00    -0.206 OA
HETATM   35  O6  UNL     1       5.517   9.856  17.109  1.00  0.00    -0.206 OA
ENDBRANCH  30  32
ENDBRANCH   6  30
TORSDOF 6
ENDMDL
MODEL 2
REMARK VINA RESULT: -8.153667935      1.723      3.070
REMARK  6 active torsions:
REMARK  status: ('A' for Active; 'I' for Inactive)
REMARK    1  A    between atoms: O1_2  and  C2_3 
REMARK    2  A    between atoms: C5_7  and  S1_8 
REMARK    3  A    between atoms: C8_13  and  O4_14 
REMARK    4  A    between atoms: O4_14  and  C9_15 
REMARK    5  A    between atoms: C14_20  and  N1_21 
REMARK    6  A    between atoms: N1_21  and  S2_23 
ROOT
HETATM    1  C9  UNL     1       6.965   6.303  19.338  1.00  0.00     0.104 A 
HETATM    2  C10 UNL     1       7.899   5.190  19.420  1.00  0.00     0.047 A 
HETATM    3  C11 UNL     1       8.140   4.388  18.372  1.00  0.00    -0.039 A 
HETATM    4  C12 UNL     1       7.485   4.623  17.184  1.00  0.00     0.040 A 
HETATM    5  C13 UNL     1       6.601   5.660  17.075  1.00  0.00     0.050 A 
HETATM    6  C14 UNL     1       6.324   6.521  18.150  1.00  0.00     0.079 A 
HETATM    7  C17 UNL     1       7.629   3.861  15.965  1.00  0.00     0.252 C 
HETATM    8  O7  UNL     1       6.633   3.990  15.178  1.00  0.00    -0.268 OA
HETATM    9  N2  UNL     1       8.687   3.019  15.537  1.00  0.00    -0.356 N 
ATOM     10  H2  UNL     1       8.710   2.735  14.557  1.00  0.00     0.162 HD
HETATM   11  C18 UNL     1       9.747   2.535  16.420  1.00  0.00     0.132 C 
HETATM   12  C19 UNL     1       9.125   2.170  17.776  1.00  0.00    -0.028 C 
HETATM   13  C20 UNL     1      10.058   1.112  18.374  1.00  0.00     0.016 C 
HETATM   14  C21 UNL     1       7.781   1.528  17.639  1.00  0.00     0.016 C 
HETATM   15  C22 UNL     1       9.138   3.327  18.728  1.00  0.00     0.050 C 
ENDROOT
BRANCH   1  16
HETATM   16  O4  UNL     1       6.830   6.987  20.418  1.00  0.00    -0.306 OA
BRANCH  16  17
HETATM   17  C8  UNL     1       6.694   7.677  21.505  1.00  0.00     0.111 A 
HETATM   18  C2  UNL     1       7.601   8.440  22.193  1.00  0.00     0.105 A 
HETATM   19  C3  UNL     1       7.251   9.114  23.363  1.00  0.00     0.083 A 
HETATM   20  C4  UNL     1       5.987   9.046  23.879  1.00  0.00     0.140 A 
HETATM   21  F1  UNL     1       5.622   9.691  25.014  1.00  0.00    -0.204 F 
HETATM   22  C5  UNL     1       5.031   8.296  23.235  1.00  0.00     0.100 A 
HETATM   23  C7  UNL     1       5.376   7.652  22.111  1.00  0.00     0.066 A 
BRANCH  18  24
HETATM   24  O1  UNL     1       8.896   8.567  21.748  1.00  0.00    -0.353 OA
HETATM   25  C1  UNL     1       9.257   9.427  20.695  1.00  0.00     0.210 C 
ENDBRANCH  18  24
BRANCH  22  26
HETATM   26  S1  UNL     1       3.384   8.196  23.899  1.00  0.00     0.174 S 
HETATM   27  C6  UNL     1       2.489   9.692  23.602  1.00  0.00     0.167 C 
HETATM   28  O2  UNL     1       2.695   7.071  23.190  1.00  0.00    -0.223 OA
HETATM   29  O3  UNL     1       3.476   7.895  25.380  1.00  0.00    -0.223 OA
ENDBRANCH  22  26
ENDBRANCH  16  17
ENDBRANCH   1  16
BRANCH   6  30
HETATM   30  N1  UNL     1       5.396   7.569  17.890  1.00  0.00    -0.278 N 
HETATM   31  C15 UNL     1       4.003   7.315  18.191  1.00  0.00     0.169 C 
BRANCH  30  32
HETATM   32  S2  UNL     1       5.830   9.066  17.195  1.00  0.00     0.228 S 
HETATM   33  C16 UNL     1       4.474  10.239  17.424  1.00  0.00     0.186 C 
HETATM   34  O5  UNL     1       6.993   9.647  17.940  1.00  0.00    -0.206 OA
HETATM   35  O6  UNL     1       6.075   8.996  15.710  1.00  0.00    -0.206 OA
ENDBRANCH  30  32
ENDBRANCH   6  30
TORSDOF 6
ENDMDL
MODEL 3
REMARK VINA RESULT: -7.804773307      1.063      1.279
REMARK  6 active torsions:
REMARK  status: ('A' for Active; 'I' for Inactive)
REMARK    1  A    between atoms: O1_2  and  C2_3 
REMARK    2  A    between atoms: C5_7  and  S1_8 
REMARK    3  A    between atoms: C8_13  and  O4_14 
REMARK    4  A    between atoms: O4_14  and  C9_15 
REMARK    5  A    between atoms: C14_20  and  N1_21 
REMARK    6  A    between atoms: N1_21  and  S2_23 
ROOT
HETATM    1  C9  UNL     1       6.733   6.129  19.005  1.00  0.00     0.104 A 
HETATM    2  C10 UNL     1       7.720   5.067  19.141  1.00  0.00     0.047 A 
HETATM    3  C11 UNL     1       8.043   4.263  18.117  1.00  0.00    -0.039 A 
HETATM    4  C12 UNL     1       7.423   4.446  16.901  1.00  0.00     0.040 A 
HETATM    5  C13 UNL     1       6.491   5.433  16.742  1.00  0.00     0.050 A 
HETATM    6  C14 UNL     1       6.128   6.295  17.790  1.00  0.00     0.079 A 
HETATM    7  C17 UNL     1       7.653   3.673  15.702  1.00  0.00     0.252 C 
HETATM    8  O7  UNL     1       6.682   3.738  14.876  1.00  0.00    -0.268 OA
HETATM    9  N2  UNL     1       8.769   2.881  15.329  1.00  0.00    -0.356 N 
ATOM     10  H2  UNL     1       8.844   2.584  14.356  1.00  0.00     0.162 HD
HETATM   11  C18 UNL     1       9.818   2.467  16.260  1.00  0.00     0.132 C 
HETATM   12  C19 UNL     1       9.163   2.091  17.598  1.00  0.00    -0.028 C 
HETATM   13  C20 UNL     1      10.126   1.092  18.248  1.00  0.00     0.016 C 
HETATM   14  C21 UNL     1       7.861   1.378  17.421  1.00  0.00     0.016 C 
HETATM   15  C22 UNL     1       9.080   3.262  18.529  1.00  0.00     0.050 C 
ENDROOT
BRANCH   1  16
HETATM   16  O4  UNL     1       6.522   6.822  20.066  1.00  0.00    -0.306 OA
BRANCH  16  17
HETATM   17  C8  UNL     1       6.310   7.519  21.136  1.00  0.00     0.111 A 
HETATM   18  C2  UNL     1       5.139   7.987  21.674  1.00  0.00     0.105 A 
HETATM   19  C3  UNL     1       5.123   8.733  22.853  1.00  0.00     0.083 A 
HETATM   20  C4  UNL     1       6.273   9.031  23.529  1.00  0.00     0.140 A 
HETATM   21  F1  UNL     1       6.284   9.754  24.676  1.00  0.00    -0.204 F 
HETATM   22  C5  UNL     1       7.481   8.590  23.040  1.00  0.00     0.100 A 
HETATM   23  C7  UNL     1       7.487   7.874  21.906  1.00  0.00     0.066 A 
BRANCH  18  24
HETATM   24  O1  UNL     1       3.933   7.736  21.063  1.00  0.00    -0.353 OA
HETATM   25  C1  UNL     1       3.268   6.501  21.175  1.00  0.00     0.210 C 
ENDBRANCH  18  24
BRANCH  22  26
HETATM   26  S1  UNL     1       8.984   8.976  23.908  1.00  0.00     0.174 S 
HETATM   27  C6  UNL     1       8.919   8.396  25.578  1.00  0.00     0.167 C 
HETATM   28  O2  UNL     1      10.095   8.268  23.193  1.00  0.00    -0.223 OA
HETATM   29  O3  UNL     1       9.205  10.473  23.853  1.00  0.00    -0.223 OA
ENDBRANCH  22  26
ENDBRANCH  16  17
ENDBRANCH   1  16
BRANCH   6  30
HETATM   30  N1  UNL     1       5.158   7.288  17.476  1.00  0.00    -0.278 N 
HETATM   31  C15 UNL     1       3.780   6.861  17.362  1.00  0.00     0.169 C 
BRANCH  30  32
HETATM   32  S2  UNL     1       5.543   8.923  17.175  1.00  0.00     0.228 S 
HETATM   33  C16 UNL     1       5.643   9.187  15.389  1.00  0.00     0.186 C 
HETATM   34  O5  UNL     1       4.421   9.798  17.647  1.00  0.00    -0.206 OA
HETATM   35  O6  UNL     1       6.876   9.346  17.735  1.00  0.00    -0.206 OA
ENDBRANCH  30  32
ENDBRANCH   6  30
TORSDOF 6
ENDMDL
MODEL 4
REMARK VINA RESULT: -7.787964282      1.927      2.752
REMARK  6 active torsions:
REMARK  status: ('A' for Active; 'I' for Inactive)
REMARK    1  A    between atoms: O1_2  and  C2_3 
REMARK    2  A    between atoms: C5_7  and  S1_8 
REMARK    3  A    between atoms: C8_13  and  O4_14 
REMARK    4  A    between atoms: O4_14  and  C9_15 
REMARK    5  A    between atoms: C14_20  and  N1_21 
REMARK    6  A    between atoms: N1_21  and  S2_23 
ROOT
HETATM    1  C9  UNL     1       7.459   6.419  18.558  1.00  0.00     0.104 A 
HETATM    2  C10 UNL     1       8.446   5.356  18.677  1.00  0.00     0.047 A 
HETATM    3  C11 UNL     1       8.357   4.223  17.963  1.00  0.00    -0.039 A 
HETATM    4  C12 UNL     1       7.303   4.062  17.092  1.00  0.00     0.040 A 
HETATM    5  C13 UNL     1       6.360   5.042  16.959  1.00  0.00     0.050 A 
HETATM    6  C14 UNL     1       6.420   6.241  17.689  1.00  0.00     0.079 A 
HETATM    7  C17 UNL     1       7.059   2.911  16.252  1.00  0.00     0.252 C 
HETATM    8  O7  UNL     1       5.840   2.811  15.890  1.00  0.00    -0.268 OA
HETATM    9  N2  UNL     1       7.957   1.914  15.791  1.00  0.00    -0.356 N 
ATOM     10  H2  UNL     1       7.649   1.302  15.035  1.00  0.00     0.162 HD
HETATM   11  C18 UNL     1       9.298   1.714  16.338  1.00  0.00     0.132 C 
HETATM   12  C19 UNL     1       9.235   1.886  17.863  1.00  0.00    -0.028 C 
HETATM   13  C20 UNL     1      10.402   1.056  18.409  1.00  0.00     0.016 C 
HETATM   14  C21 UNL     1       7.987   1.315  18.456  1.00  0.00     0.016 C 
HETATM   15  C22 UNL     1       9.498   3.302  18.277  1.00  0.00     0.050 C 
ENDROOT
BRANCH   1  16
HETATM   16  O4  UNL     1       7.668   7.447  19.302  1.00  0.00    -0.306 OA
BRANCH  16  17
HETATM   17  C8  UNL     1       7.877   8.482  20.050  1.00  0.00     0.111 A 
HETATM   18  C2  UNL     1       8.019   9.805  19.718  1.00  0.00     0.105 A 
HETATM   19  C3  UNL     1       8.244  10.782  20.688  1.00  0.00     0.083 A 
HETATM   20  C4  UNL     1       8.332  10.468  22.016  1.00  0.00     0.140 A 
HETATM   21  F1  UNL     1       8.550  11.398  22.977  1.00  0.00    -0.204 F 
HETATM   22  C5  UNL     1       8.199   9.157  22.413  1.00  0.00     0.100 A 
HETATM   23  C7  UNL     1       7.983   8.225  21.474  1.00  0.00     0.066 A 
BRANCH  18  24
HETATM   24  O1  UNL     1       7.944  10.214  18.408  1.00  0.00    -0.353 OA
HETATM   25  C1  UNL     1       6.835  10.907  17.891  1.00  0.00     0.210 C 
ENDBRANCH  18  24
BRANCH  22  26
HETATM   26  S1  UNL     1       8.317   8.736  24.137  1.00  0.00     0.174 S 
HETATM   27  C6  UNL     1       9.879   9.229  24.804  1.00  0.00     0.167 C 
HETATM   28  O2  UNL     1       7.230   9.485  24.845  1.00  0.00    -0.223 OA
HETATM   29  O3  UNL     1       8.101   7.245  24.287  1.00  0.00    -0.223 OA
ENDBRANCH  22  26
ENDBRANCH  16  17
ENDBRANCH   1  16
BRANCH   6  30
HETATM   30  N1  UNL     1       5.380   7.180  17.436  1.00  0.00    -0.278 N 
HETATM   31  C15 UNL     1       5.445   7.928  16.199  1.00  0.00     0.169 C 
BRANCH  30  32
HETATM   32  S2  UNL     1       4.113   7.505  18.531  1.00  0.00     0.228 S 
HETATM   33  C16 UNL     1       3.953   6.116  19.678  1.00  0.00     0.186 C 
HETATM   34  O5  UNL     1       4.471   8.687  19.379  1.00  0.00    -0.206 OA
HETATM   35  O6  UNL     1       2.767   7.657  17.872  1.00  0.00    -0.206 OA
ENDBRANCH  30  32
ENDBRANCH   6  30
TORSDOF 6
ENDMDL
MODEL 5
REMARK VINA RESULT: -7.771564456      1.989      3.318
REMARK  6 active torsions:
REMARK  status: ('A' for Active; 'I' for Inactive)
REMARK    1  A    between atoms: O1_2  and  C2_3 
REMARK    2  A    between atoms: C5_7  and  S1_8 
REMARK    3  A    between atoms: C8_13  and  O4_14 
REMARK    4  A    between atoms: O4_14  and  C9_15 
REMARK    5  A    between atoms: C14_20  and  N1_21 
REMARK    6  A    between atoms: N1_21  and  S2_23 
ROOT
HETATM    1  C9  UNL     1       6.915   6.325  19.374  1.00  0.00     0.104 A 
HETATM    2  C10 UNL     1       7.889   5.245  19.418  1.00  0.00     0.047 A 
HETATM    3  C11 UNL     1       8.112   4.447  18.362  1.00  0.00    -0.039 A 
HETATM    4  C12 UNL     1       7.398   4.656  17.203  1.00  0.00     0.040 A 
HETATM    5  C13 UNL     1       6.476   5.663  17.131  1.00  0.00     0.050 A 
HETATM    6  C14 UNL     1       6.217   6.518  18.215  1.00  0.00     0.079 A 
HETATM    7  C17 UNL     1       7.515   3.895  15.981  1.00  0.00     0.252 C 
HETATM    8  O7  UNL     1       6.482   3.987  15.238  1.00  0.00    -0.268 OA
HETATM    9  N2  UNL     1       8.581   3.087  15.509  1.00  0.00    -0.356 N 
ATOM     10  H2  UNL     1       8.571   2.800  14.530  1.00  0.00     0.162 HD
HETATM   11  C18 UNL     1       9.694   2.642  16.347  1.00  0.00     0.132 C 
HETATM   12  C19 UNL     1       9.144   2.261  17.730  1.00  0.00    -0.028 C 
HETATM   13  C20 UNL     1      10.137   1.237  18.289  1.00  0.00     0.016 C 
HETATM   14  C21 UNL     1       7.818   1.575  17.652  1.00  0.00     0.016 C 
HETATM   15  C22 UNL     1       9.159   3.422  18.677  1.00  0.00     0.050 C 
ENDROOT
BRANCH   1  16
HETATM   16  O4  UNL     1       6.805   7.009  20.457  1.00  0.00    -0.306 OA
BRANCH  16  17
HETATM   17  C8  UNL     1       6.694   7.697  21.548  1.00  0.00     0.111 A 
HETATM   18  C2  UNL     1       7.636   8.390  22.263  1.00  0.00     0.105 A 
HETATM   19  C3  UNL     1       7.309   9.076  23.432  1.00  0.00     0.083 A 
HETATM   20  C4  UNL     1       6.033   9.090  23.922  1.00  0.00     0.140 A 
HETATM   21  F1  UNL     1       5.689   9.749  25.056  1.00  0.00    -0.204 F 
HETATM   22  C5  UNL     1       5.041   8.414  23.250  1.00  0.00     0.100 A 
HETATM   23  C7  UNL     1       5.365   7.757  22.127  1.00  0.00     0.066 A 
BRANCH  18  24
HETATM   24  O1  UNL     1       8.946   8.431  21.846  1.00  0.00    -0.353 OA
HETATM   25  C1  UNL     1       9.385   9.266  20.802  1.00  0.00     0.210 C 
ENDBRANCH  18  24
BRANCH  22  26
HETATM   26  S1  UNL     1       3.378   8.421  23.880  1.00  0.00     0.174 S 
HETATM   27  C6  UNL     1       2.350   7.306  22.969  1.00  0.00     0.167 C 
HETATM   28  O2  UNL     1       3.448   7.959  25.304  1.00  0.00    -0.223 OA
HETATM   29  O3  UNL     1       2.843   9.836  23.820  1.00  0.00    -0.223 OA
ENDBRANCH  22  26
ENDBRANCH  16  17
ENDBRANCH   1  16
BRANCH   6  30
HETATM   30  N1  UNL     1       5.244   7.533  17.993  1.00  0.00    -0.278 N 
HETATM   31  C15 UNL     1       5.672   8.722  17.287  1.00  0.00     0.169 C 
BRANCH  30  32
HETATM   32  S2  UNL     1       3.637   7.444  18.560  1.00  0.00     0.228 S 
HETATM   33  C16 UNL     1       3.233   8.974  19.434  1.00  0.00     0.186 C 
HETATM   34  O5  UNL     1       2.696   7.386  17.396  1.00  0.00    -0.206 OA
HETATM   35  O6  UNL     1       3.403   6.328  19.545  1.00  0.00    -0.206 OA
ENDBRANCH  30  32
ENDBRANCH   6  30
TORSDOF 6
ENDMDL
