MODEL 1
REMARK VINA RESULT: -7.952407829      0.000      0.000
REMARK  9 active torsions:
REMARK  status: ('A' for Active; 'I' for Inactive)
REMARK    1  A    between atoms: C3_4  and  O1_5 
REMARK    2  A    between atoms: O1_5  and  C4_6 
REMARK    3  A    between atoms: C4_6  and  C5_7 
REMARK    4  A    between atoms: C6_8  and  C7_9 
REMARK    5  A    between atoms: C7_9  and  C8_10 
REMARK    6  A    between atoms: C8_10  and  N2_11 
REMARK    7  A    between atoms: N2_11  and  C10_13 
REMARK    8  A    between atoms: C10_13  and  C11_14 
REMARK    9  A    between atoms: C11_14  and  O2_15 
ROOT
HETATM    1  C1  UNL     1       3.719   7.980  19.998  1.00  0.00     0.041 C 
HETATM    2  C2  UNL     1       4.575   7.018  19.762  1.00  0.00     0.042 C 
HETATM    3  N1  UNL     1       5.395   6.343  20.726  1.00  0.00    -0.339 N 
HETATM    4  C3  UNL     1       5.088   6.085  22.118  1.00  0.00     0.249 C 
HETATM    5  C12 UNL     1       4.479   4.696  22.205  1.00  0.00     0.229 C 
HETATM    6  O3  UNL     1       5.388   3.712  21.846  1.00  0.00    -0.346 OA
HETATM    7  C13 UNL     1       6.402   3.585  20.945  1.00  0.00     0.077 A 
HETATM    8  C14 UNL     1       6.877   2.269  20.911  1.00  0.00     0.039 A 
HETATM    9  C15 UNL     1       7.896   1.926  20.072  1.00  0.00     0.022 A 
HETATM   10  C16 UNL     1       8.455   2.879  19.262  1.00  0.00     0.011 A 
HETATM   11 BR1  UNL     1       9.881   2.392  18.095  1.00  0.00    -0.051 Br
HETATM   12  C17 UNL     1       7.978   4.190  19.298  1.00  0.00     0.031 A 
HETATM   13  C18 UNL     1       6.953   4.556  20.135  1.00  0.00     0.005 A 
HETATM   14  C19 UNL     1       6.620   5.959  20.030  1.00  0.00     0.172 C 
HETATM   15  C20 UNL     1       6.426   6.361  18.625  1.00  0.00     0.060 C 
HETATM   16  N3  UNL     1       6.883   6.567  17.456  1.00  0.00    -0.304 N 
ATOM     17  H3  UNL     1       7.856   6.418  17.191  1.00  0.00     0.171 HD
HETATM   18  C21 UNL     1       5.883   7.026  16.568  1.00  0.00     0.366 C 
HETATM   19  O4  UNL     1       6.009   7.308  15.343  1.00  0.00    -0.238 OA
HETATM   20  O5  UNL     1       4.722   7.105  17.319  1.00  0.00    -0.280 OA
HETATM   21  C22 UNL     1       4.912   6.403  18.475  1.00  0.00     0.150 C 
HETATM   22  C23 UNL     1       4.344   4.987  18.372  1.00  0.00     0.060 C 
ENDROOT
BRANCH   4  23
HETATM   23  O1  UNL     1       4.293   7.035  22.723  1.00  0.00    -0.353 OA
BRANCH  23  24
HETATM   24  C4  UNL     1       4.724   7.187  24.036  1.00  0.00     0.264 C 
BRANCH  24  25
HETATM   25  C5  UNL     1       6.103   7.596  24.131  1.00  0.00    -0.080 C 
HETATM   26  C6  UNL     1       7.255   7.936  24.234  1.00  0.00    -0.099 C 
BRANCH  26  27
HETATM   27  C7  UNL     1       8.664   8.349  24.391  1.00  0.00     0.138 C 
BRANCH  27  28
HETATM   28  C8  UNL     1       8.960   8.277  25.874  1.00  0.00     0.070 C 
BRANCH  28  29
HETATM   29  N2  UNL     1      10.253   7.810  26.185  1.00  0.00    -0.395 N 
HETATM   30  C9  UNL     1      10.400   6.975  27.324  1.00  0.00     0.148 C 
BRANCH  29  31
HETATM   31  C10 UNL     1      11.365   8.600  25.809  1.00  0.00     0.147 C 
BRANCH  31  32
HETATM   32  C11 UNL     1      12.662   7.954  26.225  1.00  0.00     0.183 C 
BRANCH  32  33
HETATM   33  O2  UNL     1      13.456   7.639  25.110  1.00  0.00    -0.399 OA
ATOM     34  H2  UNL     1      13.496   8.364  24.499  1.00  0.00     0.209 HD
ENDBRANCH  32  33
ENDBRANCH  31  32
ENDBRANCH  29  31
ENDBRANCH  28  29
ENDBRANCH  27  28
ENDBRANCH  26  27
ENDBRANCH  24  25
ENDBRANCH  23  24
ENDBRANCH   4  23
TORSDOF 9
ENDMDL
MODEL 2
REMARK VINA RESULT: -7.866587193      1.130      1.421
REMARK  9 active torsions:
REMARK  status: ('A' for Active; 'I' for Inactive)
REMARK    1  A    between atoms: C3_4  and  O1_5 
REMARK    2  A    between atoms: O1_5  and  C4_6 
REMARK    3  A    between atoms: C4_6  and  C5_7 
REMARK    4  A    between atoms: C6_8  and  C7_9 
REMARK    5  A    between atoms: C7_9  and  C8_10 
REMARK    6  A    between atoms: C8_10  and  N2_11 
REMARK    7  A    between atoms: N2_11  and  C10_13 
REMARK    8  A    between atoms: C10_13  and  C11_14 
REMARK    9  A    between atoms: C11_14  and  O2_15 
ROOT
HETATM    1  C1  UNL     1       3.521   7.828  20.105  1.00  0.00     0.041 C 
HETATM    2  C2  UNL     1       4.422   6.916  19.839  1.00  0.00     0.042 C 
HETATM    3  N1  UNL     1       5.237   6.213  20.787  1.00  0.00    -0.339 N 
HETATM    4  C3  UNL     1       4.897   5.857  22.149  1.00  0.00     0.249 C 
HETATM    5  C12 UNL     1       4.341   4.443  22.131  1.00  0.00     0.229 C 
HETATM    6  O3  UNL     1       5.299   3.519  21.742  1.00  0.00    -0.346 OA
HETATM    7  C13 UNL     1       6.346   3.487  20.869  1.00  0.00     0.077 A 
HETATM    8  C14 UNL     1       6.873   2.195  20.770  1.00  0.00     0.039 A 
HETATM    9  C15 UNL     1       7.930   1.943  19.948  1.00  0.00     0.022 A 
HETATM   10  C16 UNL     1       8.476   2.965  19.216  1.00  0.00     0.011 A 
HETATM   11 BR1  UNL     1       9.956   2.607  18.071  1.00  0.00    -0.051 Br
HETATM   12  C17 UNL     1       7.947   4.253  19.317  1.00  0.00     0.031 A 
HETATM   13  C18 UNL     1       6.882   4.527  20.140  1.00  0.00     0.005 A 
HETATM   14  C19 UNL     1       6.497   5.920  20.110  1.00  0.00     0.172 C 
HETATM   15  C20 UNL     1       6.332   6.401  18.727  1.00  0.00     0.060 C 
HETATM   16  N3  UNL     1       6.816   6.697  17.589  1.00  0.00    -0.304 N 
ATOM     17  H3  UNL     1       7.803   6.602  17.348  1.00  0.00     0.171 HD
HETATM   18  C21 UNL     1       5.827   7.173  16.698  1.00  0.00     0.366 C 
HETATM   19  O4  UNL     1       5.981   7.536  15.497  1.00  0.00    -0.238 OA
HETATM   20  O5  UNL     1       4.641   7.161  17.412  1.00  0.00    -0.280 OA
HETATM   21  C22 UNL     1       4.823   6.396  18.529  1.00  0.00     0.150 C 
HETATM   22  C23 UNL     1       4.315   4.969  18.319  1.00  0.00     0.060 C 
ENDROOT
BRANCH   4  23
HETATM   23  O1  UNL     1       4.047   6.737  22.785  1.00  0.00    -0.353 OA
BRANCH  23  24
HETATM   24  C4  UNL     1       4.664   7.169  23.952  1.00  0.00     0.264 C 
BRANCH  24  25
HETATM   25  C5  UNL     1       5.788   8.037  23.706  1.00  0.00    -0.080 C 
HETATM   26  C6  UNL     1       6.741   8.750  23.513  1.00  0.00    -0.099 C 
BRANCH  26  27
HETATM   27  C7  UNL     1       7.926   9.604  23.295  1.00  0.00     0.138 C 
BRANCH  27  28
HETATM   28  C8  UNL     1       9.131   8.710  23.495  1.00  0.00     0.070 C 
BRANCH  28  29
HETATM   29  N2  UNL     1       9.695   8.777  24.785  1.00  0.00    -0.395 N 
HETATM   30  C9  UNL     1      11.075   9.095  24.889  1.00  0.00     0.148 C 
BRANCH  29  31
HETATM   31  C10 UNL     1       9.130   7.983  25.810  1.00  0.00     0.147 C 
BRANCH  31  32
HETATM   32  C11 UNL     1      10.066   7.859  26.985  1.00  0.00     0.183 C 
BRANCH  32  33
HETATM   33  O2  UNL     1       9.385   7.433  28.138  1.00  0.00    -0.399 OA
ATOM     34  H2  UNL     1       9.801   7.764  28.925  1.00  0.00     0.209 HD
ENDBRANCH  32  33
ENDBRANCH  31  32
ENDBRANCH  29  31
ENDBRANCH  28  29
ENDBRANCH  27  28
ENDBRANCH  26  27
ENDBRANCH  24  25
ENDBRANCH  23  24
ENDBRANCH   4  23
TORSDOF 9
ENDMDL
MODEL 3
REMARK VINA RESULT: -7.636577865      1.480      1.746
REMARK  9 active torsions:
REMARK  status: ('A' for Active; 'I' for Inactive)
REMARK    1  A    between atoms: C3_4  and  O1_5 
REMARK    2  A    between atoms: O1_5  and  C4_6 
REMARK    3  A    between atoms: C4_6  and  C5_7 
REMARK    4  A    between atoms: C6_8  and  C7_9 
REMARK    5  A    between atoms: C7_9  and  C8_10 
REMARK    6  A    between atoms: C8_10  and  N2_11 
REMARK    7  A    between atoms: N2_11  and  C10_13 
REMARK    8  A    between atoms: C10_13  and  C11_14 
REMARK    9  A    between atoms: C11_14  and  O2_15 
ROOT
HETATM    1  C1  UNL     1       4.905   7.896  17.930  1.00  0.00     0.041 C 
HETATM    2  C2  UNL     1       5.556   6.760  17.959  1.00  0.00     0.042 C 
HETATM    3  N1  UNL     1       6.536   6.357  18.925  1.00  0.00    -0.339 N 
HETATM    4  C3  UNL     1       6.604   6.734  20.322  1.00  0.00     0.249 C 
HETATM    5  C12 UNL     1       5.901   5.652  21.125  1.00  0.00     0.229 C 
HETATM    6  O3  UNL     1       6.565   4.438  21.044  1.00  0.00    -0.346 OA
HETATM    7  C13 UNL     1       7.270   3.758  20.096  1.00  0.00     0.077 A 
HETATM    8  C14 UNL     1       7.575   2.464  20.534  1.00  0.00     0.039 A 
HETATM    9  C15 UNL     1       8.278   1.614  19.734  1.00  0.00     0.022 A 
HETATM   10  C16 UNL     1       8.686   2.033  18.495  1.00  0.00     0.011 A 
HETATM   11 BR1  UNL     1       9.671   0.840  17.383  1.00  0.00    -0.051 Br
HETATM   12  C17 UNL     1       8.379   3.323  18.061  1.00  0.00     0.031 A 
HETATM   13  C18 UNL     1       7.671   4.195  18.852  1.00  0.00     0.005 A 
HETATM   14  C19 UNL     1       7.471   5.482  18.224  1.00  0.00     0.172 C 
HETATM   15  C20 UNL     1       6.937   5.335  16.858  1.00  0.00     0.060 C 
HETATM   16  N3  UNL     1       7.069   4.968  15.648  1.00  0.00    -0.304 N 
ATOM     17  H3  UNL     1       7.909   4.524  15.276  1.00  0.00     0.171 HD
HETATM   18  C21 UNL     1       5.915   5.245  14.879  1.00  0.00     0.366 C 
HETATM   19  O4  UNL     1       5.724   4.993  13.656  1.00  0.00    -0.238 OA
HETATM   20  O5  UNL     1       5.024   5.855  15.746  1.00  0.00    -0.280 OA
HETATM   21  C22 UNL     1       5.454   5.636  17.024  1.00  0.00     0.150 C 
HETATM   22  C23 UNL     1       4.735   4.447  17.663  1.00  0.00     0.060 C 
ENDROOT
BRANCH   4  23
HETATM   23  O1  UNL     1       6.113   7.990  20.610  1.00  0.00    -0.353 OA
BRANCH  23  24
HETATM   24  C4  UNL     1       5.898   8.067  21.980  1.00  0.00     0.264 C 
BRANCH  24  25
HETATM   25  C5  UNL     1       7.100   8.356  22.722  1.00  0.00    -0.080 C 
HETATM   26  C6  UNL     1       8.117   8.589  23.327  1.00  0.00    -0.099 C 
BRANCH  26  27
HETATM   27  C7  UNL     1       9.379   8.862  24.042  1.00  0.00     0.138 C 
BRANCH  27  28
HETATM   28  C8  UNL     1       9.206   8.291  25.434  1.00  0.00     0.070 C 
BRANCH  28  29
HETATM   29  N2  UNL     1      10.407   7.879  26.045  1.00  0.00    -0.395 N 
HETATM   30  C9  UNL     1      10.317   7.180  27.277  1.00  0.00     0.148 C 
BRANCH  29  31
HETATM   31  C10 UNL     1      11.579   8.638  25.810  1.00  0.00     0.147 C 
BRANCH  31  32
HETATM   32  C11 UNL     1      12.811   7.892  26.255  1.00  0.00     0.183 C 
BRANCH  32  33
HETATM   33  O2  UNL     1      13.632   7.565  25.163  1.00  0.00    -0.399 OA
ATOM     34  H2  UNL     1      13.352   6.756  24.751  1.00  0.00     0.209 HD
ENDBRANCH  32  33
ENDBRANCH  31  32
ENDBRANCH  29  31
ENDBRANCH  28  29
ENDBRANCH  27  28
ENDBRANCH  26  27
ENDBRANCH  24  25
ENDBRANCH  23  24
ENDBRANCH   4  23
TORSDOF 9
ENDMDL
MODEL 4
REMARK VINA RESULT: -7.619392849      2.007      2.522
REMARK  9 active torsions:
REMARK  status: ('A' for Active; 'I' for Inactive)
REMARK    1  A    between atoms: C3_4  and  O1_5 
REMARK    2  A    between atoms: O1_5  and  C4_6 
REMARK    3  A    between atoms: C4_6  and  C5_7 
REMARK    4  A    between atoms: C6_8  and  C7_9 
REMARK    5  A    between atoms: C7_9  and  C8_10 
REMARK    6  A    between atoms: C8_10  and  N2_11 
REMARK    7  A    between atoms: N2_11  and  C10_13 
REMARK    8  A    between atoms: C10_13  and  C11_14 
REMARK    9  A    between atoms: C11_14  and  O2_15 
ROOT
HETATM    1  C1  UNL     1       4.675   7.481  17.252  1.00  0.00     0.041 C 
HETATM    2  C2  UNL     1       5.403   6.412  17.463  1.00  0.00     0.042 C 
HETATM    3  N1  UNL     1       6.305   6.190  18.556  1.00  0.00    -0.339 N 
HETATM    4  C3  UNL     1       6.199   6.706  19.905  1.00  0.00     0.249 C 
HETATM    5  C12 UNL     1       5.498   5.652  20.747  1.00  0.00     0.229 C 
HETATM    6  O3  UNL     1       6.256   4.496  20.858  1.00  0.00    -0.346 OA
HETATM    7  C13 UNL     1       7.104   3.789  20.059  1.00  0.00     0.077 A 
HETATM    8  C14 UNL     1       7.458   2.575  20.659  1.00  0.00     0.039 A 
HETATM    9  C15 UNL     1       8.302   1.713  20.024  1.00  0.00     0.022 A 
HETATM   10  C16 UNL     1       8.804   2.043  18.793  1.00  0.00     0.011 A 
HETATM   11 BR1  UNL     1       9.986   0.835  17.913  1.00  0.00    -0.051 Br
HETATM   12  C17 UNL     1       8.449   3.254  18.197  1.00  0.00     0.031 A 
HETATM   13  C18 UNL     1       7.599   4.135  18.820  1.00  0.00     0.005 A 
HETATM   14  C19 UNL     1       7.370   5.334  18.044  1.00  0.00     0.172 C 
HETATM   15  C20 UNL     1       6.994   5.010  16.656  1.00  0.00     0.060 C 
HETATM   16  N3  UNL     1       7.278   4.538  15.510  1.00  0.00    -0.304 N 
ATOM     17  H3  UNL     1       8.183   4.133  15.269  1.00  0.00     0.171 HD
HETATM   18  C21 UNL     1       6.193   4.640  14.609  1.00  0.00     0.366 C 
HETATM   19  O4  UNL     1       6.150   4.255  13.406  1.00  0.00    -0.238 OA
HETATM   20  O5  UNL     1       5.174   5.254  15.317  1.00  0.00    -0.280 OA
HETATM   21  C22 UNL     1       5.483   5.198  16.647  1.00  0.00     0.150 C 
HETATM   22  C23 UNL     1       4.792   4.020  17.335  1.00  0.00     0.060 C 
ENDROOT
BRANCH   4  23
HETATM   23  O1  UNL     1       5.588   7.938  20.010  1.00  0.00    -0.353 OA
BRANCH  23  24
HETATM   24  C4  UNL     1       6.581   8.906  20.101  1.00  0.00     0.264 C 
BRANCH  24  25
HETATM   25  C5  UNL     1       7.089   9.067  21.440  1.00  0.00    -0.080 C 
HETATM   26  C6  UNL     1       7.508   9.224  22.559  1.00  0.00    -0.099 C 
BRANCH  26  27
HETATM   27  C7  UNL     1       8.015   9.447  23.928  1.00  0.00     0.138 C 
BRANCH  27  28
HETATM   28  C8  UNL     1       9.498   9.144  23.883  1.00  0.00     0.070 C 
BRANCH  28  29
HETATM   29  N2  UNL     1      10.061   8.814  25.132  1.00  0.00    -0.395 N 
HETATM   30  C9  UNL     1      11.474   8.707  25.214  1.00  0.00     0.148 C 
BRANCH  29  31
HETATM   31  C10 UNL     1       9.295   8.037  26.033  1.00  0.00     0.147 C 
BRANCH  31  32
HETATM   32  C11 UNL     1      10.152   7.481  27.142  1.00  0.00     0.183 C 
BRANCH  32  33
HETATM   33  O2  UNL     1       9.390   7.212  28.290  1.00  0.00    -0.399 OA
ATOM     34  H2  UNL     1       9.744   6.475  28.774  1.00  0.00     0.209 HD
ENDBRANCH  32  33
ENDBRANCH  31  32
ENDBRANCH  29  31
ENDBRANCH  28  29
ENDBRANCH  27  28
ENDBRANCH  26  27
ENDBRANCH  24  25
ENDBRANCH  23  24
ENDBRANCH   4  23
TORSDOF 9
ENDMDL
MODEL 5
REMARK VINA RESULT: -7.495100178      2.415      3.074
REMARK  9 active torsions:
REMARK  status: ('A' for Active; 'I' for Inactive)
REMARK    1  A    between atoms: C3_4  and  O1_5 
REMARK    2  A    between atoms: O1_5  and  C4_6 
REMARK    3  A    between atoms: C4_6  and  C5_7 
REMARK    4  A    between atoms: C6_8  and  C7_9 
REMARK    5  A    between atoms: C7_9  and  C8_10 
REMARK    6  A    between atoms: C8_10  and  N2_11 
REMARK    7  A    between atoms: N2_11  and  C10_13 
REMARK    8  A    between atoms: C10_13  and  C11_14 
REMARK    9  A    between atoms: C11_14  and  O2_15 
ROOT
HETATM    1  C1  UNL     1       3.641   7.884  20.113  1.00  0.00     0.041 C 
HETATM    2  C2  UNL     1       4.523   6.953  19.843  1.00  0.00     0.042 C 
HETATM    3  N1  UNL     1       5.348   6.254  20.785  1.00  0.00    -0.339 N 
HETATM    4  C3  UNL     1       5.033   5.926  22.160  1.00  0.00     0.249 C 
HETATM    5  C12 UNL     1       4.456   4.520  22.177  1.00  0.00     0.229 C 
HETATM    6  O3  UNL     1       5.391   3.576  21.783  1.00  0.00    -0.346 OA
HETATM    7  C13 UNL     1       6.418   3.513  20.889  1.00  0.00     0.077 A 
HETATM    8  C14 UNL     1       6.923   2.212  20.801  1.00  0.00     0.039 A 
HETATM    9  C15 UNL     1       7.959   1.931  19.960  1.00  0.00     0.022 A 
HETATM   10  C16 UNL     1       8.504   2.932  19.200  1.00  0.00     0.011 A 
HETATM   11 BR1  UNL     1       9.953   2.532  18.029  1.00  0.00    -0.051 Br
HETATM   12  C17 UNL     1       7.996   4.229  19.290  1.00  0.00     0.031 A 
HETATM   13  C18 UNL     1       6.953   4.532  20.131  1.00  0.00     0.005 A 
HETATM   14  C19 UNL     1       6.588   5.931  20.086  1.00  0.00     0.172 C 
HETATM   15  C20 UNL     1       6.400   6.392  18.699  1.00  0.00     0.060 C 
HETATM   16  N3  UNL     1       6.864   6.662  17.546  1.00  0.00    -0.304 N 
ATOM     17  H3  UNL     1       7.843   6.548  17.286  1.00  0.00     0.171 HD
HETATM   18  C21 UNL     1       5.863   7.138  16.668  1.00  0.00     0.366 C 
HETATM   19  O4  UNL     1       5.996   7.479  15.459  1.00  0.00    -0.238 OA
HETATM   20  O5  UNL     1       4.693   7.156  17.408  1.00  0.00    -0.280 OA
HETATM   21  C22 UNL     1       4.887   6.406  18.534  1.00  0.00     0.150 C 
HETATM   22  C23 UNL     1       4.354   4.983  18.359  1.00  0.00     0.060 C 
ENDROOT
BRANCH   4  23
HETATM   23  O1  UNL     1       4.209   6.829  22.799  1.00  0.00    -0.353 OA
BRANCH  23  24
HETATM   24  C4  UNL     1       4.814   7.194  23.996  1.00  0.00     0.264 C 
BRANCH  24  25
HETATM   25  C5  UNL     1       6.001   7.989  23.807  1.00  0.00    -0.080 C 
HETATM   26  C6  UNL     1       6.995   8.657  23.671  1.00  0.00    -0.099 C 
BRANCH  26  27
HETATM   27  C7  UNL     1       8.214   9.479  23.537  1.00  0.00     0.138 C 
BRANCH  27  28
HETATM   28  C8  UNL     1       8.863   9.060  22.235  1.00  0.00     0.070 C 
BRANCH  28  29
HETATM   29  N2  UNL     1       8.283   9.634  21.086  1.00  0.00    -0.395 N 
HETATM   30  C9  UNL     1       8.663   9.113  19.821  1.00  0.00     0.148 C 
BRANCH  29  31
HETATM   31  C10 UNL     1       7.881  10.990  21.139  1.00  0.00     0.147 C 
BRANCH  31  32
HETATM   32  C11 UNL     1       8.041  11.660  19.799  1.00  0.00     0.183 C 
BRANCH  32  33
HETATM   33  O2  UNL     1       9.096  12.587  19.814  1.00  0.00    -0.399 OA
ATOM     34  H2  UNL     1       9.322  12.867  18.935  1.00  0.00     0.209 HD
ENDBRANCH  32  33
ENDBRANCH  31  32
ENDBRANCH  29  31
ENDBRANCH  28  29
ENDBRANCH  27  28
ENDBRANCH  26  27
ENDBRANCH  24  25
ENDBRANCH  23  24
ENDBRANCH   4  23
TORSDOF 9
ENDMDL
