MODEL 1
REMARK VINA RESULT: -10.206638905      0.000      0.000
REMARK  7 active torsions:
REMARK  status: ('A' for Active; 'I' for Inactive)
REMARK    1  A    between atoms: C2_2  and  C3_3 
REMARK    2  A    between atoms: C5_5  and  N1_6 
REMARK    3  A    between atoms: N1_6  and  C6_8 
REMARK    4  A    between atoms: C14_20  and  C15_21 
REMARK    5  A    between atoms: C15_21  and  N4_22 
REMARK    6  A    between atoms: N6_30  and  C20_31 
REMARK    7  A    between atoms: C20_31  and  C21_32 
ROOT
HETATM    1  C15 UNL     1       5.701   7.896  20.910  1.00  0.00     0.133 C 
ENDROOT
BRANCH   1   2
HETATM    2  C14 UNL     1       6.763   8.377  21.770  1.00  0.00    -0.008 A 
HETATM    3  C3  UNL     1       6.680   9.120  22.894  1.00  0.00    -0.023 A 
HETATM    4  C4  UNL     1       7.821   9.531  23.619  1.00  0.00     0.042 A 
HETATM    5  C5  UNL     1       9.069   9.173  23.187  1.00  0.00     0.050 A 
HETATM    6  C12 UNL     1       9.199   8.421  22.058  1.00  0.00     0.031 A 
HETATM    7  C13 UNL     1       8.089   8.042  21.384  1.00  0.00     0.016 A 
BRANCH   3   8
HETATM    8  C2  UNL     1       5.409   9.557  23.491  1.00  0.00     0.002 C 
HETATM    9  C1  UNL     1       5.115   9.217  24.730  1.00  0.00     0.012 C 
ENDBRANCH   3   8
BRANCH   5  10
HETATM   10  N1  UNL     1      10.197   9.597  23.928  1.00  0.00    -0.192 N 
ATOM     11  H1  UNL     1      10.623  10.488  23.675  1.00  0.00     0.184 HD
BRANCH  10  12
HETATM   12  C6  UNL     1      10.723   8.938  24.897  1.00  0.00     0.683 A 
HETATM   13  N2  UNL     1       9.900   8.464  25.865  1.00  0.00    -0.196 N 
HETATM   14  C7  UNL     1      10.389   7.764  26.910  1.00  0.00     0.024 A 
ATOM     15  H2  UNL     1       8.898   8.639  25.803  1.00  0.00     0.184 HD
HETATM   16  C8  UNL     1       9.439   7.268  27.945  1.00  0.00     0.068 C 
HETATM   17  C9  UNL     1      11.733   7.516  27.020  1.00  0.00     0.050 A 
HETATM   18  C10 UNL     1      12.567   8.003  26.027  1.00  0.00     0.024 A 
HETATM   19  C11 UNL     1      14.036   7.735  26.139  1.00  0.00     0.068 C 
HETATM   20  N3  UNL     1      12.034   8.694  25.007  1.00  0.00    -0.196 N 
ATOM     21  H3  UNL     1      12.658   9.048  24.282  1.00  0.00     0.184 HD
ENDBRANCH  10  12
ENDBRANCH   5  10
ENDBRANCH   1   2
BRANCH   1  22
HETATM   22  N4  UNL     1       5.483   6.489  20.762  1.00  0.00    -0.206 N 
HETATM   23  C16 UNL     1       4.704   5.832  21.666  1.00  0.00     0.336 A 
HETATM   24  O1  UNL     1       4.235   6.414  22.703  1.00  0.00    -0.260 OA
HETATM   25  C17 UNL     1       4.428   4.515  21.440  1.00  0.00     0.331 A 
HETATM   26  O2  UNL     1       3.705   3.903  22.283  1.00  0.00    -0.261 OA
HETATM   27  N5  UNL     1       4.871   3.811  20.380  1.00  0.00    -0.145 N 
HETATM   28  C18 UNL     1       4.608   2.415  20.255  1.00  0.00     0.179 C 
HETATM   29  C19 UNL     1       5.640   4.481  19.484  1.00  0.00     0.711 A 
HETATM   30  N6  UNL     1       6.189   4.068  18.338  1.00  0.00    -0.186 N 
HETATM   31  N7  UNL     1       5.920   5.810  19.716  1.00  0.00    -0.086 N 
HETATM   32  C27 UNL     1       6.856   5.142  17.789  1.00  0.00     0.129 A 
HETATM   33  C28 UNL     1       6.669   6.171  18.646  1.00  0.00     0.153 A 
BRANCH  30  34
HETATM   34  C20 UNL     1       6.115   2.846  17.583  1.00  0.00     0.185 C 
BRANCH  34  35
HETATM   35  C21 UNL     1       7.446   2.138  17.665  1.00  0.00    -0.039 A 
HETATM   36  C22 UNL     1       8.001   1.994  18.942  1.00  0.00     0.012 A 
HETATM   37  C23 UNL     1       9.207   1.378  19.189  1.00  0.00     0.043 A 
HETATM   38  C24 UNL     1       9.908   0.870  18.098  1.00  0.00     0.116 A 
HETATM   39  F1  UNL     1      11.094   0.265  18.347  1.00  0.00    -0.206 F 
HETATM   40  C25 UNL     1       9.378   1.003  16.841  1.00  0.00     0.043 A 
HETATM   41  C26 UNL     1       8.149   1.636  16.629  1.00  0.00     0.012 A 
ENDBRANCH  34  35
ENDBRANCH  30  34
ENDBRANCH   1  22
TORSDOF 7
ENDMDL
MODEL 2
REMARK VINA RESULT: -10.081442380      0.252      1.390
REMARK  7 active torsions:
REMARK  status: ('A' for Active; 'I' for Inactive)
REMARK    1  A    between atoms: C2_2  and  C3_3 
REMARK    2  A    between atoms: C5_5  and  N1_6 
REMARK    3  A    between atoms: N1_6  and  C6_8 
REMARK    4  A    between atoms: C14_20  and  C15_21 
REMARK    5  A    between atoms: C15_21  and  N4_22 
REMARK    6  A    between atoms: N6_30  and  C20_31 
REMARK    7  A    between atoms: C20_31  and  C21_32 
ROOT
HETATM    1  C15 UNL     1       5.828   8.090  20.693  1.00  0.00     0.133 C 
ENDROOT
BRANCH   1   2
HETATM    2  C14 UNL     1       6.876   8.501  21.605  1.00  0.00    -0.008 A 
HETATM    3  C3  UNL     1       6.774   9.142  22.789  1.00  0.00    -0.023 A 
HETATM    4  C4  UNL     1       7.903   9.495  23.562  1.00  0.00     0.042 A 
HETATM    5  C5  UNL     1       9.158   9.184  23.117  1.00  0.00     0.050 A 
HETATM    6  C12 UNL     1       9.308   8.535  21.928  1.00  0.00     0.031 A 
HETATM    7  C13 UNL     1       8.209   8.210  21.209  1.00  0.00     0.016 A 
BRANCH   3   8
HETATM    8  C2  UNL     1       5.492   9.516  23.406  1.00  0.00     0.002 C 
HETATM    9  C1  UNL     1       5.238   9.170  24.652  1.00  0.00     0.012 C 
ENDBRANCH   3   8
BRANCH   5  10
HETATM   10  N1  UNL     1      10.274   9.548  23.906  1.00  0.00    -0.192 N 
ATOM     11  H1  UNL     1      10.783  10.393  23.646  1.00  0.00     0.184 HD
BRANCH  10  12
HETATM   12  C6  UNL     1      10.691   8.891  24.927  1.00  0.00     0.683 A 
HETATM   13  N2  UNL     1      12.024   8.666  25.038  1.00  0.00    -0.196 N 
HETATM   14  C7  UNL     1      12.527   7.982  26.087  1.00  0.00     0.024 A 
ATOM     15  H2  UNL     1      12.655   9.019  24.319  1.00  0.00     0.184 HD
HETATM   16  C8  UNL     1      13.999   7.764  26.158  1.00  0.00     0.068 C 
HETATM   17  C9  UNL     1      11.701   7.495  27.067  1.00  0.00     0.050 A 
HETATM   18  C10 UNL     1      10.342   7.729  26.947  1.00  0.00     0.024 A 
HETATM   19  C11 UNL     1       9.434   7.202  28.014  1.00  0.00     0.068 C 
HETATM   20  N3  UNL     1       9.888   8.415  25.886  1.00  0.00    -0.196 N 
ATOM     21  H3  UNL     1       8.885   8.581  25.807  1.00  0.00     0.184 HD
ENDBRANCH  10  12
ENDBRANCH   5  10
ENDBRANCH   1   2
BRANCH   1  22
HETATM   22  N4  UNL     1       5.526   6.701  20.531  1.00  0.00    -0.206 N 
HETATM   23  C16 UNL     1       4.609   6.113  21.351  1.00  0.00     0.336 A 
HETATM   24  O1  UNL     1       4.076   6.742  22.329  1.00  0.00    -0.260 OA
HETATM   25  C17 UNL     1       4.263   4.817  21.105  1.00  0.00     0.331 A 
HETATM   26  O2  UNL     1       3.412   4.271  21.870  1.00  0.00    -0.261 OA
HETATM   27  N5  UNL     1       4.764   4.069  20.103  1.00  0.00    -0.145 N 
HETATM   28  C18 UNL     1       4.414   2.693  19.959  1.00  0.00     0.179 C 
HETATM   29  C19 UNL     1       5.670   4.669  19.291  1.00  0.00     0.711 A 
HETATM   30  N6  UNL     1       6.306   4.201  18.212  1.00  0.00    -0.186 N 
HETATM   31  N7  UNL     1       6.020   5.977  19.542  1.00  0.00    -0.086 N 
HETATM   32  C27 UNL     1       7.104   5.217  17.731  1.00  0.00     0.129 A 
HETATM   33  C28 UNL     1       6.903   6.269  18.556  1.00  0.00     0.153 A 
BRANCH  30  34
HETATM   34  C20 UNL     1       6.223   2.978  17.461  1.00  0.00     0.185 C 
BRANCH  34  35
HETATM   35  C21 UNL     1       7.528   2.231  17.597  1.00  0.00    -0.039 A 
HETATM   36  C22 UNL     1       7.989   2.007  18.900  1.00  0.00     0.012 A 
HETATM   37  C23 UNL     1       9.160   1.347  19.196  1.00  0.00     0.043 A 
HETATM   38  C24 UNL     1       9.924   0.876  18.131  1.00  0.00     0.116 A 
HETATM   39  F1  UNL     1      11.075   0.227  18.428  1.00  0.00    -0.206 F 
HETATM   40  C25 UNL     1       9.486   1.086  16.850  1.00  0.00     0.043 A 
HETATM   41  C26 UNL     1       8.290   1.762  16.586  1.00  0.00     0.012 A 
ENDBRANCH  34  35
ENDBRANCH  30  34
ENDBRANCH   1  22
TORSDOF 7
ENDMDL
MODEL 3
REMARK VINA RESULT: -9.964006366      0.852      1.623
REMARK  7 active torsions:
REMARK  status: ('A' for Active; 'I' for Inactive)
REMARK    1  A    between atoms: C2_2  and  C3_3 
REMARK    2  A    between atoms: C5_5  and  N1_6 
REMARK    3  A    between atoms: N1_6  and  C6_8 
REMARK    4  A    between atoms: C14_20  and  C15_21 
REMARK    5  A    between atoms: C15_21  and  N4_22 
REMARK    6  A    between atoms: N6_30  and  C20_31 
REMARK    7  A    between atoms: C20_31  and  C21_32 
ROOT
HETATM    1  C15 UNL     1       5.715   7.771  21.698  1.00  0.00     0.133 C 
ENDROOT
BRANCH   1   2
HETATM    2  C14 UNL     1       6.882   8.212  22.435  1.00  0.00    -0.008 A 
HETATM    3  C3  UNL     1       8.159   8.337  22.014  1.00  0.00    -0.023 A 
HETATM    4  C4  UNL     1       9.202   8.765  22.866  1.00  0.00     0.042 A 
HETATM    5  C5  UNL     1       8.932   9.073  24.171  1.00  0.00     0.050 A 
HETATM    6  C12 UNL     1       7.656   8.963  24.638  1.00  0.00     0.031 A 
HETATM    7  C13 UNL     1       6.678   8.550  23.799  1.00  0.00     0.016 A 
BRANCH   3   8
HETATM    8  C2  UNL     1       8.593   8.067  20.635  1.00  0.00     0.002 C 
HETATM    9  C1  UNL     1       8.708   9.061  19.777  1.00  0.00     0.012 C 
ENDBRANCH   3   8
BRANCH   5  10
HETATM   10  N1  UNL     1       9.991   9.498  25.007  1.00  0.00    -0.192 N 
ATOM     11  H1  UNL     1      10.168  10.500  25.074  1.00  0.00     0.184 HD
BRANCH  10  12
HETATM   12  C6  UNL     1      10.745   8.712  25.686  1.00  0.00     0.683 A 
HETATM   13  N2  UNL     1      10.150   7.783  26.476  1.00  0.00    -0.196 N 
HETATM   14  C7  UNL     1      10.885   6.926  27.215  1.00  0.00     0.024 A 
ATOM     15  H2  UNL     1       9.132   7.732  26.510  1.00  0.00     0.184 HD
HETATM   16  C8  UNL     1      10.178   5.927  28.064  1.00  0.00     0.068 C 
HETATM   17  C9  UNL     1      12.255   6.975  27.188  1.00  0.00     0.050 A 
HETATM   18  C10 UNL     1      12.856   7.925  26.380  1.00  0.00     0.024 A 
HETATM   19  C11 UNL     1      14.351   7.984  26.344  1.00  0.00     0.068 C 
HETATM   20  N3  UNL     1      12.083   8.756  25.662  1.00  0.00    -0.196 N 
ATOM     21  H3  UNL     1      12.536   9.453  25.071  1.00  0.00     0.184 HD
ENDBRANCH  10  12
ENDBRANCH   5  10
ENDBRANCH   1   2
BRANCH   1  22
HETATM   22  N4  UNL     1       5.469   6.373  21.520  1.00  0.00    -0.206 N 
HETATM   23  C16 UNL     1       4.767   5.689  22.467  1.00  0.00     0.336 A 
HETATM   24  O1  UNL     1       4.400   6.237  23.563  1.00  0.00    -0.260 OA
HETATM   25  C17 UNL     1       4.455   4.384  22.221  1.00  0.00     0.331 A 
HETATM   26  O2  UNL     1       3.804   3.748  23.104  1.00  0.00    -0.261 OA
HETATM   27  N5  UNL     1       4.793   3.716  21.100  1.00  0.00    -0.145 N 
HETATM   28  C18 UNL     1       4.503   2.328  20.950  1.00  0.00     0.179 C 
HETATM   29  C19 UNL     1       5.485   4.411  20.163  1.00  0.00     0.711 A 
HETATM   30  N6  UNL     1       5.923   4.036  18.957  1.00  0.00    -0.186 N 
HETATM   31  N7  UNL     1       5.801   5.729  20.415  1.00  0.00    -0.086 N 
HETATM   32  C27 UNL     1       6.550   5.123  18.389  1.00  0.00     0.129 A 
HETATM   33  C28 UNL     1       6.454   6.122  19.295  1.00  0.00     0.153 A 
BRANCH  30  34
HETATM   34  C20 UNL     1       5.766   2.843  18.169  1.00  0.00     0.185 C 
BRANCH  34  35
HETATM   35  C21 UNL     1       7.113   2.180  18.011  1.00  0.00    -0.039 A 
HETATM   36  C22 UNL     1       7.855   1.982  19.182  1.00  0.00     0.012 A 
HETATM   37  C23 UNL     1       9.101   1.397  19.210  1.00  0.00     0.043 A 
HETATM   38  C24 UNL     1       9.646   0.978  17.999  1.00  0.00     0.116 A 
HETATM   39  F1  UNL     1      10.871   0.403  18.034  1.00  0.00    -0.206 F 
HETATM   40  C25 UNL     1       8.932   1.164  16.845  1.00  0.00     0.043 A 
HETATM   41  C26 UNL     1       7.668   1.764  16.854  1.00  0.00     0.012 A 
ENDBRANCH  34  35
ENDBRANCH  30  34
ENDBRANCH   1  22
TORSDOF 7
ENDMDL
MODEL 4
REMARK VINA RESULT: -9.839846145      0.950      1.865
REMARK  7 active torsions:
REMARK  status: ('A' for Active; 'I' for Inactive)
REMARK    1  A    between atoms: C2_2  and  C3_3 
REMARK    2  A    between atoms: C5_5  and  N1_6 
REMARK    3  A    between atoms: N1_6  and  C6_8 
REMARK    4  A    between atoms: C14_20  and  C15_21 
REMARK    5  A    between atoms: C15_21  and  N4_22 
REMARK    6  A    between atoms: N6_30  and  C20_31 
REMARK    7  A    between atoms: C20_31  and  C21_32 
ROOT
HETATM    1  C15 UNL     1       5.711   8.218  20.861  1.00  0.00     0.133 C 
ENDROOT
BRANCH   1   2
HETATM    2  C14 UNL     1       6.898   8.660  21.563  1.00  0.00    -0.008 A 
HETATM    3  C3  UNL     1       7.545   9.843  21.484  1.00  0.00    -0.023 A 
HETATM    4  C4  UNL     1       8.715  10.120  22.227  1.00  0.00     0.042 A 
HETATM    5  C5  UNL     1       9.230   9.172  23.066  1.00  0.00     0.050 A 
HETATM    6  C12 UNL     1       8.608   7.964  23.179  1.00  0.00     0.031 A 
HETATM    7  C13 UNL     1       7.490   7.727  22.456  1.00  0.00     0.016 A 
BRANCH   3   8
HETATM    8  C2  UNL     1       7.095  10.964  20.646  1.00  0.00     0.002 C 
HETATM    9  C1  UNL     1       7.976  11.818  20.165  1.00  0.00     0.012 C 
ENDBRANCH   3   8
BRANCH   5  10
HETATM   10  N1  UNL     1      10.403   9.470  23.799  1.00  0.00    -0.192 N 
ATOM     11  H1  UNL     1      10.991  10.232  23.462  1.00  0.00     0.184 HD
BRANCH  10  12
HETATM   12  C6  UNL     1      10.780   8.850  24.858  1.00  0.00     0.683 A 
HETATM   13  N2  UNL     1      12.105   8.611  25.018  1.00  0.00    -0.196 N 
HETATM   14  C7  UNL     1      12.567   7.964  26.109  1.00  0.00     0.024 A 
ATOM     15  H2  UNL     1      12.762   8.925  24.305  1.00  0.00     0.184 HD
HETATM   16  C8  UNL     1      14.033   7.729  26.233  1.00  0.00     0.068 C 
HETATM   17  C9  UNL     1      11.705   7.529  27.083  1.00  0.00     0.050 A 
HETATM   18  C10 UNL     1      10.353   7.777  26.912  1.00  0.00     0.024 A 
HETATM   19  C11 UNL     1       9.406   7.306  27.971  1.00  0.00     0.068 C 
HETATM   20  N3  UNL     1       9.941   8.425  25.811  1.00  0.00    -0.196 N 
ATOM     21  H3  UNL     1       8.944   8.601  25.695  1.00  0.00     0.184 HD
ENDBRANCH  10  12
ENDBRANCH   5  10
ENDBRANCH   1   2
BRANCH   1  22
HETATM   22  N4  UNL     1       5.442   6.819  20.724  1.00  0.00    -0.206 N 
HETATM   23  C16 UNL     1       4.587   6.212  21.595  1.00  0.00     0.336 A 
HETATM   24  O1  UNL     1       4.089   6.833  22.596  1.00  0.00    -0.260 OA
HETATM   25  C17 UNL     1       4.267   4.904  21.377  1.00  0.00     0.331 A 
HETATM   26  O2  UNL     1       3.474   4.340  22.190  1.00  0.00    -0.261 OA
HETATM   27  N5  UNL     1       4.736   4.162  20.354  1.00  0.00    -0.145 N 
HETATM   28  C18 UNL     1       4.420   2.776  20.239  1.00  0.00     0.179 C 
HETATM   29  C19 UNL     1       5.579   4.782  19.491  1.00  0.00     0.711 A 
HETATM   30  N6  UNL     1       6.171   4.324  18.383  1.00  0.00    -0.186 N 
HETATM   31  N7  UNL     1       5.904   6.102  19.715  1.00  0.00    -0.086 N 
HETATM   32  C27 UNL     1       6.912   5.358  17.854  1.00  0.00     0.129 A 
HETATM   33  C28 UNL     1       6.724   6.410  18.682  1.00  0.00     0.153 A 
BRANCH  30  34
HETATM   34  C20 UNL     1       6.085   3.093  17.646  1.00  0.00     0.185 C 
BRANCH  34  35
HETATM   35  C21 UNL     1       7.414   2.381  17.724  1.00  0.00    -0.039 A 
HETATM   36  C22 UNL     1       7.860   2.026  19.002  1.00  0.00     0.012 A 
HETATM   37  C23 UNL     1       9.051   1.378  19.246  1.00  0.00     0.043 A 
HETATM   38  C24 UNL     1       9.849   1.058  18.151  1.00  0.00     0.116 A 
HETATM   39  F1  UNL     1      11.018   0.421  18.397  1.00  0.00    -0.206 F 
HETATM   40  C25 UNL     1       9.426   1.399  16.893  1.00  0.00     0.043 A 
HETATM   41  C26 UNL     1       8.210   2.058  16.683  1.00  0.00     0.012 A 
ENDBRANCH  34  35
ENDBRANCH  30  34
ENDBRANCH   1  22
TORSDOF 7
ENDMDL
MODEL 5
REMARK VINA RESULT: -9.782818555      1.907      2.865
REMARK  7 active torsions:
REMARK  status: ('A' for Active; 'I' for Inactive)
REMARK    1  A    between atoms: C2_2  and  C3_3 
REMARK    2  A    between atoms: C5_5  and  N1_6 
REMARK    3  A    between atoms: N1_6  and  C6_8 
REMARK    4  A    between atoms: C14_20  and  C15_21 
REMARK    5  A    between atoms: C15_21  and  N4_22 
REMARK    6  A    between atoms: N6_30  and  C20_31 
REMARK    7  A    between atoms: C20_31  and  C21_32 
ROOT
HETATM    1  C15 UNL     1       5.639   9.298  21.176  1.00  0.00     0.133 C 
ENDROOT
BRANCH   1   2
HETATM    2  C14 UNL     1       6.886   9.282  21.914  1.00  0.00    -0.008 A 
HETATM    3  C3  UNL     1       7.088   9.297  23.249  1.00  0.00    -0.023 A 
HETATM    4  C4  UNL     1       8.379   9.299  23.823  1.00  0.00     0.042 A 
HETATM    5  C5  UNL     1       9.483   9.282  23.016  1.00  0.00     0.050 A 
HETATM    6  C12 UNL     1       9.326   9.264  21.662  1.00  0.00     0.031 A 
HETATM    7  C13 UNL     1       8.078   9.264  21.141  1.00  0.00     0.016 A 
BRANCH   3   8
HETATM    8  C2  UNL     1       5.999   9.290  24.238  1.00  0.00     0.002 C 
HETATM    9  C1  UNL     1       5.609   8.151  24.775  1.00  0.00     0.012 C 
ENDBRANCH   3   8
BRANCH   5  10
HETATM   10  N1  UNL     1      10.766   9.286  23.612  1.00  0.00    -0.192 N 
ATOM     11  H1  UNL     1      11.517   9.769  23.118  1.00  0.00     0.184 HD
BRANCH  10  12
HETATM   12  C6  UNL     1      11.053   8.723  24.730  1.00  0.00     0.683 A 
HETATM   13  N2  UNL     1      12.359   8.486  25.006  1.00  0.00    -0.196 N 
HETATM   14  C7  UNL     1      12.728   7.898  26.164  1.00  0.00     0.024 A 
ATOM     15  H2  UNL     1      13.073   8.756  24.330  1.00  0.00     0.184 HD
HETATM   16  C8  UNL     1      14.177   7.661  26.415  1.00  0.00     0.068 C 
HETATM   17  C9  UNL     1      11.788   7.523  27.090  1.00  0.00     0.050 A 
HETATM   18  C10 UNL     1      10.457   7.768  26.800  1.00  0.00     0.024 A 
HETATM   19  C11 UNL     1       9.425   7.363  27.806  1.00  0.00     0.068 C 
HETATM   20  N3  UNL     1      10.138   8.356  25.636  1.00  0.00    -0.196 N 
ATOM     21  H3  UNL     1       9.155   8.531  25.432  1.00  0.00     0.184 HD
ENDBRANCH  10  12
ENDBRANCH   5  10
ENDBRANCH   1   2
BRANCH   1  22
HETATM   22  N4  UNL     1       5.448   8.400  20.078  1.00  0.00    -0.206 N 
HETATM   23  C16 UNL     1       5.338   8.899  18.815  1.00  0.00     0.336 A 
HETATM   24  O1  UNL     1       5.303  10.157  18.586  1.00  0.00    -0.260 OA
HETATM   25  C17 UNL     1       5.263   8.016  17.778  1.00  0.00     0.331 A 
HETATM   26  O2  UNL     1       5.158   8.481  16.603  1.00  0.00    -0.261 OA
HETATM   27  N5  UNL     1       5.292   6.675  17.912  1.00  0.00    -0.145 N 
HETATM   28  C18 UNL     1       5.126   5.814  16.787  1.00  0.00     0.179 C 
HETATM   29  C19 UNL     1       5.410   6.193  19.175  1.00  0.00     0.711 A 
HETATM   30  N6  UNL     1       5.496   4.933  19.614  1.00  0.00    -0.186 N 
HETATM   31  N7  UNL     1       5.482   7.087  20.221  1.00  0.00    -0.086 N 
HETATM   32  C27 UNL     1       5.625   4.982  20.985  1.00  0.00     0.129 A 
HETATM   33  C28 UNL     1       5.615   6.294  21.312  1.00  0.00     0.153 A 
BRANCH  30  34
HETATM   34  C20 UNL     1       5.591   3.657  18.960  1.00  0.00     0.185 C 
BRANCH  34  35
HETATM   35  C21 UNL     1       7.046   3.336  18.719  1.00  0.00    -0.039 A 
HETATM   36  C22 UNL     1       7.498   2.094  19.180  1.00  0.00     0.012 A 
HETATM   37  C23 UNL     1       8.795   1.651  19.043  1.00  0.00     0.043 A 
HETATM   38  C24 UNL     1       9.702   2.494  18.406  1.00  0.00     0.116 A 
HETATM   39  F1  UNL     1      10.976   2.053  18.275  1.00  0.00    -0.206 F 
HETATM   40  C25 UNL     1       9.275   3.713  17.949  1.00  0.00     0.043 A 
HETATM   41  C26 UNL     1       7.949   4.130  18.105  1.00  0.00     0.012 A 
ENDBRANCH  34  35
ENDBRANCH  30  34
ENDBRANCH   1  22
TORSDOF 7
ENDMDL
