MODEL 1
REMARK VINA RESULT: -8.253070503      0.000      0.000
REMARK  12 active torsions:
REMARK  status: ('A' for Active; 'I' for Inactive)
REMARK    1  A    between atoms: C2_2  and  O1_3 
REMARK    2  A    between atoms: O1_3  and  C3_4 
REMARK    3  A    between atoms: C5_8  and  N2_9 
REMARK    4  A    between atoms: N2_9  and  C6_10 
REMARK    5  A    between atoms: N2_9  and  C8_25 
REMARK    6  A    between atoms: C6_10  and  C7_16 
REMARK    7  A    between atoms: N3_11  and  N4_13 
REMARK    8  A    between atoms: N11_32  and  C10_33 
REMARK    9  A    between atoms: C13_38  and  C14_39 
REMARK   10  A    between atoms: C14_39  and  N13_40 
REMARK   11  A    between atoms: C16_45  and  O2_46 
REMARK   12  A    between atoms: C17_50  and  N16_51 
ROOT
HETATM    1  N2  UNL     1      13.551  74.677  53.989  1.00  0.00    -0.259 N 
ENDROOT
BRANCH   1   2
HETATM    2  C5  UNL     1      14.870  74.240  54.294  1.00  0.00     0.132 A 
HETATM    3  C4  UNL     1      15.779  73.951  53.299  1.00  0.00     0.139 A 
HETATM    4  N1  UNL     1      17.029  73.517  53.568  1.00  0.00    -0.340 N 
HETATM    5  C3  UNL     1      17.456  73.343  54.834  1.00  0.00     0.187 A 
ATOM      6  H1  UNL     1      17.665  73.317  52.796  1.00  0.00     0.167 HD
HETATM    7  C17 UNL     1      16.552  73.630  55.829  1.00  0.00     0.156 A 
HETATM    8  N15 UNL     1      15.310  74.061  55.569  1.00  0.00    -0.324 N 
ATOM      9  H15 UNL     1      14.679  74.259  56.345  1.00  0.00     0.169 HD
BRANCH   5  10
HETATM   10  O1  UNL     1      18.747  72.894  55.104  1.00  0.00    -0.333 OA
BRANCH  10  11
HETATM   11  C2  UNL     1      19.867  73.700  55.220  1.00  0.00     0.173 C 
HETATM   12  C1  UNL     1      20.659  73.546  56.484  1.00  0.00     0.034 C 
ENDBRANCH  10  11
ENDBRANCH   5  10
BRANCH   7  13
HETATM   13  N16 UNL     1      16.966  73.452  57.172  1.00  0.00    -0.372 N 
HETATM   14  C18 UNL     1      17.025  72.196  57.870  1.00  0.00     0.150 C 
HETATM   15  C19 UNL     1      17.354  74.689  57.866  1.00  0.00     0.150 C 
ENDBRANCH   7  13
ENDBRANCH   1   2
BRANCH   1  16
HETATM   16  C6  UNL     1      13.087  75.816  54.679  1.00  0.00     0.177 C 
HETATM   17  N3  UNL     1      12.086  75.704  55.464  1.00  0.00    -0.288 N 
ATOM     18  H3  UNL     1      11.672  74.775  55.547  1.00  0.00     0.188 HD
BRANCH  17  19
HETATM   19  N4  UNL     1      11.505  76.708  56.213  1.00  0.00    -0.344 N 
ATOM     20  H42 UNL     1      11.285  77.564  55.703  1.00  0.00     0.176 HD
ATOM     21  H41 UNL     1      11.278  76.676  57.208  1.00  0.00     0.176 HD
ENDBRANCH  17  19
BRANCH  16  22
HETATM   22  C7  UNL     1      13.742  77.094  54.499  1.00  0.00     0.184 A 
HETATM   23  N5  UNL     1      14.702  77.658  55.291  1.00  0.00    -0.266 N 
HETATM   24  N6  UNL     1      15.051  78.816  54.810  1.00  0.00    -0.226 N 
ATOM     25  H5  UNL     1      15.088  77.235  56.136  1.00  0.00     0.190 HD
HETATM   26  N7  UNL     1      14.354  79.032  53.730  1.00  0.00    -0.226 N 
ATOM     27  H6  UNL     1      15.748  79.445  55.208  1.00  0.00     0.210 HD
HETATM   28  N8  UNL     1      13.558  78.004  53.526  1.00  0.00    -0.266 N 
ATOM     29  H7  UNL     1      14.416  79.862  53.140  1.00  0.00     0.210 HD
ATOM     30  H8  UNL     1      12.903  77.912  52.750  1.00  0.00     0.190 HD
ENDBRANCH  16  22
ENDBRANCH   1  16
BRANCH   1  31
HETATM   31  C8  UNL     1      12.705  74.019  53.046  1.00  0.00     0.183 A 
HETATM   32  N9  UNL     1      11.952  72.921  53.330  1.00  0.00    -0.171 N 
HETATM   33  C9  UNL     1      11.290  72.562  52.237  1.00  0.00     0.686 A 
ATOM     34  H9  UNL     1      11.905  72.450  54.233  1.00  0.00     0.186 HD
HETATM   35  N10 UNL     1      10.470  71.547  52.137  1.00  0.00    -0.234 N 
HETATM   36  N11 UNL     1      11.578  73.403  51.204  1.00  0.00    -0.121 N 
ATOM     37 2H10 UNL     1      10.254  70.917  52.910  1.00  0.00     0.174 HD
ATOM     38 1H10 UNL     1       9.960  71.272  51.297  1.00  0.00     0.174 HD
HETATM   39  C16 UNL     1      12.446  74.284  51.728  1.00  0.00     0.209 A 
BRANCH  36  40
HETATM   40  C10 UNL     1      11.044  73.304  49.892  1.00  0.00     0.075 A 
HETATM   41  C11 UNL     1       9.782  72.744  49.718  1.00  0.00     0.118 A 
HETATM   42  N12 UNL     1       9.256  72.640  48.484  1.00  0.00    -0.372 N 
HETATM   43  C12 UNL     1       9.922  73.064  47.407  1.00  0.00     0.102 A 
ATOM     44  H12 UNL     1       8.330  72.228  48.369  1.00  0.00     0.164 HD
HETATM   45  C13 UNL     1      11.187  73.634  47.510  1.00  0.00     0.022 A 
HETATM   46  C15 UNL     1      11.727  73.743  48.768  1.00  0.00     0.048 A 
BRANCH  45  47
HETATM   47  C14 UNL     1      11.884  74.091  46.303  1.00  0.00     0.121 C 
HETATM   48  N14 UNL     1      11.203  74.847  45.315  1.00  0.00    -0.082 NA
BRANCH  47  49
HETATM   49  N13 UNL     1      13.109  73.810  46.139  1.00  0.00    -0.387 N 
ATOM     50 2H13 UNL     1      13.821  74.406  46.560  1.00  0.00     0.157 HD
ATOM     51 1H13 UNL     1      13.372  72.992  45.589  1.00  0.00     0.157 HD
ENDBRANCH  47  49
ENDBRANCH  45  47
ENDBRANCH  36  40
BRANCH  39  52
HETATM   52  O2  UNL     1      13.026  75.351  51.023  1.00  0.00    -0.343 OA
ATOM     53  H2  UNL     1      13.247  76.184  51.422  1.00  0.00     0.219 HD
ENDBRANCH  39  52
ENDBRANCH   1  31
TORSDOF 12
ENDMDL
MODEL 2
REMARK VINA RESULT: -8.249684236      0.990      1.538
REMARK  12 active torsions:
REMARK  status: ('A' for Active; 'I' for Inactive)
REMARK    1  A    between atoms: C2_2  and  O1_3 
REMARK    2  A    between atoms: O1_3  and  C3_4 
REMARK    3  A    between atoms: C5_8  and  N2_9 
REMARK    4  A    between atoms: N2_9  and  C6_10 
REMARK    5  A    between atoms: N2_9  and  C8_25 
REMARK    6  A    between atoms: C6_10  and  C7_16 
REMARK    7  A    between atoms: N3_11  and  N4_13 
REMARK    8  A    between atoms: N11_32  and  C10_33 
REMARK    9  A    between atoms: C13_38  and  C14_39 
REMARK   10  A    between atoms: C14_39  and  N13_40 
REMARK   11  A    between atoms: C16_45  and  O2_46 
REMARK   12  A    between atoms: C17_50  and  N16_51 
ROOT
HETATM    1  N2  UNL     1      13.591  74.674  54.233  1.00  0.00    -0.259 N 
ENDROOT
BRANCH   1   2
HETATM    2  C5  UNL     1      14.870  74.184  54.619  1.00  0.00     0.132 A 
HETATM    3  C4  UNL     1      15.001  73.076  55.427  1.00  0.00     0.139 A 
HETATM    4  N1  UNL     1      16.205  72.608  55.820  1.00  0.00    -0.340 N 
HETATM    5  C3  UNL     1      17.350  73.206  55.438  1.00  0.00     0.187 A 
ATOM      6  H1  UNL     1      16.249  71.782  56.418  1.00  0.00     0.167 HD
HETATM    7  C17 UNL     1      17.224  74.313  54.633  1.00  0.00     0.156 A 
HETATM    8  N15 UNL     1      16.032  74.782  54.240  1.00  0.00    -0.324 N 
ATOM      9  H15 UNL     1      15.995  75.607  53.642  1.00  0.00     0.169 HD
BRANCH   5  10
HETATM   10  O1  UNL     1      18.589  72.717  55.848  1.00  0.00    -0.333 OA
BRANCH  10  11
HETATM   11  C2  UNL     1      19.061  72.720  57.150  1.00  0.00     0.173 C 
HETATM   12  C1  UNL     1      20.349  71.989  57.383  1.00  0.00     0.034 C 
ENDBRANCH  10  11
ENDBRANCH   5  10
BRANCH   7  13
HETATM   13  N16 UNL     1      18.408  74.970  54.219  1.00  0.00    -0.372 N 
HETATM   14  C18 UNL     1      19.207  74.614  53.078  1.00  0.00     0.150 C 
HETATM   15  C19 UNL     1      18.811  76.104  55.065  1.00  0.00     0.150 C 
ENDBRANCH   7  13
ENDBRANCH   1   2
BRANCH   1  16
HETATM   16  C6  UNL     1      13.146  75.849  54.872  1.00  0.00     0.177 C 
HETATM   17  N3  UNL     1      12.177  75.778  55.701  1.00  0.00    -0.288 N 
ATOM     18  H3  UNL     1      11.774  74.854  55.855  1.00  0.00     0.188 HD
BRANCH  17  19
HETATM   19  N4  UNL     1      11.617  76.822  56.412  1.00  0.00    -0.344 N 
ATOM     20  H42 UNL     1      12.143  77.125  57.232  1.00  0.00     0.176 HD
ATOM     21  H41 UNL     1      10.747  77.310  56.199  1.00  0.00     0.176 HD
ENDBRANCH  17  19
BRANCH  16  22
HETATM   22  C7  UNL     1      13.783  77.118  54.591  1.00  0.00     0.184 A 
HETATM   23  N5  UNL     1      14.688  77.787  55.366  1.00  0.00    -0.266 N 
HETATM   24  N6  UNL     1      15.038  78.897  54.784  1.00  0.00    -0.226 N 
ATOM     25  H5  UNL     1      15.037  77.464  56.269  1.00  0.00     0.190 HD
HETATM   26  N7  UNL     1      14.395  78.981  53.653  1.00  0.00    -0.226 N 
ATOM     27  H6  UNL     1      15.700  79.581  55.148  1.00  0.00     0.210 HD
HETATM   28  N8  UNL     1      13.632  77.917  53.519  1.00  0.00    -0.266 N 
ATOM     29  H7  UNL     1      14.471  79.745  52.982  1.00  0.00     0.210 HD
ATOM     30  H8  UNL     1      13.021  77.727  52.725  1.00  0.00     0.190 HD
ENDBRANCH  16  22
ENDBRANCH   1  16
BRANCH   1  31
HETATM   31  C8  UNL     1      12.767  74.033  53.259  1.00  0.00     0.183 A 
HETATM   32  N9  UNL     1      12.004  72.933  53.508  1.00  0.00    -0.171 N 
HETATM   33  C9  UNL     1      11.368  72.594  52.393  1.00  0.00     0.686 A 
ATOM     34  H9  UNL     1      11.933  72.449  54.402  1.00  0.00     0.186 HD
HETATM   35  N10 UNL     1      10.547  71.584  52.257  1.00  0.00    -0.234 N 
HETATM   36  N11 UNL     1      11.684  73.449  51.381  1.00  0.00    -0.121 N 
ATOM     37 2H10 UNL     1      10.310  70.943  53.015  1.00  0.00     0.174 HD
ATOM     38 1H10 UNL     1      10.058  71.323  51.400  1.00  0.00     0.174 HD
HETATM   39  C16 UNL     1      12.541  74.320  51.939  1.00  0.00     0.209 A 
BRANCH  36  40
HETATM   40  C10 UNL     1      11.183  73.373  50.055  1.00  0.00     0.075 A 
HETATM   41  C11 UNL     1       9.911  72.849  49.844  1.00  0.00     0.118 A 
HETATM   42  N12 UNL     1       9.415  72.766  48.596  1.00  0.00    -0.372 N 
HETATM   43  C12 UNL     1      10.120  73.178  47.539  1.00  0.00     0.102 A 
ATOM     44  H12 UNL     1       8.481  72.380  48.454  1.00  0.00     0.164 HD
HETATM   45  C13 UNL     1      11.397  73.712  47.679  1.00  0.00     0.022 A 
HETATM   46  C15 UNL     1      11.906  73.799  48.952  1.00  0.00     0.048 A 
BRANCH  45  47
HETATM   47  C14 UNL     1      12.138  74.157  46.494  1.00  0.00     0.121 C 
HETATM   48  N14 UNL     1      11.454  74.660  45.358  1.00  0.00    -0.082 NA
BRANCH  47  49
HETATM   49  N13 UNL     1      13.403  74.094  46.482  1.00  0.00    -0.387 N 
ATOM     50 2H13 UNL     1      13.945  74.793  46.989  1.00  0.00     0.157 HD
ATOM     51 1H13 UNL     1      13.869  73.347  45.967  1.00  0.00     0.157 HD
ENDBRANCH  47  49
ENDBRANCH  45  47
ENDBRANCH  36  40
BRANCH  39  52
HETATM   52  O2  UNL     1      13.141  75.395  51.266  1.00  0.00    -0.343 OA
ATOM     53  H2  UNL     1      13.104  75.511  50.324  1.00  0.00     0.219 HD
ENDBRANCH  39  52
ENDBRANCH   1  31
TORSDOF 12
ENDMDL
MODEL 3
REMARK VINA RESULT: -8.096440680      1.205      2.253
REMARK  12 active torsions:
REMARK  status: ('A' for Active; 'I' for Inactive)
REMARK    1  A    between atoms: C2_2  and  O1_3 
REMARK    2  A    between atoms: O1_3  and  C3_4 
REMARK    3  A    between atoms: C5_8  and  N2_9 
REMARK    4  A    between atoms: N2_9  and  C6_10 
REMARK    5  A    between atoms: N2_9  and  C8_25 
REMARK    6  A    between atoms: C6_10  and  C7_16 
REMARK    7  A    between atoms: N3_11  and  N4_13 
REMARK    8  A    between atoms: N11_32  and  C10_33 
REMARK    9  A    between atoms: C13_38  and  C14_39 
REMARK   10  A    between atoms: C14_39  and  N13_40 
REMARK   11  A    between atoms: C16_45  and  O2_46 
REMARK   12  A    between atoms: C17_50  and  N16_51 
ROOT
HETATM    1  N2  UNL     1      13.535  74.644  54.152  1.00  0.00    -0.259 N 
ENDROOT
BRANCH   1   2
HETATM    2  C5  UNL     1      14.800  74.146  54.572  1.00  0.00     0.132 A 
HETATM    3  C4  UNL     1      14.900  73.044  55.393  1.00  0.00     0.139 A 
HETATM    4  N1  UNL     1      16.091  72.568  55.818  1.00  0.00    -0.340 N 
HETATM    5  C3  UNL     1      17.250  73.151  55.458  1.00  0.00     0.187 A 
ATOM      6  H1  UNL     1      16.112  71.749  56.425  1.00  0.00     0.167 HD
HETATM    7  C17 UNL     1      17.154  74.251  54.639  1.00  0.00     0.156 A 
HETATM    8  N15 UNL     1      15.976  74.728  54.214  1.00  0.00    -0.324 N 
ATOM      9  H15 UNL     1      15.961  75.549  53.608  1.00  0.00     0.169 HD
BRANCH   5  10
HETATM   10  O1  UNL     1      18.475  72.655  55.900  1.00  0.00    -0.333 OA
BRANCH  10  11
HETATM   11  C2  UNL     1      18.923  72.679  57.210  1.00  0.00     0.173 C 
HETATM   12  C1  UNL     1      20.319  72.180  57.437  1.00  0.00     0.034 C 
ENDBRANCH  10  11
ENDBRANCH   5  10
BRANCH   7  13
HETATM   13  N16 UNL     1      18.353  74.892  54.246  1.00  0.00    -0.372 N 
HETATM   14  C18 UNL     1      19.164  74.531  53.114  1.00  0.00     0.150 C 
HETATM   15  C19 UNL     1      18.762  76.015  55.104  1.00  0.00     0.150 C 
ENDBRANCH   7  13
ENDBRANCH   1   2
BRANCH   1  16
HETATM   16  C6  UNL     1      13.070  75.809  54.796  1.00  0.00     0.177 C 
HETATM   17  N3  UNL     1      12.074  75.725  55.592  1.00  0.00    -0.288 N 
ATOM     18  H3  UNL     1      11.666  74.799  55.717  1.00  0.00     0.188 HD
BRANCH  17  19
HETATM   19  N4  UNL     1      11.493  76.757  56.302  1.00  0.00    -0.344 N 
ATOM     20  H42 UNL     1      10.482  76.691  56.422  1.00  0.00     0.176 HD
ATOM     21  H41 UNL     1      11.968  77.562  56.712  1.00  0.00     0.176 HD
ENDBRANCH  17  19
BRANCH  16  22
HETATM   22  C7  UNL     1      13.716  77.082  54.558  1.00  0.00     0.184 A 
HETATM   23  N5  UNL     1      14.607  77.730  55.366  1.00  0.00    -0.266 N 
HETATM   24  N6  UNL     1      14.973  78.852  54.817  1.00  0.00    -0.226 N 
ATOM     25  H5  UNL     1      14.937  77.385  56.268  1.00  0.00     0.190 HD
HETATM   26  N7  UNL     1      14.352  78.964  53.676  1.00  0.00    -0.226 N 
ATOM     27  H6  UNL     1      15.629  79.525  55.210  1.00  0.00     0.210 HD
HETATM   28  N8  UNL     1      13.589  77.906  53.502  1.00  0.00    -0.266 N 
ATOM     29  H7  UNL     1      14.444  79.744  53.025  1.00  0.00     0.210 HD
ATOM     30  H8  UNL     1      12.993  77.737  52.692  1.00  0.00     0.190 HD
ENDBRANCH  16  22
ENDBRANCH   1  16
BRANCH   1  31
HETATM   31  C8  UNL     1      12.743  74.023  53.140  1.00  0.00     0.183 A 
HETATM   32  N9  UNL     1      11.956  72.931  53.348  1.00  0.00    -0.171 N 
HETATM   33  C9  UNL     1      11.362  72.609  52.205  1.00  0.00     0.686 A 
ATOM     34  H9  UNL     1      11.842  72.441  54.235  1.00  0.00     0.186 HD
HETATM   35  N10 UNL     1      10.535  71.611  52.027  1.00  0.00    -0.234 N 
HETATM   36  N11 UNL     1      11.731  73.468  51.214  1.00  0.00    -0.121 N 
ATOM     37 2H10 UNL     1      10.258  70.968  52.770  1.00  0.00     0.174 HD
ATOM     38 1H10 UNL     1      10.078  71.363  51.149  1.00  0.00     0.174 HD
HETATM   39  C16 UNL     1      12.576  74.322  51.814  1.00  0.00     0.209 A 
BRANCH  36  40
HETATM   40  C10 UNL     1      11.284  73.408  49.868  1.00  0.00     0.075 A 
HETATM   41  C11 UNL     1      12.185  73.687  48.845  1.00  0.00     0.118 A 
HETATM   42  N12 UNL     1      11.784  73.637  47.561  1.00  0.00    -0.372 N 
HETATM   43  C12 UNL     1      10.526  73.323  47.239  1.00  0.00     0.102 A 
ATOM     44  H12 UNL     1      12.453  73.843  46.820  1.00  0.00     0.164 HD
HETATM   45  C13 UNL     1       9.575  73.033  48.211  1.00  0.00     0.022 A 
HETATM   46  C15 UNL     1       9.981  73.082  49.522  1.00  0.00     0.048 A 
BRANCH  45  47
HETATM   47  C14 UNL     1       8.205  72.689  47.816  1.00  0.00     0.121 C 
HETATM   48  N14 UNL     1       7.958  71.929  46.644  1.00  0.00    -0.082 NA
BRANCH  47  49
HETATM   49  N13 UNL     1       7.229  73.073  48.526  1.00  0.00    -0.387 N 
ATOM     50 2H13 UNL     1       7.286  73.965  49.017  1.00  0.00     0.157 HD
ATOM     51 1H13 UNL     1       6.396  72.489  48.602  1.00  0.00     0.157 HD
ENDBRANCH  47  49
ENDBRANCH  45  47
ENDBRANCH  36  40
BRANCH  39  52
HETATM   52  O2  UNL     1      13.217  75.395  51.175  1.00  0.00    -0.343 OA
ATOM     53  H2  UNL     1      12.752  76.111  50.758  1.00  0.00     0.219 HD
ENDBRANCH  39  52
ENDBRANCH   1  31
TORSDOF 12
ENDMDL
MODEL 4
REMARK VINA RESULT: -7.946046932      0.774      1.718
REMARK  12 active torsions:
REMARK  status: ('A' for Active; 'I' for Inactive)
REMARK    1  A    between atoms: C2_2  and  O1_3 
REMARK    2  A    between atoms: O1_3  and  C3_4 
REMARK    3  A    between atoms: C5_8  and  N2_9 
REMARK    4  A    between atoms: N2_9  and  C6_10 
REMARK    5  A    between atoms: N2_9  and  C8_25 
REMARK    6  A    between atoms: C6_10  and  C7_16 
REMARK    7  A    between atoms: N3_11  and  N4_13 
REMARK    8  A    between atoms: N11_32  and  C10_33 
REMARK    9  A    between atoms: C13_38  and  C14_39 
REMARK   10  A    between atoms: C14_39  and  N13_40 
REMARK   11  A    between atoms: C16_45  and  O2_46 
REMARK   12  A    between atoms: C17_50  and  N16_51 
ROOT
HETATM    1  N2  UNL     1      13.587  74.633  54.052  1.00  0.00    -0.259 N 
ENDROOT
BRANCH   1   2
HETATM    2  C5  UNL     1      14.888  74.164  54.385  1.00  0.00     0.132 A 
HETATM    3  C4  UNL     1      15.795  73.811  53.409  1.00  0.00     0.139 A 
HETATM    4  N1  UNL     1      17.028  73.345  53.706  1.00  0.00    -0.340 N 
HETATM    5  C3  UNL     1      17.437  73.200  54.981  1.00  0.00     0.187 A 
ATOM      6  H1  UNL     1      17.663  73.098  52.947  1.00  0.00     0.167 HD
HETATM    7  C17 UNL     1      16.534  73.550  55.957  1.00  0.00     0.156 A 
HETATM    8  N15 UNL     1      15.309  74.013  55.669  1.00  0.00    -0.324 N 
ATOM      9  H15 UNL     1      14.678  74.258  56.432  1.00  0.00     0.169 HD
BRANCH   5  10
HETATM   10  O1  UNL     1      18.710  72.718  55.279  1.00  0.00    -0.333 OA
BRANCH  10  11
HETATM   11  C2  UNL     1      19.871  73.472  55.284  1.00  0.00     0.173 C 
HETATM   12  C1  UNL     1      20.579  73.579  56.601  1.00  0.00     0.034 C 
ENDBRANCH  10  11
ENDBRANCH   5  10
BRANCH   7  13
HETATM   13  N16 UNL     1      16.929  73.404  57.309  1.00  0.00    -0.372 N 
HETATM   14  C18 UNL     1      17.026  72.159  58.023  1.00  0.00     0.150 C 
HETATM   15  C19 UNL     1      17.253  74.664  57.995  1.00  0.00     0.150 C 
ENDBRANCH   7  13
ENDBRANCH   1   2
BRANCH   1  16
HETATM   16  C6  UNL     1      13.129  75.771  54.747  1.00  0.00     0.177 C 
HETATM   17  N3  UNL     1      12.148  75.654  55.556  1.00  0.00    -0.288 N 
ATOM     18  H3  UNL     1      11.744  74.722  55.653  1.00  0.00     0.188 HD
BRANCH  17  19
HETATM   19  N4  UNL     1      11.575  76.656  56.314  1.00  0.00    -0.344 N 
ATOM     20  H42 UNL     1      10.844  76.355  56.958  1.00  0.00     0.176 HD
ATOM     21  H41 UNL     1      11.809  77.649  56.292  1.00  0.00     0.176 HD
ENDBRANCH  17  19
BRANCH  16  22
HETATM   22  C7  UNL     1      13.767  77.054  54.545  1.00  0.00     0.184 A 
HETATM   23  N5  UNL     1      14.763  77.617  55.292  1.00  0.00    -0.266 N 
HETATM   24  N6  UNL     1      15.082  78.781  54.804  1.00  0.00    -0.226 N 
ATOM     25  H5  UNL     1      15.194  77.189  56.112  1.00  0.00     0.190 HD
HETATM   26  N7  UNL     1      14.330  79.003  53.763  1.00  0.00    -0.226 N 
ATOM     27  H6  UNL     1      15.795  79.410  55.172  1.00  0.00     0.210 HD
HETATM   28  N8  UNL     1      13.529  77.972  53.590  1.00  0.00    -0.266 N 
ATOM     29  H7  UNL     1      14.357  79.838  53.178  1.00  0.00     0.210 HD
ATOM     30  H8  UNL     1      12.836  77.883  52.848  1.00  0.00     0.190 HD
ENDBRANCH  16  22
ENDBRANCH   1  16
BRANCH   1  31
HETATM   31  C8  UNL     1      12.753  74.008  53.076  1.00  0.00     0.183 A 
HETATM   32  N9  UNL     1      11.958  72.931  53.327  1.00  0.00    -0.171 N 
HETATM   33  C9  UNL     1      11.321  72.601  52.210  1.00  0.00     0.686 A 
ATOM     34  H9  UNL     1      11.866  72.457  54.225  1.00  0.00     0.186 HD
HETATM   35  N10 UNL     1      10.474  71.613  52.075  1.00  0.00    -0.234 N 
HETATM   36  N11 UNL     1      11.669  73.439  51.194  1.00  0.00    -0.121 N 
ATOM     37 2H10 UNL     1      10.213  70.985  52.836  1.00  0.00     0.174 HD
ATOM     38 1H10 UNL     1       9.984  71.358  51.217  1.00  0.00     0.174 HD
HETATM   39  C16 UNL     1      12.546  74.289  51.752  1.00  0.00     0.209 A 
BRANCH  36  40
HETATM   40  C10 UNL     1      11.176  73.365  49.864  1.00  0.00     0.075 A 
HETATM   41  C11 UNL     1      12.051  73.597  48.807  1.00  0.00     0.118 A 
HETATM   42  N12 UNL     1      11.607  73.533  47.539  1.00  0.00    -0.372 N 
HETATM   43  C12 UNL     1      10.331  73.250  47.263  1.00  0.00     0.102 A 
ATOM     44  H12 UNL     1      12.258  73.705  46.772  1.00  0.00     0.164 HD
HETATM   45  C13 UNL     1       9.404  73.008  48.272  1.00  0.00     0.022 A 
HETATM   46  C15 UNL     1       9.854  73.071  49.568  1.00  0.00     0.048 A 
BRANCH  45  47
HETATM   47  C14 UNL     1       8.013  72.697  47.928  1.00  0.00     0.121 C 
HETATM   48  N14 UNL     1       7.704  71.946  46.765  1.00  0.00    -0.082 NA
BRANCH  47  49
HETATM   49  N13 UNL     1       7.073  73.100  48.676  1.00  0.00    -0.387 N 
ATOM     50 2H13 UNL     1       6.840  72.573  49.517  1.00  0.00     0.157 HD
ATOM     51 1H13 UNL     1       6.560  73.948  48.433  1.00  0.00     0.157 HD
ENDBRANCH  47  49
ENDBRANCH  45  47
ENDBRANCH  36  40
BRANCH  39  52
HETATM   52  O2  UNL     1      13.181  75.342  51.075  1.00  0.00    -0.343 OA
ATOM     53  H2  UNL     1      13.536  75.263  50.198  1.00  0.00     0.219 HD
ENDBRANCH  39  52
ENDBRANCH   1  31
TORSDOF 12
ENDMDL
MODEL 5
REMARK VINA RESULT: -7.927666469      1.324      2.060
REMARK  12 active torsions:
REMARK  status: ('A' for Active; 'I' for Inactive)
REMARK    1  A    between atoms: C2_2  and  O1_3 
REMARK    2  A    between atoms: O1_3  and  C3_4 
REMARK    3  A    between atoms: C5_8  and  N2_9 
REMARK    4  A    between atoms: N2_9  and  C6_10 
REMARK    5  A    between atoms: N2_9  and  C8_25 
REMARK    6  A    between atoms: C6_10  and  C7_16 
REMARK    7  A    between atoms: N3_11  and  N4_13 
REMARK    8  A    between atoms: N11_32  and  C10_33 
REMARK    9  A    between atoms: C13_38  and  C14_39 
REMARK   10  A    between atoms: C14_39  and  N13_40 
REMARK   11  A    between atoms: C16_45  and  O2_46 
REMARK   12  A    between atoms: C17_50  and  N16_51 
ROOT
HETATM    1  N2  UNL     1      13.624  74.688  54.157  1.00  0.00    -0.259 N 
ENDROOT
BRANCH   1   2
HETATM    2  C5  UNL     1      14.909  74.201  54.525  1.00  0.00     0.132 A 
HETATM    3  C4  UNL     1      15.053  73.065  55.290  1.00  0.00     0.139 A 
HETATM    4  N1  UNL     1      16.264  72.598  55.666  1.00  0.00    -0.340 N 
HETATM    5  C3  UNL     1      17.401  73.225  55.308  1.00  0.00     0.187 A 
ATOM      6  H1  UNL     1      16.318  71.751  56.232  1.00  0.00     0.167 HD
HETATM    7  C17 UNL     1      17.261  74.360  54.545  1.00  0.00     0.156 A 
HETATM    8  N15 UNL     1      16.062  74.828  54.169  1.00  0.00    -0.324 N 
ATOM      9  H15 UNL     1      16.015  75.675  53.603  1.00  0.00     0.169 HD
BRANCH   5  10
HETATM   10  O1  UNL     1      18.647  72.738  55.700  1.00  0.00    -0.333 OA
BRANCH  10  11
HETATM   11  C2  UNL     1      19.145  72.759  56.992  1.00  0.00     0.173 C 
HETATM   12  C1  UNL     1      20.409  71.986  57.221  1.00  0.00     0.034 C 
ENDBRANCH  10  11
ENDBRANCH   5  10
BRANCH   7  13
HETATM   13  N16 UNL     1      18.436  75.047  54.157  1.00  0.00    -0.372 N 
HETATM   14  C18 UNL     1      19.245  74.740  53.009  1.00  0.00     0.150 C 
HETATM   15  C19 UNL     1      18.819  76.159  55.041  1.00  0.00     0.150 C 
ENDBRANCH   7  13
ENDBRANCH   1   2
BRANCH   1  16
HETATM   16  C6  UNL     1      13.185  75.862  54.802  1.00  0.00     0.177 C 
HETATM   17  N3  UNL     1      13.755  76.229  55.885  1.00  0.00    -0.288 N 
ATOM     18  H3  UNL     1      14.512  75.636  56.225  1.00  0.00     0.188 HD
BRANCH  17  19
HETATM   19  N4  UNL     1      13.456  77.344  56.642  1.00  0.00    -0.344 N 
ATOM     20  H42 UNL     1      12.620  77.268  57.222  1.00  0.00     0.176 HD
ATOM     21  H41 UNL     1      13.980  78.219  56.677  1.00  0.00     0.176 HD
ENDBRANCH  17  19
BRANCH  16  22
HETATM   22  C7  UNL     1      12.102  76.642  54.240  1.00  0.00     0.184 A 
HETATM   23  N5  UNL     1      10.796  76.666  54.641  1.00  0.00    -0.266 N 
HETATM   24  N6  UNL     1      10.117  77.489  53.896  1.00  0.00    -0.226 N 
ATOM     25  H5  UNL     1      10.410  76.119  55.412  1.00  0.00     0.190 HD
HETATM   26  N7  UNL     1      10.931  78.006  53.020  1.00  0.00    -0.226 N 
ATOM     27  H6  UNL     1       9.122  77.694  53.983  1.00  0.00     0.210 HD
HETATM   28  N8  UNL     1      12.134  77.507  53.211  1.00  0.00    -0.266 N 
ATOM     29  H7  UNL     1      10.678  78.686  52.303  1.00  0.00     0.210 HD
ATOM     30  H8  UNL     1      12.962  77.740  52.663  1.00  0.00     0.190 HD
ENDBRANCH  16  22
ENDBRANCH   1  16
BRANCH   1  31
HETATM   31  C8  UNL     1      12.787  74.047  53.194  1.00  0.00     0.183 A 
HETATM   32  N9  UNL     1      11.995  72.973  53.464  1.00  0.00    -0.171 N 
HETATM   33  C9  UNL     1      11.355  72.625  52.354  1.00  0.00     0.686 A 
ATOM     34  H9  UNL     1      11.907  72.513  54.369  1.00  0.00     0.186 HD
HETATM   35  N10 UNL     1      10.509  71.633  52.238  1.00  0.00    -0.234 N 
HETATM   36  N11 UNL     1      11.698  73.447  51.324  1.00  0.00    -0.121 N 
ATOM     37 2H10 UNL     1      10.252  71.016  53.010  1.00  0.00     0.174 HD
ATOM     38 1H10 UNL     1      10.017  71.364  51.385  1.00  0.00     0.174 HD
HETATM   39  C16 UNL     1      12.576  74.307  51.866  1.00  0.00     0.209 A 
BRANCH  36  40
HETATM   40  C10 UNL     1      11.201  73.352  49.998  1.00  0.00     0.075 A 
HETATM   41  C11 UNL     1       9.942  72.799  49.787  1.00  0.00     0.118 A 
HETATM   42  N12 UNL     1       9.450  72.698  48.539  1.00  0.00    -0.372 N 
HETATM   43  C12 UNL     1      10.148  73.120  47.481  1.00  0.00     0.102 A 
ATOM     44  H12 UNL     1       8.525  72.291  48.398  1.00  0.00     0.164 HD
HETATM   45  C13 UNL     1      11.413  73.683  47.621  1.00  0.00     0.022 A 
HETATM   46  C15 UNL     1      11.917  73.788  48.893  1.00  0.00     0.048 A 
BRANCH  45  47
HETATM   47  C14 UNL     1      12.146  74.137  46.434  1.00  0.00     0.121 C 
HETATM   48  N14 UNL     1      11.483  74.845  45.399  1.00  0.00    -0.082 NA
BRANCH  47  49
HETATM   49  N13 UNL     1      13.386  73.897  46.330  1.00  0.00    -0.387 N 
ATOM     50 2H13 UNL     1      13.854  73.353  47.054  1.00  0.00     0.157 HD
ATOM     51 1H13 UNL     1      13.904  74.249  45.525  1.00  0.00     0.157 HD
ENDBRANCH  47  49
ENDBRANCH  45  47
ENDBRANCH  36  40
BRANCH  39  52
HETATM   52  O2  UNL     1      13.207  75.351  51.171  1.00  0.00    -0.343 OA
ATOM     53  H2  UNL     1      14.131  75.351  50.952  1.00  0.00     0.219 HD
ENDBRANCH  39  52
ENDBRANCH   1  31
TORSDOF 12
ENDMDL
