MODEL 1
REMARK VINA RESULT: -5.643350949      0.000      0.000
REMARK  3 active torsions:
REMARK  status: ('A' for Active; 'I' for Inactive)
REMARK    1  A    between atoms: N1_1  and  N2_4 
REMARK    2  A    between atoms: N2_4  and  C1_6 
REMARK    3  A    between atoms: C5_10  and  C6_11 
ROOT
HETATM    1  C1  UNL     1      10.698   4.523  -3.169  1.00  0.00     0.119 A 
HETATM    2  C2  UNL     1      12.048   4.702  -3.281  1.00  0.00     0.050 A 
HETATM    3  C3  UNL     1      12.796   3.624  -3.761  1.00  0.00     0.006 A 
HETATM    4  C4  UNL     1      12.161   2.439  -4.098  1.00  0.00     0.033 A 
HETATM    5  C5  UNL     1      10.798   2.312  -3.965  1.00  0.00     0.079 A 
HETATM    6  N6  UNL     1      10.109   3.366  -3.501  1.00  0.00    -0.338 N 
ATOM      7  H6  UNL     1       9.097   3.284  -3.397  1.00  0.00     0.167 HD
ENDROOT
BRANCH   5   8
HETATM    8  C6  UNL     1      10.122   1.071  -4.316  1.00  0.00     0.141 C 
HETATM    9  N3  UNL     1       8.942   0.693  -3.886  1.00  0.00    -0.286 N 
HETATM   10  N4  UNL     1       8.616  -0.551  -4.432  1.00  0.00    -0.120 NA
ATOM     11  H3  UNL     1       8.351   1.227  -3.249  1.00  0.00     0.184 HD
HETATM   12  C7  UNL     1       9.454  -0.699  -5.604  1.00  0.00     0.257 C 
HETATM   13  N5  UNL     1      10.634   0.060  -5.188  1.00  0.00    -0.359 N 
ATOM     14  H5  UNL     1      11.604  -0.098  -5.460  1.00  0.00     0.162 HD
ENDBRANCH   5   8
BRANCH   1  15
HETATM   15  N2  UNL     1       9.965   5.497  -2.727  1.00  0.00    -0.292 N 
ATOM     16  H2  UNL     1       9.669   5.496  -1.751  1.00  0.00     0.188 HD
BRANCH  15  17
HETATM   17  N1  UNL     1       9.570   6.548  -3.561  1.00  0.00    -0.344 N 
ATOM     18  H12 UNL     1      10.141   7.394  -3.576  1.00  0.00     0.176 HD
ATOM     19  H11 UNL     1       8.734   6.481  -4.143  1.00  0.00     0.176 HD
ENDBRANCH  15  17
ENDBRANCH   1  15
TORSDOF 3
ENDMDL
MODEL 2
REMARK VINA RESULT: -5.475676203      1.496      5.121
REMARK  3 active torsions:
REMARK  status: ('A' for Active; 'I' for Inactive)
REMARK    1  A    between atoms: N1_1  and  N2_4 
REMARK    2  A    between atoms: N2_4  and  C1_6 
REMARK    3  A    between atoms: C5_10  and  C6_11 
ROOT
HETATM    1  C1  UNL     1       8.644  -0.307  -4.522  1.00  0.00     0.119 A 
HETATM    2  C2  UNL     1       9.375  -0.971  -5.467  1.00  0.00     0.050 A 
HETATM    3  C3  UNL     1      10.609  -0.419  -5.822  1.00  0.00     0.006 A 
HETATM    4  C4  UNL     1      11.038   0.754  -5.221  1.00  0.00     0.033 A 
HETATM    5  C5  UNL     1      10.262   1.382  -4.276  1.00  0.00     0.079 A 
HETATM    6  N6  UNL     1       9.083   0.826  -3.957  1.00  0.00    -0.338 N 
ATOM      7  H6  UNL     1       8.498   1.283  -3.258  1.00  0.00     0.167 HD
ENDROOT
BRANCH   5   8
HETATM    8  C6  UNL     1      10.706   2.615  -3.639  1.00  0.00     0.141 C 
HETATM    9  N3  UNL     1      11.953   2.995  -3.494  1.00  0.00    -0.286 N 
HETATM   10  N4  UNL     1      11.997   4.229  -2.839  1.00  0.00    -0.120 NA
ATOM     11  H3  UNL     1      12.767   2.470  -3.812  1.00  0.00     0.184 HD
HETATM   12  C7  UNL     1      10.686   4.817  -3.016  1.00  0.00     0.257 C 
HETATM   13  N5  UNL     1       9.856   3.612  -3.068  1.00  0.00    -0.359 N 
ATOM     14  H5  UNL     1       8.888   3.508  -2.764  1.00  0.00     0.162 HD
ENDBRANCH   5   8
BRANCH   1  15
HETATM   15  N2  UNL     1       7.494  -0.783  -4.162  1.00  0.00    -0.292 N 
ATOM     16  H2  UNL     1       6.691  -0.673  -4.782  1.00  0.00     0.188 HD
BRANCH  15  17
HETATM   17  N1  UNL     1       7.328  -1.445  -2.940  1.00  0.00    -0.344 N 
ATOM     18  H12 UNL     1       8.154  -1.611  -2.365  1.00  0.00     0.176 HD
ATOM     19  H11 UNL     1       6.409  -1.756  -2.624  1.00  0.00     0.176 HD
ENDBRANCH  15  17
ENDBRANCH   1  15
TORSDOF 3
ENDMDL
MODEL 3
REMARK VINA RESULT: -5.372375268      2.156      4.855
REMARK  3 active torsions:
REMARK  status: ('A' for Active; 'I' for Inactive)
REMARK    1  A    between atoms: N1_1  and  N2_4 
REMARK    2  A    between atoms: N2_4  and  C1_6 
REMARK    3  A    between atoms: C5_10  and  C6_11 
ROOT
HETATM    1  C1  UNL     1      10.567   2.415  -3.712  1.00  0.00     0.119 A 
HETATM    2  C2  UNL     1      11.888   2.118  -3.528  1.00  0.00     0.050 A 
HETATM    3  C3  UNL     1      12.822   3.015  -4.053  1.00  0.00     0.006 A 
HETATM    4  C4  UNL     1      12.390   4.147  -4.725  1.00  0.00     0.033 A 
HETATM    5  C5  UNL     1      11.047   4.398  -4.883  1.00  0.00     0.079 A 
HETATM    6  N6  UNL     1      10.176   3.517  -4.367  1.00  0.00    -0.338 N 
ATOM      7  H6  UNL     1       9.177   3.692  -4.478  1.00  0.00     0.167 HD
ENDROOT
BRANCH   5   8
HETATM    8  C6  UNL     1      10.584   5.585  -5.588  1.00  0.00     0.141 C 
HETATM    9  N3  UNL     1       9.406   6.146  -5.451  1.00  0.00    -0.286 N 
HETATM   10  N4  UNL     1       9.316   7.264  -6.285  1.00  0.00    -0.120 NA
ATOM     11  H3  UNL     1       8.668   5.816  -4.830  1.00  0.00     0.184 HD
HETATM   12  C7  UNL     1      10.680   7.642  -6.587  1.00  0.00     0.257 C 
HETATM   13  N5  UNL     1      11.337   6.334  -6.545  1.00  0.00    -0.359 N 
ATOM     14  H5  UNL     1      12.149   6.027  -7.079  1.00  0.00     0.162 HD
ENDBRANCH   5   8
BRANCH   1  15
HETATM   15  N2  UNL     1       9.665   1.611  -3.242  1.00  0.00    -0.292 N 
ATOM     16  H2  UNL     1       9.319   1.749  -2.293  1.00  0.00     0.188 HD
BRANCH  15  17
HETATM   17  N1  UNL     1       9.156   0.558  -4.010  1.00  0.00    -0.344 N 
ATOM     18  H12 UNL     1       8.817   0.765  -4.949  1.00  0.00     0.176 HD
ATOM     19  H11 UNL     1       9.122  -0.396  -3.648  1.00  0.00     0.176 HD
ENDBRANCH  15  17
ENDBRANCH   1  15
TORSDOF 3
ENDMDL
MODEL 4
REMARK VINA RESULT: -5.213755692      2.778      5.689
REMARK  3 active torsions:
REMARK  status: ('A' for Active; 'I' for Inactive)
REMARK    1  A    between atoms: N1_1  and  N2_4 
REMARK    2  A    between atoms: N2_4  and  C1_6 
REMARK    3  A    between atoms: C5_10  and  C6_11 
ROOT
HETATM    1  C1  UNL     1      10.584   3.433  -3.973  1.00  0.00     0.119 A 
HETATM    2  C2  UNL     1      10.428   3.407  -5.331  1.00  0.00     0.050 A 
HETATM    3  C3  UNL     1      11.264   4.236  -6.083  1.00  0.00     0.006 A 
HETATM    4  C4  UNL     1      12.198   5.037  -5.446  1.00  0.00     0.033 A 
HETATM    5  C5  UNL     1      12.312   5.025  -4.075  1.00  0.00     0.079 A 
HETATM    6  N6  UNL     1      11.495   4.218  -3.381  1.00  0.00    -0.338 N 
ATOM      7  H6  UNL     1      11.570   4.200  -2.364  1.00  0.00     0.167 HD
ENDROOT
BRANCH   5   8
HETATM    8  C6  UNL     1      13.291   5.863  -3.397  1.00  0.00     0.141 C 
HETATM    9  N3  UNL     1      14.108   5.472  -2.449  1.00  0.00    -0.286 N 
HETATM   10  N4  UNL     1      14.902   6.545  -2.036  1.00  0.00    -0.120 NA
ATOM     11  H3  UNL     1      14.157   4.526  -2.070  1.00  0.00     0.184 HD
HETATM   12  C7  UNL     1      14.861   7.506  -3.119  1.00  0.00     0.257 C 
HETATM   13  N5  UNL     1      13.522   7.251  -3.653  1.00  0.00    -0.359 N 
ATOM     14  H5  UNL     1      12.894   7.915  -4.105  1.00  0.00     0.162 HD
ENDBRANCH   5   8
BRANCH   1  15
HETATM   15  N2  UNL     1       9.830   2.680  -3.235  1.00  0.00    -0.292 N 
ATOM     16  H2  UNL     1       9.419   3.066  -2.385  1.00  0.00     0.188 HD
BRANCH  15  17
HETATM   17  N1  UNL     1       9.568   1.349  -3.578  1.00  0.00    -0.344 N 
ATOM     18  H12 UNL     1       9.336   1.137  -4.549  1.00  0.00     0.176 HD
ATOM     19  H11 UNL     1       9.605   0.603  -2.883  1.00  0.00     0.176 HD
ENDBRANCH  15  17
ENDBRANCH   1  15
TORSDOF 3
ENDMDL
MODEL 5
REMARK VINA RESULT: -5.047181822      5.444      7.254
REMARK  3 active torsions:
REMARK  status: ('A' for Active; 'I' for Inactive)
REMARK    1  A    between atoms: N1_1  and  N2_4 
REMARK    2  A    between atoms: N2_4  and  C1_6 
REMARK    3  A    between atoms: C5_10  and  C6_11 
ROOT
HETATM    1  C1  UNL     1      14.876  10.241  -1.919  1.00  0.00     0.119 A 
HETATM    2  C2  UNL     1      16.231  10.419  -1.947  1.00  0.00     0.050 A 
HETATM    3  C3  UNL     1      17.007   9.334  -2.366  1.00  0.00     0.006 A 
HETATM    4  C4  UNL     1      16.393   8.146  -2.729  1.00  0.00     0.033 A 
HETATM    5  C5  UNL     1      15.024   8.021  -2.681  1.00  0.00     0.079 A 
HETATM    6  N6  UNL     1      14.308   9.080  -2.274  1.00  0.00    -0.338 N 
ATOM      7  H6  UNL     1      13.292   9.000  -2.233  1.00  0.00     0.167 HD
ENDROOT
BRANCH   5   8
HETATM    8  C6  UNL     1      14.371   6.776  -3.060  1.00  0.00     0.141 C 
HETATM    9  N3  UNL     1      14.076   5.788  -2.249  1.00  0.00    -0.286 N 
HETATM   10  N4  UNL     1      13.456   4.759  -2.963  1.00  0.00    -0.120 NA
ATOM     11  H3  UNL     1      14.270   5.773  -1.248  1.00  0.00     0.184 HD
HETATM   12  C7  UNL     1      12.950   5.369  -4.175  1.00  0.00     0.257 C 
HETATM   13  N5  UNL     1      13.944   6.425  -4.379  1.00  0.00    -0.359 N 
ATOM     14  H5  UNL     1      14.260   6.821  -5.264  1.00  0.00     0.162 HD
ENDBRANCH   5   8
BRANCH   1  15
HETATM   15  N2  UNL     1      14.117  11.220  -1.536  1.00  0.00    -0.292 N 
ATOM     16  H2  UNL     1      13.589  11.744  -2.234  1.00  0.00     0.188 HD
BRANCH  15  17
HETATM   17  N1  UNL     1      14.006  11.572  -0.187  1.00  0.00    -0.344 N 
ATOM     18  H12 UNL     1      13.793  10.838   0.489  1.00  0.00     0.176 HD
ATOM     19  H11 UNL     1      14.133  12.536   0.124  1.00  0.00     0.176 HD
ENDBRANCH  15  17
ENDBRANCH   1  15
TORSDOF 3
ENDMDL
