MODEL 1
REMARK VINA RESULT: -6.261582690      0.000      0.000
REMARK  2 active torsions:
REMARK  status: ('A' for Active; 'I' for Inactive)
REMARK    1  A    between atoms: C1_2  and  C2_4 
REMARK    2  A    between atoms: N5_13  and  N6_14 
ROOT
HETATM    1  C2  UNL     1      10.296   6.089  -4.659  1.00  0.00     0.190 A 
HETATM    2  N2  UNL     1       9.714   6.235  -3.454  1.00  0.00    -0.280 N 
ATOM      3  H2  UNL     1       9.040   6.958  -3.202  1.00  0.00     0.189 HD
HETATM    4  N3  UNL     1      10.155   5.294  -2.661  1.00  0.00    -0.286 N 
ATOM      5  H3  UNL     1       9.888   5.155  -1.687  1.00  0.00     0.188 HD
HETATM    6  C3  UNL     1      11.017   4.551  -3.353  1.00  0.00     0.115 A 
HETATM    7  N4  UNL     1      11.120   5.026  -4.602  1.00  0.00    -0.314 N 
HETATM    8  C4  UNL     1      11.970   4.450  -5.612  1.00  0.00     0.148 C 
HETATM    9  C5  UNL     1      13.005   3.520  -5.053  1.00  0.00     0.134 C 
HETATM   10  N5  UNL     1      13.177   3.646  -3.617  1.00  0.00    -0.229 NA
HETATM   11  C6  UNL     1      11.858   3.342  -3.041  1.00  0.00     0.191 C 
ENDROOT
BRANCH   1  12
HETATM   12  C1  UNL     1      10.033   6.968  -5.789  1.00  0.00     0.300 C 
HETATM   13  N1  UNL     1      11.005   7.903  -6.197  1.00  0.00    -0.054 NA
HETATM   14  O1  UNL     1       8.928   6.857  -6.367  1.00  0.00    -0.268 OA
ENDBRANCH   1  12
BRANCH  10  15
HETATM   15  N6  UNL     1      13.516   4.943  -3.244  1.00  0.00    -0.363 NA
ATOM     16  H62 UNL     1      13.092   5.127  -2.335  1.00  0.00     0.171 HD
ATOM     17  H61 UNL     1      13.116   5.639  -3.873  1.00  0.00     0.171 HD
ENDBRANCH  10  15
TORSDOF 2
ENDMDL
MODEL 2
REMARK VINA RESULT: -6.135945457      1.874      2.560
REMARK  2 active torsions:
REMARK  status: ('A' for Active; 'I' for Inactive)
REMARK    1  A    between atoms: C1_2  and  C2_4 
REMARK    2  A    between atoms: N5_13  and  N6_14 
ROOT
HETATM    1  C2  UNL     1      10.098   4.931  -5.957  1.00  0.00     0.190 A 
HETATM    2  N2  UNL     1       9.558   3.934  -6.683  1.00  0.00    -0.280 N 
ATOM      3  H2  UNL     1       9.021   4.047  -7.543  1.00  0.00     0.189 HD
HETATM    4  N3  UNL     1       9.838   2.796  -6.103  1.00  0.00    -0.286 N 
ATOM      5  H3  UNL     1       9.559   1.871  -6.429  1.00  0.00     0.188 HD
HETATM    6  C3  UNL     1      10.551   3.063  -5.010  1.00  0.00     0.115 A 
HETATM    7  N4  UNL     1      10.727   4.386  -4.898  1.00  0.00    -0.314 N 
HETATM    8  C4  UNL     1      11.458   5.011  -3.826  1.00  0.00     0.148 C 
HETATM    9  C5  UNL     1      11.677   4.102  -2.653  1.00  0.00     0.134 C 
HETATM   10  N5  UNL     1      10.834   2.921  -2.675  1.00  0.00    -0.229 NA
HETATM   11  C6  UNL     1      11.175   2.225  -3.926  1.00  0.00     0.191 C 
ENDROOT
BRANCH   1  12
HETATM   12  C1  UNL     1       9.982   6.337  -6.314  1.00  0.00     0.300 C 
HETATM   13  N1  UNL     1      11.095   7.028  -6.832  1.00  0.00    -0.054 NA
HETATM   14  O1  UNL     1       8.871   6.889  -6.143  1.00  0.00    -0.268 OA
ENDBRANCH   1  12
BRANCH  10  15
HETATM   15  N6  UNL     1       9.482   3.245  -2.722  1.00  0.00    -0.363 NA
ATOM     16  H62 UNL     1       9.108   3.162  -1.777  1.00  0.00     0.171 HD
ATOM     17  H61 UNL     1       8.949   2.580  -3.282  1.00  0.00     0.171 HD
ENDBRANCH  10  15
TORSDOF 2
ENDMDL
MODEL 3
REMARK VINA RESULT: -5.545164916      2.193      4.186
REMARK  2 active torsions:
REMARK  status: ('A' for Active; 'I' for Inactive)
REMARK    1  A    between atoms: C1_2  and  C2_4 
REMARK    2  A    between atoms: N5_13  and  N6_14 
ROOT
HETATM    1  C2  UNL     1      11.977   4.247  -3.654  1.00  0.00     0.190 A 
HETATM    2  N2  UNL     1      12.702   5.154  -2.971  1.00  0.00    -0.280 N 
ATOM      3  H2  UNL     1      13.290   4.958  -2.160  1.00  0.00     0.189 HD
HETATM    4  N3  UNL     1      12.527   6.327  -3.521  1.00  0.00    -0.286 N 
ATOM      5  H3  UNL     1      12.952   7.203  -3.218  1.00  0.00     0.188 HD
HETATM    6  C3  UNL     1      11.694   6.173  -4.549  1.00  0.00     0.115 A 
HETATM    7  N4  UNL     1      11.338   4.884  -4.652  1.00  0.00    -0.314 N 
HETATM    8  C4  UNL     1      10.445   4.377  -5.661  1.00  0.00     0.148 C 
HETATM    9  C5  UNL     1       9.654   5.452  -6.345  1.00  0.00     0.134 C 
HETATM   10  N5  UNL     1       9.678   6.720  -5.640  1.00  0.00    -0.229 NA
HETATM   11  C6  UNL     1      11.097   7.100  -5.574  1.00  0.00     0.191 C 
ENDROOT
BRANCH   1  12
HETATM   12  C1  UNL     1      11.938   2.833  -3.313  1.00  0.00     0.300 C 
HETATM   13  N1  UNL     1      12.926   1.959  -3.809  1.00  0.00    -0.054 NA
HETATM   14  O1  UNL     1      11.005   2.438  -2.576  1.00  0.00    -0.268 OA
ENDBRANCH   1  12
BRANCH  10  15
HETATM   15  N6  UNL     1       9.207   6.602  -4.336  1.00  0.00    -0.363 NA
ATOM     16  H62 UNL     1       9.487   7.440  -3.826  1.00  0.00     0.171 HD
ATOM     17  H61 UNL     1       9.645   5.826  -3.841  1.00  0.00     0.171 HD
ENDBRANCH  10  15
TORSDOF 2
ENDMDL
MODEL 4
REMARK VINA RESULT: -5.431270382      2.772      3.287
REMARK  2 active torsions:
REMARK  status: ('A' for Active; 'I' for Inactive)
REMARK    1  A    between atoms: C1_2  and  C2_4 
REMARK    2  A    between atoms: N5_13  and  N6_14 
ROOT
HETATM    1  C2  UNL     1      12.532   4.738  -3.175  1.00  0.00     0.190 A 
HETATM    2  N2  UNL     1      11.540   4.604  -2.275  1.00  0.00    -0.280 N 
ATOM      3  H2  UNL     1      11.377   5.214  -1.473  1.00  0.00     0.189 HD
HETATM    4  N3  UNL     1      10.820   3.562  -2.600  1.00  0.00    -0.286 N 
ATOM      5  H3  UNL     1      10.001   3.218  -2.099  1.00  0.00     0.188 HD
HETATM    6  C3  UNL     1      11.349   3.031  -3.701  1.00  0.00     0.115 A 
HETATM    7  N4  UNL     1      12.417   3.747  -4.079  1.00  0.00    -0.314 N 
HETATM    8  C4  UNL     1      13.219   3.441  -5.234  1.00  0.00     0.148 C 
HETATM    9  C5  UNL     1      12.998   2.053  -5.757  1.00  0.00     0.134 C 
HETATM   10  N5  UNL     1      12.302   1.190  -4.821  1.00  0.00    -0.229 NA
HETATM   11  C6  UNL     1      11.012   1.849  -4.570  1.00  0.00     0.191 C 
ENDROOT
BRANCH   1  12
HETATM   12  C1  UNL     1      13.527   5.798  -3.119  1.00  0.00     0.300 C 
HETATM   13  N1  UNL     1      14.605   5.708  -2.216  1.00  0.00    -0.054 NA
HETATM   14  O1  UNL     1      13.383   6.772  -3.894  1.00  0.00    -0.268 OA
ENDBRANCH   1  12
BRANCH  10  15
HETATM   15  N6  UNL     1      12.973   1.091  -3.606  1.00  0.00    -0.363 NA
ATOM     16  H62 UNL     1      13.597   0.286  -3.659  1.00  0.00     0.171 HD
ATOM     17  H61 UNL     1      12.338   0.889  -2.834  1.00  0.00     0.171 HD
ENDBRANCH  10  15
TORSDOF 2
ENDMDL
MODEL 5
REMARK VINA RESULT: -5.258376901      2.267      3.853
REMARK  2 active torsions:
REMARK  status: ('A' for Active; 'I' for Inactive)
REMARK    1  A    between atoms: C1_2  and  C2_4 
REMARK    2  A    between atoms: N5_13  and  N6_14 
ROOT
HETATM    1  C2  UNL     1      11.789   5.207  -3.710  1.00  0.00     0.190 A 
HETATM    2  N2  UNL     1      10.764   5.452  -2.873  1.00  0.00    -0.280 N 
ATOM      3  H2  UNL     1      10.762   5.280  -1.867  1.00  0.00     0.189 HD
HETATM    4  N3  UNL     1       9.771   5.948  -3.564  1.00  0.00    -0.286 N 
ATOM      5  H3  UNL     1       8.864   6.230  -3.194  1.00  0.00     0.188 HD
HETATM    6  C3  UNL     1      10.158   6.019  -4.837  1.00  0.00     0.115 A 
HETATM    7  N4  UNL     1      11.413   5.563  -4.953  1.00  0.00    -0.314 N 
HETATM    8  C4  UNL     1      12.132   5.503  -6.198  1.00  0.00     0.148 C 
HETATM    9  C5  UNL     1      11.245   5.631  -7.400  1.00  0.00     0.134 C 
HETATM   10  N5  UNL     1       9.838   5.443  -7.099  1.00  0.00    -0.229 NA
HETATM   11  C6  UNL     1       9.510   6.484  -6.113  1.00  0.00     0.191 C 
ENDROOT
BRANCH   1  12
HETATM   12  C1  UNL     1      13.062   4.649  -3.277  1.00  0.00     0.300 C 
HETATM   13  N1  UNL     1      13.970   5.443  -2.550  1.00  0.00    -0.054 NA
HETATM   14  O1  UNL     1      13.305   3.457  -3.575  1.00  0.00    -0.268 OA
ENDBRANCH   1  12
BRANCH  10  15
HETATM   15  N6  UNL     1       9.591   4.206  -6.512  1.00  0.00    -0.363 NA
ATOM     16  H62 UNL     1      10.469   3.689  -6.493  1.00  0.00     0.171 HD
ATOM     17  H61 UNL     1       8.955   3.638  -7.071  1.00  0.00     0.171 HD
ENDBRANCH  10  15
TORSDOF 2
ENDMDL
