MODEL 1
REMARK VINA RESULT: -4.904221111      0.000      0.000
REMARK  2 active torsions:
REMARK  status: ('A' for Active; 'I' for Inactive)
REMARK    1  A    between atoms: N1_1  and  C1_4 
REMARK    2  A    between atoms: C2_7  and  N3_8 
ROOT
HETATM    1  C1  UNL     1      10.261   2.486  -3.445  1.00  0.00     0.705 A 
HETATM    2  N2  UNL     1      10.262   3.501  -4.328  1.00  0.00    -0.020 N 
ATOM      3  H2  UNL     1       9.825   3.477  -5.249  1.00  0.00     0.203 HD
HETATM    4  C2  UNL     1      10.928   4.555  -3.813  1.00  0.00     0.710 A 
HETATM    5  N5  UNL     1      11.349   4.191  -2.589  1.00  0.00    -0.117 N 
ATOM      6  H5  UNL     1      11.884   4.767  -1.940  1.00  0.00     0.206 HD
HETATM    7  N6  UNL     1      10.943   2.949  -2.381  1.00  0.00    -0.118 N 
ATOM      8  H6  UNL     1      11.122   2.415  -1.530  1.00  0.00     0.206 HD
ENDROOT
BRANCH   4   9
HETATM    9  N3  UNL     1      11.147   5.808  -4.436  1.00  0.00    -0.213 N 
HETATM   10  C3  UNL     1      12.454   6.419  -4.447  1.00  0.00     0.160 C 
HETATM   11  C4  UNL     1      12.340   7.911  -4.722  1.00  0.00     0.134 C 
HETATM   12  N4  UNL     1      11.664   8.154  -5.956  1.00  0.00    -0.418 N 
HETATM   13  C5  UNL     1      10.480   7.408  -6.172  1.00  0.00     0.134 C 
ATOM     14  H4  UNL     1      12.013   8.824  -6.641  1.00  0.00     0.153 HD
HETATM   15  C6  UNL     1      10.066   6.502  -5.073  1.00  0.00     0.160 C 
ENDBRANCH   4   9
BRANCH   1  16
HETATM   16  N1  UNL     1       9.717   1.319  -3.599  1.00  0.00    -0.233 N 
ATOM     17  H12 UNL     1       8.725   1.091  -3.651  1.00  0.00     0.174 HD
ATOM     18  H11 UNL     1      10.200   0.425  -3.694  1.00  0.00     0.174 HD
ENDBRANCH   1  16
TORSDOF 2
ENDMDL
MODEL 2
REMARK VINA RESULT: -4.867291653      0.285      1.431
REMARK  2 active torsions:
REMARK  status: ('A' for Active; 'I' for Inactive)
REMARK    1  A    between atoms: N1_1  and  C1_4 
REMARK    2  A    between atoms: C2_7  and  N3_8 
ROOT
HETATM    1  C1  UNL     1      10.237   2.421  -3.409  1.00  0.00     0.705 A 
HETATM    2  N2  UNL     1      10.296   3.427  -4.301  1.00  0.00    -0.020 N 
ATOM      3  H2  UNL     1       9.879   3.410  -5.232  1.00  0.00     0.203 HD
HETATM    4  C2  UNL     1      10.989   4.460  -3.781  1.00  0.00     0.710 A 
HETATM    5  N5  UNL     1      11.368   4.093  -2.545  1.00  0.00    -0.117 N 
ATOM      6  H5  UNL     1      11.910   4.655  -1.889  1.00  0.00     0.206 HD
HETATM    7  N6  UNL     1      10.912   2.869  -2.335  1.00  0.00    -0.118 N 
ATOM      8  H6  UNL     1      11.052   2.337  -1.475  1.00  0.00     0.206 HD
ENDROOT
BRANCH   4   9
HETATM    9  N3  UNL     1      11.269   5.698  -4.409  1.00  0.00    -0.213 N 
HETATM   10  C3  UNL     1      10.213   6.511  -4.963  1.00  0.00     0.160 C 
HETATM   11  C4  UNL     1      10.779   7.499  -5.973  1.00  0.00     0.134 C 
HETATM   12  N4  UNL     1      11.782   8.322  -5.376  1.00  0.00    -0.418 N 
HETATM   13  C5  UNL     1      12.745   7.650  -4.584  1.00  0.00     0.134 C 
ATOM     14  H4  UNL     1      11.804   9.333  -5.512  1.00  0.00     0.153 HD
HETATM   15  C6  UNL     1      12.618   6.175  -4.509  1.00  0.00     0.160 C 
ENDBRANCH   4   9
BRANCH   1  16
HETATM   16  N1  UNL     1       9.654   1.274  -3.566  1.00  0.00    -0.233 N 
ATOM     17  H12 UNL     1       8.856   1.051  -4.161  1.00  0.00     0.174 HD
ATOM     18  H11 UNL     1       9.899   0.394  -3.112  1.00  0.00     0.174 HD
ENDBRANCH   1  16
TORSDOF 2
ENDMDL
MODEL 3
REMARK VINA RESULT: -4.825044375      1.825      1.953
REMARK  2 active torsions:
REMARK  status: ('A' for Active; 'I' for Inactive)
REMARK    1  A    between atoms: N1_1  and  C1_4 
REMARK    2  A    between atoms: C2_7  and  N3_8 
ROOT
HETATM    1  C1  UNL     1      10.031   2.254  -3.594  1.00  0.00     0.705 A 
HETATM    2  N2  UNL     1      11.101   2.802  -4.199  1.00  0.00    -0.020 N 
ATOM      3  H2  UNL     1      11.703   2.325  -4.870  1.00  0.00     0.203 HD
HETATM    4  C2  UNL     1      11.259   4.076  -3.786  1.00  0.00     0.710 A 
HETATM    5  N5  UNL     1      10.272   4.327  -2.909  1.00  0.00    -0.117 N 
ATOM      6  H5  UNL     1      10.113   5.205  -2.415  1.00  0.00     0.206 HD
HETATM    7  N6  UNL     1       9.543   3.227  -2.802  1.00  0.00    -0.118 N 
ATOM      8  H6  UNL     1       8.724   3.130  -2.202  1.00  0.00     0.206 HD
ENDROOT
BRANCH   4   9
HETATM    9  N3  UNL     1      12.268   4.983  -4.193  1.00  0.00    -0.213 N 
HETATM   10  C3  UNL     1      13.235   5.496  -3.253  1.00  0.00     0.160 C 
HETATM   11  C4  UNL     1      13.873   6.769  -3.790  1.00  0.00     0.134 C 
HETATM   12  N4  UNL     1      14.485   6.538  -5.059  1.00  0.00    -0.418 N 
HETATM   13  C5  UNL     1      13.713   5.807  -5.996  1.00  0.00     0.134 C 
ATOM     14  H4  UNL     1      15.421   6.878  -5.279  1.00  0.00     0.153 HD
HETATM   15  C6  UNL     1      12.353   5.412  -5.559  1.00  0.00     0.160 C 
ENDBRANCH   4   9
BRANCH   1  16
HETATM   16  N1  UNL     1       9.581   1.049  -3.748  1.00  0.00    -0.233 N 
ATOM     17  H12 UNL     1       9.500   0.314  -3.046  1.00  0.00     0.174 HD
ATOM     18  H11 UNL     1       9.229   0.631  -4.610  1.00  0.00     0.174 HD
ENDBRANCH   1  16
TORSDOF 2
ENDMDL
MODEL 4
REMARK VINA RESULT: -4.777078561      1.726      2.808
REMARK  2 active torsions:
REMARK  status: ('A' for Active; 'I' for Inactive)
REMARK    1  A    between atoms: N1_1  and  C1_4 
REMARK    2  A    between atoms: C2_7  and  N3_8 
ROOT
HETATM    1  C1  UNL     1       9.854   0.445  -5.171  1.00  0.00     0.705 A 
HETATM    2  N2  UNL     1      10.623   1.544  -5.285  1.00  0.00    -0.020 N 
ATOM      3  H2  UNL     1      11.220   1.760  -6.083  1.00  0.00     0.203 HD
HETATM    4  C2  UNL     1      10.486   2.315  -4.188  1.00  0.00     0.710 A 
HETATM    5  N5  UNL     1       9.618   1.688  -3.376  1.00  0.00    -0.117 N 
ATOM      6  H5  UNL     1       9.302   2.015  -2.462  1.00  0.00     0.206 HD
HETATM    7  N6  UNL     1       9.247   0.568  -3.976  1.00  0.00    -0.118 N 
ATOM      8  H6  UNL     1       8.590  -0.109  -3.587  1.00  0.00     0.206 HD
ENDROOT
BRANCH   4   9
HETATM    9  N3  UNL     1      11.130   3.550  -3.931  1.00  0.00    -0.213 N 
HETATM   10  C3  UNL     1      12.567   3.637  -3.825  1.00  0.00     0.160 C 
HETATM   11  C4  UNL     1      12.968   4.907  -3.089  1.00  0.00     0.134 C 
HETATM   12  N4  UNL     1      12.445   6.063  -3.743  1.00  0.00    -0.418 N 
HETATM   13  C5  UNL     1      11.085   5.995  -4.131  1.00  0.00     0.134 C 
ATOM     14  H4  UNL     1      13.017   6.889  -3.921  1.00  0.00     0.153 HD
HETATM   15  C6  UNL     1      10.362   4.751  -3.771  1.00  0.00     0.160 C 
ENDBRANCH   4   9
BRANCH   1  16
HETATM   16  N1  UNL     1       9.735  -0.516  -6.032  1.00  0.00    -0.233 N 
ATOM     17  H12 UNL     1      10.230  -1.407  -6.051  1.00  0.00     0.174 HD
ATOM     18  H11 UNL     1       9.118  -0.538  -6.845  1.00  0.00     0.174 HD
ENDBRANCH   1  16
TORSDOF 2
ENDMDL
MODEL 5
REMARK VINA RESULT: -4.752354699      2.260      4.994
REMARK  2 active torsions:
REMARK  status: ('A' for Active; 'I' for Inactive)
REMARK    1  A    between atoms: N1_1  and  C1_4 
REMARK    2  A    between atoms: C2_7  and  N3_8 
ROOT
HETATM    1  C1  UNL     1      10.267   5.244  -3.487  1.00  0.00     0.705 A 
HETATM    2  N2  UNL     1      10.336   4.232  -4.371  1.00  0.00    -0.020 N 
ATOM      3  H2  UNL     1       9.896   4.227  -5.291  1.00  0.00     0.203 HD
HETATM    4  C2  UNL     1      11.074   3.227  -3.859  1.00  0.00     0.710 A 
HETATM    5  N5  UNL     1      11.471   3.617  -2.636  1.00  0.00    -0.117 N 
ATOM      6  H5  UNL     1      12.046   3.078  -1.988  1.00  0.00     0.206 HD
HETATM    7  N6  UNL     1      10.981   4.828  -2.425  1.00  0.00    -0.118 N 
ATOM      8  H6  UNL     1      11.124   5.372  -1.573  1.00  0.00     0.206 HD
ENDROOT
BRANCH   4   9
HETATM    9  N3  UNL     1      11.377   1.991  -4.483  1.00  0.00    -0.213 N 
HETATM   10  C3  UNL     1      12.630   1.319  -4.241  1.00  0.00     0.160 C 
HETATM   11  C4  UNL     1      12.918   0.317  -5.350  1.00  0.00     0.134 C 
HETATM   12  N4  UNL     1      11.856  -0.632  -5.469  1.00  0.00    -0.418 N 
HETATM   13  C5  UNL     1      10.544  -0.099  -5.461  1.00  0.00     0.134 C 
ATOM     14  H4  UNL     1      12.033  -1.633  -5.554  1.00  0.00     0.153 HD
HETATM   15  C6  UNL     1      10.436   1.377  -5.375  1.00  0.00     0.160 C 
ENDBRANCH   4   9
BRANCH   1  16
HETATM   16  N1  UNL     1       9.643   6.370  -3.638  1.00  0.00    -0.233 N 
ATOM     17  H12 UNL     1       9.443   7.078  -2.931  1.00  0.00     0.174 HD
ATOM     18  H11 UNL     1       9.243   6.739  -4.502  1.00  0.00     0.174 HD
ENDBRANCH   1  16
TORSDOF 2
ENDMDL
