MODEL 1
REMARK VINA RESULT: -5.218651219      0.000      0.000
REMARK  3 active torsions:
REMARK  status: ('A' for Active; 'I' for Inactive)
REMARK    1  A    between atoms: N1_1  and  C1_4 
REMARK    2  A    between atoms: C2_9  and  N4_10 
REMARK    3  A    between atoms: N5_16  and  N6_17 
ROOT
HETATM    1  C1  UNL     1      10.189   1.979  -3.620  1.00  0.00     0.727 A 
HETATM    2  N2  UNL     1      10.720   2.125  -2.389  1.00  0.00    -0.116 N 
ATOM      3  H2  UNL     1      10.669   1.442  -1.633  1.00  0.00     0.206 HD
HETATM    4  N3  UNL     1      11.318   3.303  -2.330  1.00  0.00    -0.115 N 
ATOM      5  H3  UNL     1      11.803   3.671  -1.511  1.00  0.00     0.206 HD
HETATM    6  C2  UNL     1      11.194   3.950  -3.509  1.00  0.00     0.738 A 
HETATM    7  N5  UNL     1      10.497   3.129  -4.298  1.00  0.00     0.086 N 
ENDROOT
BRANCH   6   8
HETATM    8  N4  UNL     1      11.693   5.232  -3.870  1.00  0.00    -0.147 N 
HETATM    9  C3  UNL     1      11.081   6.373  -4.458  1.00  0.00     0.151 C 
HETATM   10  C4  UNL     1      12.207   7.161  -5.092  1.00  0.00     0.030 C 
HETATM   11  C5  UNL     1      13.510   6.486  -4.732  1.00  0.00     0.105 C 
HETATM   12  C6  UNL     1      13.088   5.568  -3.662  1.00  0.00     0.238 C 
HETATM   13  O1  UNL     1      13.826   5.158  -2.739  1.00  0.00    -0.273 OA
ENDBRANCH   6   8
BRANCH   7  14
HETATM   14  N6  UNL     1      10.097   3.320  -5.616  1.00  0.00    -0.309 N 
ATOM     15  H62 UNL     1      10.673   3.371  -6.456  1.00  0.00     0.178 HD
ATOM     16  H61 UNL     1       9.113   3.432  -5.860  1.00  0.00     0.178 HD
ENDBRANCH   7  14
BRANCH   1  17
HETATM   17  N1  UNL     1       9.527   0.970  -4.088  1.00  0.00    -0.231 N 
ATOM     18  H12 UNL     1       9.163   0.186  -3.547  1.00  0.00     0.174 HD
ATOM     19  H11 UNL     1       9.258   0.790  -5.055  1.00  0.00     0.174 HD
ENDBRANCH   1  17
TORSDOF 3
ENDMDL
MODEL 2
REMARK VINA RESULT: -5.140687576      2.161      2.750
REMARK  3 active torsions:
REMARK  status: ('A' for Active; 'I' for Inactive)
REMARK    1  A    between atoms: N1_1  and  C1_4 
REMARK    2  A    between atoms: C2_9  and  N4_10 
REMARK    3  A    between atoms: N5_16  and  N6_17 
ROOT
HETATM    1  C1  UNL     1      10.379   3.558  -3.418  1.00  0.00     0.727 A 
HETATM    2  N2  UNL     1      10.965   4.364  -2.510  1.00  0.00    -0.116 N 
ATOM      3  H2  UNL     1      11.065   4.168  -1.513  1.00  0.00     0.206 HD
HETATM    4  N3  UNL     1      11.389   5.453  -3.131  1.00  0.00    -0.115 N 
ATOM      5  H3  UNL     1      11.871   6.231  -2.680  1.00  0.00     0.206 HD
HETATM    6  C2  UNL     1      11.094   5.385  -4.447  1.00  0.00     0.738 A 
HETATM    7  N5  UNL     1      10.470   4.216  -4.616  1.00  0.00     0.086 N 
ENDROOT
BRANCH   6   8
HETATM    8  N4  UNL     1      11.376   6.336  -5.465  1.00  0.00    -0.147 N 
HETATM    9  C3  UNL     1      12.573   6.696  -6.143  1.00  0.00     0.151 C 
HETATM   10  C4  UNL     1      12.345   8.098  -6.664  1.00  0.00     0.030 C 
HETATM   11  C5  UNL     1      10.914   8.480  -6.364  1.00  0.00     0.105 C 
HETATM   12  C6  UNL     1      10.326   7.182  -5.998  1.00  0.00     0.238 C 
HETATM   13  O1  UNL     1       9.119   6.881  -6.133  1.00  0.00    -0.273 OA
ENDBRANCH   6   8
BRANCH   7  14
HETATM   14  N6  UNL     1       9.958   3.664  -5.784  1.00  0.00    -0.309 N 
ATOM     15  H62 UNL     1       9.935   2.685  -6.070  1.00  0.00     0.178 HD
ATOM     16  H61 UNL     1       9.531   4.248  -6.503  1.00  0.00     0.178 HD
ENDBRANCH   7  14
BRANCH   1  17
HETATM   17  N1  UNL     1       9.840   2.398  -3.222  1.00  0.00    -0.231 N 
ATOM     18  H12 UNL     1       9.465   2.049  -2.340  1.00  0.00     0.174 HD
ATOM     19  H11 UNL     1       9.696   1.650  -3.900  1.00  0.00     0.174 HD
ENDBRANCH   1  17
TORSDOF 3
ENDMDL
MODEL 3
REMARK VINA RESULT: -5.055043971      2.974      4.070
REMARK  3 active torsions:
REMARK  status: ('A' for Active; 'I' for Inactive)
REMARK    1  A    between atoms: N1_1  and  C1_4 
REMARK    2  A    between atoms: C2_9  and  N4_10 
REMARK    3  A    between atoms: N5_16  and  N6_17 
ROOT
HETATM    1  C1  UNL     1      12.127   5.071  -3.144  1.00  0.00     0.727 A 
HETATM    2  N2  UNL     1      10.969   4.674  -2.580  1.00  0.00    -0.116 N 
ATOM      3  H2  UNL     1      10.810   4.527  -1.582  1.00  0.00     0.206 HD
HETATM    4  N3  UNL     1      10.073   4.507  -3.539  1.00  0.00    -0.115 N 
ATOM      5  H3  UNL     1       9.109   4.209  -3.392  1.00  0.00     0.206 HD
HETATM    6  C2  UNL     1      10.619   4.789  -4.742  1.00  0.00     0.738 A 
HETATM    7  N5  UNL     1      11.885   5.134  -4.490  1.00  0.00     0.086 N 
ENDROOT
BRANCH   6   8
HETATM    8  N4  UNL     1      10.005   4.743  -6.023  1.00  0.00    -0.147 N 
HETATM    9  C3  UNL     1       9.786   3.687  -6.950  1.00  0.00     0.151 C 
HETATM   10  C4  UNL     1       9.621   4.352  -8.299  1.00  0.00     0.030 C 
HETATM   11  C5  UNL     1       9.627   5.848  -8.086  1.00  0.00     0.105 C 
HETATM   12  C6  UNL     1       9.463   5.945  -6.627  1.00  0.00     0.238 C 
HETATM   13  O1  UNL     1       8.941   6.912  -6.029  1.00  0.00    -0.273 OA
ENDBRANCH   6   8
BRANCH   7  14
HETATM   14  N6  UNL     1      12.877   5.515  -5.386  1.00  0.00    -0.309 N 
ATOM     15  H62 UNL     1      12.777   5.854  -6.343  1.00  0.00     0.178 HD
ATOM     16  H61 UNL     1      13.864   5.479  -5.130  1.00  0.00     0.178 HD
ENDBRANCH   7  14
BRANCH   1  17
HETATM   17  N1  UNL     1      13.246   5.346  -2.555  1.00  0.00    -0.231 N 
ATOM     18  H12 UNL     1      14.140   4.879  -2.712  1.00  0.00     0.174 HD
ATOM     19  H11 UNL     1      13.426   6.061  -1.851  1.00  0.00     0.174 HD
ENDBRANCH   1  17
TORSDOF 3
ENDMDL
MODEL 4
REMARK VINA RESULT: -5.003961210      1.078      1.175
REMARK  3 active torsions:
REMARK  status: ('A' for Active; 'I' for Inactive)
REMARK    1  A    between atoms: N1_1  and  C1_4 
REMARK    2  A    between atoms: C2_9  and  N4_10 
REMARK    3  A    between atoms: N5_16  and  N6_17 
ROOT
HETATM    1  C1  UNL     1      10.280   1.308  -4.503  1.00  0.00     0.727 A 
HETATM    2  N2  UNL     1       9.607   1.582  -3.367  1.00  0.00    -0.116 N 
ATOM      3  H2  UNL     1       9.032   0.923  -2.840  1.00  0.00     0.206 HD
HETATM    4  N3  UNL     1       9.818   2.849  -3.052  1.00  0.00    -0.115 N 
ATOM      5  H3  UNL     1       9.427   3.321  -2.237  1.00  0.00     0.206 HD
HETATM    6  C2  UNL     1      10.627   3.428  -3.966  1.00  0.00     0.738 A 
HETATM    7  N5  UNL     1      10.906   2.474  -4.856  1.00  0.00     0.086 N 
ENDROOT
BRANCH   6   8
HETATM    8  N4  UNL     1      11.104   4.767  -3.999  1.00  0.00    -0.147 N 
HETATM    9  C3  UNL     1      10.456   6.017  -4.206  1.00  0.00     0.151 C 
HETATM   10  C4  UNL     1      11.535   6.964  -4.684  1.00  0.00     0.030 C 
HETATM   11  C5  UNL     1      12.857   6.237  -4.620  1.00  0.00     0.105 C 
HETATM   12  C6  UNL     1      12.513   5.056  -3.813  1.00  0.00     0.238 C 
HETATM   13  O1  UNL     1      13.317   4.422  -3.094  1.00  0.00    -0.273 OA
ENDBRANCH   6   8
BRANCH   7  14
HETATM   14  N6  UNL     1      11.698   2.551  -5.996  1.00  0.00    -0.309 N 
ATOM     15  H62 UNL     1      12.657   2.887  -6.085  1.00  0.00     0.178 HD
ATOM     16  H61 UNL     1      11.348   2.252  -6.906  1.00  0.00     0.178 HD
ENDBRANCH   7  14
BRANCH   1  17
HETATM   17  N1  UNL     1      10.340   0.184  -5.141  1.00  0.00    -0.231 N 
ATOM     18  H12 UNL     1      10.843   0.012  -6.012  1.00  0.00     0.174 HD
ATOM     19  H11 UNL     1       9.910  -0.705  -4.889  1.00  0.00     0.174 HD
ENDBRANCH   1  17
TORSDOF 3
ENDMDL
MODEL 5
REMARK VINA RESULT: -4.978423842      1.635      2.045
REMARK  3 active torsions:
REMARK  status: ('A' for Active; 'I' for Inactive)
REMARK    1  A    between atoms: N1_1  and  C1_4 
REMARK    2  A    between atoms: C2_9  and  N4_10 
REMARK    3  A    between atoms: N5_16  and  N6_17 
ROOT
HETATM    1  C1  UNL     1      10.625   3.707  -3.186  1.00  0.00     0.727 A 
HETATM    2  N2  UNL     1      11.794   3.057  -3.359  1.00  0.00    -0.116 N 
ATOM      3  H2  UNL     1      11.933   2.049  -3.286  1.00  0.00     0.206 HD
HETATM    4  N3  UNL     1      12.730   3.949  -3.639  1.00  0.00    -0.115 N 
ATOM      5  H3  UNL     1      13.710   3.730  -3.817  1.00  0.00     0.206 HD
HETATM    6  C2  UNL     1      12.200   5.192  -3.657  1.00  0.00     0.738 A 
HETATM    7  N5  UNL     1      10.904   5.034  -3.376  1.00  0.00     0.086 N 
ENDROOT
BRANCH   6   8
HETATM    8  N4  UNL     1      12.854   6.426  -3.920  1.00  0.00    -0.147 N 
HETATM    9  C3  UNL     1      12.465   7.589  -4.642  1.00  0.00     0.151 C 
HETATM   10  C4  UNL     1      13.753   8.281  -5.030  1.00  0.00     0.030 C 
HETATM   11  C5  UNL     1      14.897   7.532  -4.389  1.00  0.00     0.105 C 
HETATM   12  C6  UNL     1      14.193   6.675  -3.422  1.00  0.00     0.238 C 
HETATM   13  O1  UNL     1      14.686   6.244  -2.357  1.00  0.00    -0.273 OA
ENDBRANCH   6   8
BRANCH   7  14
HETATM   14  N6  UNL     1       9.913   6.003  -3.270  1.00  0.00    -0.309 N 
ATOM     15  H62 UNL     1       9.323   6.394  -4.004  1.00  0.00     0.178 HD
ATOM     16  H61 UNL     1       9.683   6.431  -2.373  1.00  0.00     0.178 HD
ENDBRANCH   7  14
BRANCH   1  17
HETATM   17  N1  UNL     1       9.468   3.202  -2.904  1.00  0.00    -0.231 N 
ATOM     18  H12 UNL     1       9.051   3.130  -1.976  1.00  0.00     0.174 HD
ATOM     19  H11 UNL     1       8.785   2.801  -3.547  1.00  0.00     0.174 HD
ENDBRANCH   1  17
TORSDOF 3
ENDMDL
