MODEL 1
REMARK VINA RESULT: -6.530731282      0.000      0.000
REMARK  2 active torsions:
REMARK  status: ('A' for Active; 'I' for Inactive)
REMARK    1  A    between atoms: N1_1  and  C1_4 
REMARK    2  A    between atoms: C3_8  and  N3_9 
ROOT
HETATM    1  C1  UNL     1      10.147   1.907  -3.608  1.00  0.00     0.678 A 
HETATM    2  N2  UNL     1      11.445   1.727  -3.894  1.00  0.00    -0.200 N 
ATOM      3  H2  UNL     1      11.786   0.808  -4.176  1.00  0.00     0.183 HD
HETATM    4  C2  UNL     1      12.287   2.759  -3.808  1.00  0.00     0.143 A 
HETATM    5  C3  UNL     1      11.873   4.033  -3.429  1.00  0.00     0.138 A 
HETATM    6  C6  UNL     1      10.528   4.168  -3.144  1.00  0.00     0.289 A 
HETATM    7  O1  UNL     1      10.132   5.325  -2.796  1.00  0.00    -0.265 OA
HETATM    8  N6  UNL     1       9.684   3.127  -3.232  1.00  0.00    -0.154 N 
ATOM      9  H6  UNL     1       8.695   3.253  -3.016  1.00  0.00     0.187 HD
ENDROOT
BRANCH   5  10
HETATM   10  N3  UNL     1      12.791   5.111  -3.345  1.00  0.00    -0.243 N 
HETATM   11  C4  UNL     1      12.965   6.173  -4.126  1.00  0.00     0.133 A 
HETATM   12  C5  UNL     1      13.992   6.955  -3.639  1.00  0.00     0.123 A 
HETATM   13  N4  UNL     1      14.422   6.309  -2.533  1.00  0.00    -0.294 N 
HETATM   14  N5  UNL     1      13.699   5.215  -2.372  1.00  0.00    -0.016 NA
ATOM     15  H4  UNL     1      15.179   6.616  -1.923  1.00  0.00     0.183 HD
ENDBRANCH   5  10
BRANCH   1  16
HETATM   16  N1  UNL     1       9.278   0.928  -3.678  1.00  0.00    -0.234 N 
ATOM     17  H12 UNL     1       9.385   0.260  -4.441  1.00  0.00     0.174 HD
ATOM     18  H11 UNL     1       8.522   0.828  -3.001  1.00  0.00     0.174 HD
ENDBRANCH   1  16
TORSDOF 2
ENDMDL
MODEL 2
REMARK VINA RESULT: -6.444966210      1.341      1.861
REMARK  2 active torsions:
REMARK  status: ('A' for Active; 'I' for Inactive)
REMARK    1  A    between atoms: N1_1  and  C1_4 
REMARK    2  A    between atoms: C3_8  and  N3_9 
ROOT
HETATM    1  C1  UNL     1      10.350   2.266  -3.536  1.00  0.00     0.678 A 
HETATM    2  N2  UNL     1      10.011   3.436  -2.974  1.00  0.00    -0.200 N 
ATOM      3  H2  UNL     1       9.072   3.572  -2.599  1.00  0.00     0.183 HD
HETATM    4  C2  UNL     1      10.909   4.420  -2.910  1.00  0.00     0.143 A 
HETATM    5  C3  UNL     1      12.203   4.287  -3.407  1.00  0.00     0.138 A 
HETATM    6  C6  UNL     1      12.504   3.065  -3.977  1.00  0.00     0.289 A 
HETATM    7  O1  UNL     1      13.682   2.924  -4.436  1.00  0.00    -0.265 OA
HETATM    8  N6  UNL     1      11.597   2.076  -4.040  1.00  0.00    -0.154 N 
ATOM      9  H6  UNL     1      11.845   1.183  -4.465  1.00  0.00     0.187 HD
ENDROOT
BRANCH   5  10
HETATM   10  N3  UNL     1      13.138   5.351  -3.326  1.00  0.00    -0.243 N 
HETATM   11  C4  UNL     1      13.279   6.448  -4.062  1.00  0.00     0.133 A 
HETATM   12  C5  UNL     1      14.343   7.195  -3.599  1.00  0.00     0.123 A 
HETATM   13  N4  UNL     1      14.829   6.491  -2.554  1.00  0.00    -0.294 N 
HETATM   14  N5  UNL     1      14.102   5.397  -2.404  1.00  0.00    -0.016 NA
ATOM     15  H4  UNL     1      15.624   6.759  -1.975  1.00  0.00     0.183 HD
ENDBRANCH   5  10
BRANCH   1  16
HETATM   16  N1  UNL     1       9.506   1.268  -3.624  1.00  0.00    -0.234 N 
ATOM     17  H12 UNL     1       9.883   0.325  -3.525  1.00  0.00     0.174 HD
ATOM     18  H11 UNL     1       8.511   1.415  -3.786  1.00  0.00     0.174 HD
ENDBRANCH   1  16
TORSDOF 2
ENDMDL
MODEL 3
REMARK VINA RESULT: -5.413642916      1.740      5.032
REMARK  2 active torsions:
REMARK  status: ('A' for Active; 'I' for Inactive)
REMARK    1  A    between atoms: N1_1  and  C1_4 
REMARK    2  A    between atoms: C3_8  and  N3_9 
ROOT
HETATM    1  C1  UNL     1      12.781   6.315  -3.870  1.00  0.00     0.678 A 
HETATM    2  N2  UNL     1      11.448   6.321  -4.015  1.00  0.00    -0.200 N 
ATOM      3  H2  UNL     1      10.937   7.204  -4.028  1.00  0.00     0.183 HD
HETATM    4  C2  UNL     1      10.794   5.165  -4.141  1.00  0.00     0.143 A 
HETATM    5  C3  UNL     1      11.443   3.933  -4.129  1.00  0.00     0.138 A 
HETATM    6  C6  UNL     1      12.815   3.978  -3.977  1.00  0.00     0.289 A 
HETATM    7  O1  UNL     1      13.425   2.862  -3.964  1.00  0.00    -0.265 OA
HETATM    8  N6  UNL     1      13.469   5.144  -3.850  1.00  0.00    -0.154 N 
ATOM      9  H6  UNL     1      14.483   5.151  -3.739  1.00  0.00     0.187 HD
ENDROOT
BRANCH   5  10
HETATM   10  N3  UNL     1      10.722   2.718  -4.266  1.00  0.00    -0.243 N 
HETATM   11  C4  UNL     1      10.524   1.933  -5.320  1.00  0.00     0.133 A 
HETATM   12  C5  UNL     1       9.747   0.850  -4.964  1.00  0.00     0.123 A 
HETATM   13  N4  UNL     1       9.491   1.028  -3.649  1.00  0.00    -0.294 N 
HETATM   14  N5  UNL     1      10.076   2.143  -3.249  1.00  0.00    -0.016 NA
ATOM     15  H4  UNL     1       8.937   0.404  -3.063  1.00  0.00     0.183 HD
ENDBRANCH   5  10
BRANCH   1  16
HETATM   16  N1  UNL     1      13.471   7.421  -3.743  1.00  0.00    -0.234 N 
ATOM     17  H12 UNL     1      13.265   8.012  -2.937  1.00  0.00     0.174 HD
ATOM     18  H11 UNL     1      14.187   7.692  -4.416  1.00  0.00     0.174 HD
ENDBRANCH   1  16
TORSDOF 2
ENDMDL
MODEL 4
REMARK VINA RESULT: -5.279383715      2.336      4.002
REMARK  2 active torsions:
REMARK  status: ('A' for Active; 'I' for Inactive)
REMARK    1  A    between atoms: N1_1  and  C1_4 
REMARK    2  A    between atoms: C3_8  and  N3_9 
ROOT
HETATM    1  C1  UNL     1      10.393   5.408  -3.712  1.00  0.00     0.678 A 
HETATM    2  N2  UNL     1       9.988   4.401  -4.499  1.00  0.00    -0.200 N 
ATOM      3  H2  UNL     1       9.029   4.375  -4.847  1.00  0.00     0.183 HD
HETATM    4  C2  UNL     1      10.847   3.433  -4.824  1.00  0.00     0.143 A 
HETATM    5  C3  UNL     1      12.165   3.421  -4.376  1.00  0.00     0.138 A 
HETATM    6  C6  UNL     1      12.535   4.479  -3.568  1.00  0.00     0.289 A 
HETATM    7  O1  UNL     1      13.736   4.485  -3.150  1.00  0.00    -0.265 OA
HETATM    8  N6  UNL     1      11.667   5.451  -3.243  1.00  0.00    -0.154 N 
ATOM      9  H6  UNL     1      11.965   6.221  -2.645  1.00  0.00     0.187 HD
ENDROOT
BRANCH   5  10
HETATM   10  N3  UNL     1      13.057   2.378  -4.738  1.00  0.00    -0.243 N 
HETATM   11  C4  UNL     1      13.768   2.180  -5.844  1.00  0.00     0.133 A 
HETATM   12  C5  UNL     1      14.497   1.014  -5.736  1.00  0.00     0.123 A 
HETATM   13  N4  UNL     1      14.187   0.527  -4.514  1.00  0.00    -0.294 N 
HETATM   14  N5  UNL     1      13.330   1.348  -3.934  1.00  0.00    -0.016 NA
ATOM     15  H4  UNL     1      14.554  -0.333  -4.107  1.00  0.00     0.183 HD
ENDBRANCH   5  10
BRANCH   1  16
HETATM   16  N1  UNL     1       9.590   6.383  -3.364  1.00  0.00    -0.234 N 
ATOM     17  H12 UNL     1       9.744   7.294  -3.795  1.00  0.00     0.174 HD
ATOM     18  H11 UNL     1       8.838   6.248  -2.688  1.00  0.00     0.174 HD
ENDBRANCH   1  16
TORSDOF 2
ENDMDL
MODEL 5
REMARK VINA RESULT: -5.226412358      2.481      4.251
REMARK  2 active torsions:
REMARK  status: ('A' for Active; 'I' for Inactive)
REMARK    1  A    between atoms: N1_1  and  C1_4 
REMARK    2  A    between atoms: C3_8  and  N3_9 
ROOT
HETATM    1  C1  UNL     1      10.324   5.333  -3.803  1.00  0.00     0.678 A 
HETATM    2  N2  UNL     1      11.319   5.296  -4.702  1.00  0.00    -0.200 N 
ATOM      3  H2  UNL     1      11.601   6.146  -5.191  1.00  0.00     0.183 HD
HETATM    4  C2  UNL     1      11.935   4.139  -4.954  1.00  0.00     0.143 A 
HETATM    5  C3  UNL     1      11.588   2.952  -4.316  1.00  0.00     0.138 A 
HETATM    6  C6  UNL     1      10.558   3.041  -3.400  1.00  0.00     0.289 A 
HETATM    7  O1  UNL     1      10.227   1.966  -2.807  1.00  0.00    -0.265 OA
HETATM    8  N6  UNL     1       9.940   4.207  -3.149  1.00  0.00    -0.154 N 
ATOM      9  H6  UNL     1       9.182   4.246  -2.468  1.00  0.00     0.187 HD
ENDROOT
BRANCH   5  10
HETATM   10  N3  UNL     1      12.261   1.736  -4.604  1.00  0.00    -0.243 N 
HETATM   11  C4  UNL     1      12.032   0.808  -5.528  1.00  0.00     0.133 A 
HETATM   12  C5  UNL     1      12.960  -0.207  -5.419  1.00  0.00     0.123 A 
HETATM   13  N4  UNL     1      13.751   0.160  -4.386  1.00  0.00    -0.294 N 
HETATM   14  N5  UNL     1      13.322   1.316  -3.912  1.00  0.00    -0.016 NA
ATOM     15  H4  UNL     1      14.547  -0.369  -4.031  1.00  0.00     0.183 HD
ENDBRANCH   5  10
BRANCH   1  16
HETATM   16  N1  UNL     1       9.687   6.442  -3.519  1.00  0.00    -0.234 N 
ATOM     17  H12 UNL     1      10.116   7.319  -3.815  1.00  0.00     0.174 HD
ATOM     18  H11 UNL     1       8.796   6.441  -3.022  1.00  0.00     0.174 HD
ENDBRANCH   1  16
TORSDOF 2
ENDMDL
