MODEL 1
REMARK VINA RESULT: -6.054904520      0.000      0.000
REMARK  2 active torsions:
REMARK  status: ('A' for Active; 'I' for Inactive)
REMARK    1  A    between atoms: C3_4  and  N2_5 
REMARK    2  A    between atoms: N3_7  and  N4_9 
ROOT
HETATM    1  N1  UNL     1     -31.724  12.491 -42.714  1.00  0.00    -0.191 NA
HETATM    2  C1  UNL     1     -32.438  11.609 -42.968  1.00  0.00     0.109 C 
HETATM    3  C2  UNL     1     -33.306  10.510 -43.282  1.00  0.00     0.158 A 
HETATM    4  C3  UNL     1     -33.451   9.482 -42.374  1.00  0.00     0.151 A 
HETATM    5  N5  UNL     1     -34.263   8.476 -42.694  1.00  0.00    -0.292 N 
ATOM      6  H5  UNL     1     -34.378   7.710 -42.030  1.00  0.00     0.172 HD
HETATM    7  C4  UNL     1     -34.949   8.426 -43.873  1.00  0.00     0.328 A 
HETATM    8  O1  UNL     1     -35.712   7.467 -44.157  1.00  0.00    -0.247 OA
HETATM    9  N6  UNL     1     -34.802   9.435 -44.752  1.00  0.00    -0.274 N 
ATOM     10  H6  UNL     1     -35.313   9.404 -45.635  1.00  0.00     0.173 HD
HETATM   11  C5  UNL     1     -33.998  10.485 -44.498  1.00  0.00     0.274 A 
HETATM   12  O2  UNL     1     -33.842  11.439 -45.299  1.00  0.00    -0.266 OA
ENDROOT
BRANCH   4  13
HETATM   13  N2  UNL     1     -32.723   9.562 -41.155  1.00  0.00    -0.270 N 
HETATM   14  N3  UNL     1     -33.329   9.789 -40.068  1.00  0.00    -0.248 N 
ATOM     15  H3  UNL     1     -32.808   9.847 -39.194  1.00  0.00     0.207 HD
ATOM     16  H2  UNL     1     -31.711   9.435 -41.158  1.00  0.00     0.190 HD
BRANCH  14  17
HETATM   17  N4  UNL     1     -34.716   9.962 -40.071  1.00  0.00    -0.331 N 
ATOM     18  H42 UNL     1     -35.225   9.877 -40.950  1.00  0.00     0.178 HD
ATOM     19  H41 UNL     1     -35.201  10.170 -39.198  1.00  0.00     0.178 HD
ENDBRANCH  14  17
ENDBRANCH   4  13
TORSDOF 2
ENDMDL
MODEL 2
REMARK VINA RESULT: -6.020351501      1.565      3.340
REMARK  2 active torsions:
REMARK  status: ('A' for Active; 'I' for Inactive)
REMARK    1  A    between atoms: C3_4  and  N2_5 
REMARK    2  A    between atoms: N3_7  and  N4_9 
ROOT
HETATM    1  N1  UNL     1     -35.645   7.651 -44.256  1.00  0.00    -0.191 NA
HETATM    2  C1  UNL     1     -34.912   8.515 -43.992  1.00  0.00     0.109 C 
HETATM    3  C2  UNL     1     -34.019   9.587 -43.653  1.00  0.00     0.158 A 
HETATM    4  C3  UNL     1     -33.335   9.543 -42.456  1.00  0.00     0.151 A 
HETATM    5  N5  UNL     1     -32.513  10.552 -42.170  1.00  0.00    -0.292 N 
ATOM      6  H5  UNL     1     -32.003  10.531 -41.287  1.00  0.00     0.172 HD
HETATM    7  C4  UNL     1     -32.326  11.613 -43.008  1.00  0.00     0.328 A 
HETATM    8  O1  UNL     1     -31.545  12.557 -42.720  1.00  0.00    -0.247 OA
HETATM    9  N6  UNL     1     -32.998  11.645 -44.174  1.00  0.00    -0.274 N 
ATOM     10  H6  UNL     1     -32.861  12.435 -44.805  1.00  0.00     0.173 HD
HETATM   11  C5  UNL     1     -33.845  10.662 -44.532  1.00  0.00     0.274 A 
HETATM   12  O2  UNL     1     -34.485  10.666 -45.612  1.00  0.00    -0.266 OA
ENDROOT
BRANCH   4  13
HETATM   13  N2  UNL     1     -33.552   8.426 -41.605  1.00  0.00    -0.270 N 
HETATM   14  N3  UNL     1     -34.320   8.530 -40.605  1.00  0.00    -0.248 N 
ATOM     15  H3  UNL     1     -34.477   7.729 -39.994  1.00  0.00     0.207 HD
ATOM     16  H2  UNL     1     -33.088   7.539 -41.801  1.00  0.00     0.190 HD
BRANCH  14  17
HETATM   17  N4  UNL     1     -34.954   9.747 -40.341  1.00  0.00    -0.331 N 
ATOM     18  H42 UNL     1     -35.716  10.052 -40.947  1.00  0.00     0.178 HD
ATOM     19  H41 UNL     1     -34.650  10.315 -39.551  1.00  0.00     0.178 HD
ENDBRANCH  14  17
ENDBRANCH   4  13
TORSDOF 2
ENDMDL
MODEL 3
REMARK VINA RESULT: -5.907195727      2.933      4.378
REMARK  2 active torsions:
REMARK  status: ('A' for Active; 'I' for Inactive)
REMARK    1  A    between atoms: C3_4  and  N2_5 
REMARK    2  A    between atoms: N3_7  and  N4_9 
ROOT
HETATM    1  N1  UNL     1     -35.333   8.298 -43.757  1.00  0.00    -0.191 NA
HETATM    2  C1  UNL     1     -35.191   8.812 -42.723  1.00  0.00     0.109 C 
HETATM    3  C2  UNL     1     -35.014   9.430 -41.439  1.00  0.00     0.158 A 
HETATM    4  C3  UNL     1     -33.760   9.446 -40.865  1.00  0.00     0.151 A 
HETATM    5  N5  UNL     1     -33.626  10.027 -39.674  1.00  0.00    -0.292 N 
ATOM      6  H5  UNL     1     -32.704  10.045 -39.239  1.00  0.00     0.172 HD
HETATM    7  C4  UNL     1     -34.673  10.600 -39.009  1.00  0.00     0.328 A 
HETATM    8  O1  UNL     1     -34.526  11.143 -37.884  1.00  0.00    -0.247 OA
HETATM    9  N6  UNL     1     -35.892  10.579 -39.579  1.00  0.00    -0.274 N 
ATOM     10  H6  UNL     1     -36.678  11.006 -39.088  1.00  0.00     0.173 HD
HETATM   11  C5  UNL     1     -36.104  10.010 -40.781  1.00  0.00     0.274 A 
HETATM   12  O2  UNL     1     -37.230   9.976 -41.335  1.00  0.00    -0.266 OA
ENDROOT
BRANCH   4  13
HETATM   13  N2  UNL     1     -32.691   8.841 -41.581  1.00  0.00    -0.270 N 
HETATM   14  N3  UNL     1     -31.872   9.560 -42.225  1.00  0.00    -0.248 N 
ATOM     15  H3  UNL     1     -31.105   9.127 -42.739  1.00  0.00     0.207 HD
ATOM     16  H2  UNL     1     -32.584   7.827 -41.575  1.00  0.00     0.190 HD
BRANCH  14  17
HETATM   17  N4  UNL     1     -32.024  10.949 -42.230  1.00  0.00    -0.331 N 
ATOM     18  H42 UNL     1     -31.651  11.492 -41.450  1.00  0.00     0.178 HD
ATOM     19  H41 UNL     1     -32.502  11.403 -43.007  1.00  0.00     0.178 HD
ENDBRANCH  14  17
ENDBRANCH   4  13
TORSDOF 2
ENDMDL
MODEL 4
REMARK VINA RESULT: -5.827925947      2.356      3.855
REMARK  2 active torsions:
REMARK  status: ('A' for Active; 'I' for Inactive)
REMARK    1  A    between atoms: C3_4  and  N2_5 
REMARK    2  A    between atoms: N3_7  and  N4_9 
ROOT
HETATM    1  N1  UNL     1     -37.772  10.119 -40.535  1.00  0.00    -0.191 NA
HETATM    2  C1  UNL     1     -36.663  10.144 -40.886  1.00  0.00     0.109 C 
HETATM    3  C2  UNL     1     -35.298  10.190 -41.327  1.00  0.00     0.158 A 
HETATM    4  C3  UNL     1     -34.451  11.145 -40.804  1.00  0.00     0.151 A 
HETATM    5  N5  UNL     1     -33.190  11.162 -41.233  1.00  0.00    -0.292 N 
ATOM      6  H5  UNL     1     -32.554  11.864 -40.854  1.00  0.00     0.172 HD
HETATM    7  C4  UNL     1     -32.711  10.280 -42.158  1.00  0.00     0.328 A 
HETATM    8  O1  UNL     1     -31.516  10.312 -42.551  1.00  0.00    -0.247 OA
HETATM    9  N6  UNL     1     -33.547   9.351 -42.661  1.00  0.00    -0.274 N 
ATOM     10  H6  UNL     1     -33.194   8.688 -43.352  1.00  0.00     0.173 HD
HETATM   11  C5  UNL     1     -34.834   9.272 -42.276  1.00  0.00     0.274 A 
HETATM   12  O2  UNL     1     -35.634   8.417 -42.728  1.00  0.00    -0.266 OA
ENDROOT
BRANCH   4  13
HETATM   13  N2  UNL     1     -34.978  12.049 -39.843  1.00  0.00    -0.270 N 
HETATM   14  N3  UNL     1     -34.923  11.769 -38.611  1.00  0.00    -0.248 N 
ATOM     15  H3  UNL     1     -35.301  12.417 -37.921  1.00  0.00     0.207 HD
ATOM     16  H2  UNL     1     -35.402  12.926 -40.148  1.00  0.00     0.190 HD
BRANCH  14  17
HETATM   17  N4  UNL     1     -34.342  10.567 -38.199  1.00  0.00    -0.331 N 
ATOM     18  H42 UNL     1     -34.777   9.685 -38.473  1.00  0.00     0.178 HD
ATOM     19  H41 UNL     1     -33.495  10.582 -37.632  1.00  0.00     0.178 HD
ENDBRANCH  14  17
ENDBRANCH   4  13
TORSDOF 2
ENDMDL
MODEL 5
REMARK VINA RESULT: -5.780693381      2.648      4.105
REMARK  2 active torsions:
REMARK  status: ('A' for Active; 'I' for Inactive)
REMARK    1  A    between atoms: C3_4  and  N2_5 
REMARK    2  A    between atoms: N3_7  and  N4_9 
ROOT
HETATM    1  N1  UNL     1     -36.947   9.891 -40.283  1.00  0.00    -0.191 NA
HETATM    2  C1  UNL     1     -36.015  10.412 -40.745  1.00  0.00     0.109 C 
HETATM    3  C2  UNL     1     -34.857  11.055 -41.299  1.00  0.00     0.158 A 
HETATM    4  C3  UNL     1     -33.680  10.345 -41.414  1.00  0.00     0.151 A 
HETATM    5  N5  UNL     1     -32.623  10.969 -41.932  1.00  0.00    -0.292 N 
ATOM      6  H5  UNL     1     -31.747  10.454 -42.021  1.00  0.00     0.172 HD
HETATM    7  C4  UNL     1     -32.663  12.269 -42.348  1.00  0.00     0.328 A 
HETATM    8  O1  UNL     1     -31.653  12.841 -42.835  1.00  0.00    -0.247 OA
HETATM    9  N6  UNL     1     -33.817  12.952 -42.233  1.00  0.00    -0.274 N 
ATOM     10  H6  UNL     1     -33.853  13.923 -42.543  1.00  0.00     0.173 HD
HETATM   11  C5  UNL     1     -34.926  12.389 -41.719  1.00  0.00     0.274 A 
HETATM   12  O2  UNL     1     -36.015  13.002 -41.599  1.00  0.00    -0.266 OA
ENDROOT
BRANCH   4  13
HETATM   13  N2  UNL     1     -33.671   8.995 -40.971  1.00  0.00    -0.270 N 
HETATM   14  N3  UNL     1     -33.876   8.056 -41.794  1.00  0.00    -0.248 N 
ATOM     15  H3  UNL     1     -33.870   7.087 -41.477  1.00  0.00     0.207 HD
ATOM     16  H2  UNL     1     -33.497   8.783 -39.988  1.00  0.00     0.190 HD
BRANCH  14  17
HETATM   17  N4  UNL     1     -34.114   8.353 -43.139  1.00  0.00    -0.331 N 
ATOM     18  H42 UNL     1     -33.326   8.593 -43.741  1.00  0.00     0.178 HD
ATOM     19  H41 UNL     1     -35.066   8.326 -43.502  1.00  0.00     0.178 HD
ENDBRANCH  14  17
ENDBRANCH   4  13
TORSDOF 2
ENDMDL
