MODEL 1
REMARK VINA RESULT: -8.929375213      0.000      0.000
REMARK  8 active torsions:
REMARK  status: ('A' for Active; 'I' for Inactive)
REMARK    1  A    between atoms: C6_7  and  C7_8 
REMARK    2  A    between atoms: C7_8  and  C8_9 
REMARK    3  A    between atoms: C8_9  and  C9_10 
REMARK    4  A    between atoms: C8_9  and  C21_25 
REMARK    5  A    between atoms: C9_10  and  C10_11 
REMARK       I    between atoms: C10_11  and  N2_13 
REMARK    6  A    between atoms: N2_13  and  C11_15 
REMARK    7  A    between atoms: C21_25  and  O2_26 
REMARK    8  A    between atoms: N3_28  and  O3_30 
ROOT
HETATM    1  C8  UNL     1      14.504   8.738   2.196  1.00  0.00     0.071 C 
ENDROOT
BRANCH   1   2
HETATM    2  C7  UNL     1      15.423   9.873   1.835  1.00  0.00     0.019 C 
BRANCH   2   3
HETATM    3  C6  UNL     1      15.519   9.991   0.336  1.00  0.00     0.012 C 
HETATM    4  C5  UNL     1      16.968  10.100  -0.032  1.00  0.00     0.008 C 
HETATM    5  C4  UNL     1      17.039  10.495  -1.514  1.00  0.00     0.028 C 
HETATM    6  C3  UNL     1      16.448  11.883  -1.584  1.00  0.00     0.236 C 
HETATM    7  N1  UNL     1      15.035  11.815  -1.288  1.00  0.00    -0.074 N 
HETATM    8  C1  UNL     1      14.530  13.179  -1.286  1.00  0.00     0.272 C 
HETATM    9  C2  UNL     1      14.339  11.117  -2.376  1.00  0.00     0.272 C 
HETATM   10  C22 UNL     1      14.724  11.218  -0.043  1.00  0.00     0.241 C 
ENDBRANCH   2   3
ENDBRANCH   1   2
BRANCH   1  11
HETATM   11  C9  UNL     1      14.469   8.577   3.686  1.00  0.00     0.115 C 
BRANCH  11  12
HETATM   12  C10 UNL     1      13.040   8.454   4.116  1.00  0.00     0.218 C 
HETATM   13  O1  UNL     1      12.731   7.651   5.007  1.00  0.00    -0.274 OA
HETATM   14  N2  UNL     1      12.109   9.278   3.465  1.00  0.00    -0.352 N 
ATOM     15  H2  UNL     1      12.436   9.917   2.741  1.00  0.00     0.163 HD
BRANCH  14  16
HETATM   16  C11 UNL     1      10.713   9.250   3.787  1.00  0.00     0.034 C 
HETATM   17  C12 UNL     1      10.000  10.116   2.757  1.00  0.00     0.035 C 
HETATM   18  C13 UNL     1       8.519  10.181   3.050  1.00  0.00    -0.012 C 
HETATM   19  C14 UNL     1       8.016   8.757   2.939  1.00  0.00     0.009 C 
HETATM   20  C18 UNL     1       8.310  10.776   4.402  1.00  0.00     0.009 C 
HETATM   21  C15 UNL     1       8.651   7.906   4.005  1.00  0.00    -0.012 C 
HETATM   22  C16 UNL     1       8.367   8.529   5.352  1.00  0.00     0.009 C 
HETATM   23  C20 UNL     1      10.153   7.857   3.811  1.00  0.00     0.035 C 
HETATM   24  C17 UNL     1       8.980   9.888   5.442  1.00  0.00    -0.012 C 
HETATM   25  C19 UNL     1      10.461   9.904   5.124  1.00  0.00     0.035 C 
ENDBRANCH  14  16
ENDBRANCH  11  12
ENDBRANCH   1  11
BRANCH   1  26
HETATM   26  C21 UNL     1      14.976   7.480   1.520  1.00  0.00     0.140 C 
HETATM   27  N3  UNL     1      14.286   6.887   0.612  1.00  0.00    -0.251 N 
ATOM     28  H3  UNL     1      13.386   7.281   0.339  1.00  0.00     0.196 HD
BRANCH  26  29
HETATM   29  O2  UNL     1      16.196   6.923   1.875  1.00  0.00    -0.348 OA
ATOM     30  H2  UNL     1      16.629   7.205   2.671  1.00  0.00     0.219 HD
ENDBRANCH  26  29
BRANCH  27  31
HETATM   31  O3  UNL     1      14.723   5.742  -0.000  1.00  0.00    -0.288 OA
ATOM     32  H3  UNL     1      15.513   5.293   0.276  1.00  0.00     0.244 HD
ENDBRANCH  27  31
ENDBRANCH   1  26
TORSDOF 8
ENDMDL
MODEL 2
REMARK VINA RESULT: -8.922880911      0.872      1.550
REMARK  8 active torsions:
REMARK  status: ('A' for Active; 'I' for Inactive)
REMARK    1  A    between atoms: C6_7  and  C7_8 
REMARK    2  A    between atoms: C7_8  and  C8_9 
REMARK    3  A    between atoms: C8_9  and  C9_10 
REMARK    4  A    between atoms: C8_9  and  C21_25 
REMARK    5  A    between atoms: C9_10  and  C10_11 
REMARK       I    between atoms: C10_11  and  N2_13 
REMARK    6  A    between atoms: N2_13  and  C11_15 
REMARK    7  A    between atoms: C21_25  and  O2_26 
REMARK    8  A    between atoms: N3_28  and  O3_30 
ROOT
HETATM    1  C8  UNL     1      14.247   8.768   2.342  1.00  0.00     0.071 C 
ENDROOT
BRANCH   1   2
HETATM    2  C7  UNL     1      15.474   9.553   1.965  1.00  0.00     0.019 C 
BRANCH   2   3
HETATM    3  C6  UNL     1      15.086  10.703   1.072  1.00  0.00     0.012 C 
HETATM    4  C5  UNL     1      13.592  10.816   1.078  1.00  0.00     0.008 C 
HETATM    5  C4  UNL     1      13.198  11.796  -0.036  1.00  0.00     0.028 C 
HETATM    6  C3  UNL     1      13.597  11.115  -1.324  1.00  0.00     0.236 C 
HETATM    7  N1  UNL     1      15.038  11.036  -1.394  1.00  0.00    -0.074 N 
HETATM    8  C1  UNL     1      15.369  10.302  -2.606  1.00  0.00     0.272 C 
HETATM    9  C2  UNL     1      15.596  12.384  -1.560  1.00  0.00     0.272 C 
HETATM   10  C22 UNL     1      15.646  10.385  -0.295  1.00  0.00     0.241 C 
ENDBRANCH   2   3
ENDBRANCH   1   2
BRANCH   1  11
HETATM   11  C9  UNL     1      14.098   8.757   3.833  1.00  0.00     0.115 C 
BRANCH  11  12
HETATM   12  C10 UNL     1      12.654   8.534   4.163  1.00  0.00     0.218 C 
HETATM   13  O1  UNL     1      12.316   7.526   4.797  1.00  0.00    -0.274 OA
HETATM   14  N2  UNL     1      11.746   9.509   3.723  1.00  0.00    -0.352 N 
ATOM     15  H2  UNL     1      12.097  10.315   3.207  1.00  0.00     0.163 HD
BRANCH  14  16
HETATM   16  C11 UNL     1      10.339   9.406   3.975  1.00  0.00     0.034 C 
HETATM   17  C12 UNL     1       9.638  10.320   2.979  1.00  0.00     0.035 C 
HETATM   18  C13 UNL     1       8.145  10.309   3.205  1.00  0.00    -0.012 C 
HETATM   19  C14 UNL     1       7.704   8.880   2.967  1.00  0.00     0.009 C 
HETATM   20  C18 UNL     1       7.852  10.793   4.586  1.00  0.00     0.009 C 
HETATM   21  C15 UNL     1       8.324   7.976   3.996  1.00  0.00    -0.012 C 
HETATM   22  C16 UNL     1       7.955   8.484   5.371  1.00  0.00     0.009 C 
HETATM   23  C20 UNL     1       9.834   7.996   3.870  1.00  0.00     0.035 C 
HETATM   24  C17 UNL     1       8.510   9.854   5.589  1.00  0.00    -0.012 C 
HETATM   25  C19 UNL     1      10.002   9.948   5.344  1.00  0.00     0.035 C 
ENDBRANCH  14  16
ENDBRANCH  11  12
ENDBRANCH   1  11
BRANCH   1  26
HETATM   26  C21 UNL     1      14.361   7.372   1.793  1.00  0.00     0.140 C 
HETATM   27  N3  UNL     1      14.631   7.139   0.558  1.00  0.00    -0.251 N 
ATOM     28  H3  UNL     1      14.773   7.927  -0.074  1.00  0.00     0.196 HD
BRANCH  26  29
HETATM   29  O2  UNL     1      14.170   6.284   2.632  1.00  0.00    -0.348 OA
ATOM     30  H2  UNL     1      14.797   5.571   2.630  1.00  0.00     0.219 HD
ENDBRANCH  26  29
BRANCH  27  31
HETATM   31  O3  UNL     1      14.733   5.865   0.065  1.00  0.00    -0.288 OA
ATOM     32  H3  UNL     1      14.183   5.554  -0.645  1.00  0.00     0.244 HD
ENDBRANCH  27  31
ENDBRANCH   1  26
TORSDOF 8
ENDMDL
MODEL 3
REMARK VINA RESULT: -8.874634296      3.754      5.533
REMARK  8 active torsions:
REMARK  status: ('A' for Active; 'I' for Inactive)
REMARK    1  A    between atoms: C6_7  and  C7_8 
REMARK    2  A    between atoms: C7_8  and  C8_9 
REMARK    3  A    between atoms: C8_9  and  C9_10 
REMARK    4  A    between atoms: C8_9  and  C21_25 
REMARK    5  A    between atoms: C9_10  and  C10_11 
REMARK       I    between atoms: C10_11  and  N2_13 
REMARK    6  A    between atoms: N2_13  and  C11_15 
REMARK    7  A    between atoms: C21_25  and  O2_26 
REMARK    8  A    between atoms: N3_28  and  O3_30 
ROOT
HETATM    1  C8  UNL     1      16.708   9.643  -1.423  1.00  0.00     0.071 C 
ENDROOT
BRANCH   1   2
HETATM    2  C7  UNL     1      16.702  11.147  -1.483  1.00  0.00     0.019 C 
BRANCH   2   3
HETATM    3  C6  UNL     1      15.283  11.651  -1.432  1.00  0.00     0.012 C 
HETATM    4  C5  UNL     1      15.314  13.146  -1.525  1.00  0.00     0.008 C 
HETATM    5  C4  UNL     1      13.905  13.659  -1.196  1.00  0.00     0.028 C 
HETATM    6  C3  UNL     1      13.680  13.300   0.254  1.00  0.00     0.236 C 
HETATM    7  N1  UNL     1      13.589  11.863   0.380  1.00  0.00    -0.074 N 
HETATM    8  C1  UNL     1      13.456  11.565   1.798  1.00  0.00     0.272 C 
HETATM    9  C2  UNL     1      12.354  11.392  -0.260  1.00  0.00     0.272 C 
HETATM   10  C22 UNL     1      14.705  11.157  -0.126  1.00  0.00     0.241 C 
ENDBRANCH   2   3
ENDBRANCH   1   2
BRANCH   1  11
HETATM   11  C9  UNL     1      17.997   9.173  -0.820  1.00  0.00     0.115 C 
BRANCH  11  12
HETATM   12  C10 UNL     1      17.791   8.985   0.651  1.00  0.00     0.218 C 
HETATM   13  O1  UNL     1      18.673   9.334   1.447  1.00  0.00    -0.274 OA
HETATM   14  N2  UNL     1      16.576   8.408   1.052  1.00  0.00    -0.352 N 
ATOM     15  H2  UNL     1      15.894   8.147   0.341  1.00  0.00     0.163 HD
BRANCH  14  16
HETATM   16  C11 UNL     1      16.263   8.174   2.431  1.00  0.00     0.034 C 
HETATM   17  C12 UNL     1      15.052   7.253   2.465  1.00  0.00     0.035 C 
HETATM   18  C13 UNL     1      14.622   6.991   3.890  1.00  0.00    -0.012 C 
HETATM   19  C14 UNL     1      15.795   6.298   4.551  1.00  0.00     0.009 C 
HETATM   20  C18 UNL     1      14.259   8.283   4.541  1.00  0.00     0.009 C 
HETATM   21  C15 UNL     1      16.977   7.227   4.598  1.00  0.00    -0.012 C 
HETATM   22  C16 UNL     1      16.565   8.495   5.309  1.00  0.00     0.009 C 
HETATM   23  C20 UNL     1      17.416   7.589   3.195  1.00  0.00     0.035 C 
HETATM   24  C17 UNL     1      15.481   9.191   4.553  1.00  0.00    -0.012 C 
HETATM   25  C19 UNL     1      15.829   9.455   3.103  1.00  0.00     0.035 C 
ENDBRANCH  14  16
ENDBRANCH  11  12
ENDBRANCH   1  11
BRANCH   1  26
HETATM   26  C21 UNL     1      16.516   9.089  -2.808  1.00  0.00     0.140 C 
HETATM   27  N3  UNL     1      15.458   8.443  -3.149  1.00  0.00    -0.251 N 
ATOM     28  H3  UNL     1      14.721   8.300  -2.458  1.00  0.00     0.196 HD
BRANCH  26  29
HETATM   29  O2  UNL     1      17.503   9.268  -3.765  1.00  0.00    -0.348 OA
ATOM     30  H2  UNL     1      18.417   9.168  -3.524  1.00  0.00     0.219 HD
ENDBRANCH  26  29
BRANCH  27  31
HETATM   31  O3  UNL     1      15.290   7.941  -4.412  1.00  0.00    -0.288 OA
ATOM     32  H3  UNL     1      14.982   7.055  -4.565  1.00  0.00     0.244 HD
ENDBRANCH  27  31
ENDBRANCH   1  26
TORSDOF 8
ENDMDL
MODEL 4
REMARK VINA RESULT: -8.861648111      0.946      2.166
REMARK  8 active torsions:
REMARK  status: ('A' for Active; 'I' for Inactive)
REMARK    1  A    between atoms: C6_7  and  C7_8 
REMARK    2  A    between atoms: C7_8  and  C8_9 
REMARK    3  A    between atoms: C8_9  and  C9_10 
REMARK    4  A    between atoms: C8_9  and  C21_25 
REMARK    5  A    between atoms: C9_10  and  C10_11 
REMARK       I    between atoms: C10_11  and  N2_13 
REMARK    6  A    between atoms: N2_13  and  C11_15 
REMARK    7  A    between atoms: C21_25  and  O2_26 
REMARK    8  A    between atoms: N3_28  and  O3_30 
ROOT
HETATM    1  C8  UNL     1      14.186   8.796   2.471  1.00  0.00     0.071 C 
ENDROOT
BRANCH   1   2
HETATM    2  C7  UNL     1      15.350   9.622   1.992  1.00  0.00     0.019 C 
BRANCH   2   3
HETATM    3  C6  UNL     1      14.847  10.773   1.160  1.00  0.00     0.012 C 
HETATM    4  C5  UNL     1      13.348  10.746   1.182  1.00  0.00     0.008 C 
HETATM    5  C4  UNL     1      12.852  11.738   0.121  1.00  0.00     0.028 C 
HETATM    6  C3  UNL     1      13.297  11.160  -1.202  1.00  0.00     0.236 C 
HETATM    7  N1  UNL     1      14.739  11.218  -1.287  1.00  0.00    -0.074 N 
HETATM    8  C1  UNL     1      15.121  10.579  -2.536  1.00  0.00     0.272 C 
HETATM    9  C2  UNL     1      15.168  12.619  -1.390  1.00  0.00     0.272 C 
HETATM   10  C22 UNL     1      15.416  10.574  -0.225  1.00  0.00     0.241 C 
ENDBRANCH   2   3
ENDBRANCH   1   2
BRANCH   1  11
HETATM   11  C9  UNL     1      14.184   8.756   3.969  1.00  0.00     0.115 C 
BRANCH  11  12
HETATM   12  C10 UNL     1      12.773   8.919   4.446  1.00  0.00     0.218 C 
HETATM   13  O1  UNL     1      12.521   8.860   5.656  1.00  0.00    -0.274 OA
HETATM   14  N2  UNL     1      11.794   9.135   3.464  1.00  0.00    -0.352 N 
ATOM     15  H2  UNL     1      12.076   9.174   2.485  1.00  0.00     0.163 HD
BRANCH  14  16
HETATM   16  C11 UNL     1      10.410   9.302   3.795  1.00  0.00     0.034 C 
HETATM   17  C12 UNL     1       9.807   7.910   3.913  1.00  0.00     0.035 C 
HETATM   18  C13 UNL     1       8.329   7.993   4.216  1.00  0.00    -0.012 C 
HETATM   19  C14 UNL     1       8.223   8.698   5.552  1.00  0.00     0.009 C 
HETATM   20  C18 UNL     1       7.639   8.720   3.111  1.00  0.00     0.009 C 
HETATM   21  C15 UNL     1       8.740  10.105   5.430  1.00  0.00    -0.012 C 
HETATM   22  C16 UNL     1       7.975  10.806   4.331  1.00  0.00     0.009 C 
HETATM   23  C20 UNL     1      10.208  10.094   5.055  1.00  0.00     0.035 C 
HETATM   24  C17 UNL     1       8.205  10.131   3.018  1.00  0.00    -0.012 C 
HETATM   25  C19 UNL     1       9.670   9.980   2.666  1.00  0.00     0.035 C 
ENDBRANCH  14  16
ENDBRANCH  11  12
ENDBRANCH   1  11
BRANCH   1  26
HETATM   26  C21 UNL     1      14.282   7.414   1.886  1.00  0.00     0.140 C 
HETATM   27  N3  UNL     1      14.607   7.207   0.660  1.00  0.00    -0.251 N 
ATOM     28  H3  UNL     1      14.809   8.007   0.060  1.00  0.00     0.196 HD
BRANCH  26  29
HETATM   29  O2  UNL     1      14.011   6.310   2.680  1.00  0.00    -0.348 OA
ATOM     30  H2  UNL     1      14.173   6.350   3.615  1.00  0.00     0.219 HD
ENDBRANCH  26  29
BRANCH  27  31
HETATM   31  O3  UNL     1      14.692   5.945   0.134  1.00  0.00    -0.288 OA
ATOM     32  H3  UNL     1      15.281   5.736  -0.581  1.00  0.00     0.244 HD
ENDBRANCH  27  31
ENDBRANCH   1  26
TORSDOF 8
ENDMDL
MODEL 5
REMARK VINA RESULT: -8.861251240      2.481      7.071
REMARK  8 active torsions:
REMARK  status: ('A' for Active; 'I' for Inactive)
REMARK    1  A    between atoms: C6_7  and  C7_8 
REMARK    2  A    between atoms: C7_8  and  C8_9 
REMARK    3  A    between atoms: C8_9  and  C9_10 
REMARK    4  A    between atoms: C8_9  and  C21_25 
REMARK    5  A    between atoms: C9_10  and  C10_11 
REMARK       I    between atoms: C10_11  and  N2_13 
REMARK    6  A    between atoms: N2_13  and  C11_15 
REMARK    7  A    between atoms: C21_25  and  O2_26 
REMARK    8  A    between atoms: N3_28  and  O3_30 
ROOT
HETATM    1  C8  UNL     1      15.685   8.097   3.749  1.00  0.00     0.071 C 
ENDROOT
BRANCH   1   2
HETATM    2  C7  UNL     1      14.608   7.680   4.714  1.00  0.00     0.019 C 
BRANCH   2   3
HETATM    3  C6  UNL     1      13.296   8.302   4.312  1.00  0.00     0.012 C 
HETATM    4  C5  UNL     1      12.717   7.489   3.194  1.00  0.00     0.008 C 
HETATM    5  C4  UNL     1      11.536   8.279   2.612  1.00  0.00     0.028 C 
HETATM    6  C3  UNL     1      12.149   9.517   2.002  1.00  0.00     0.236 C 
HETATM    7  N1  UNL     1      12.673  10.358   3.054  1.00  0.00    -0.074 N 
HETATM    8  C1  UNL     1      13.322  11.492   2.415  1.00  0.00     0.272 C 
HETATM    9  C2  UNL     1      11.562  10.907   3.841  1.00  0.00     0.272 C 
HETATM   10  C22 UNL     1      13.609   9.723   3.903  1.00  0.00     0.241 C 
ENDBRANCH   2   3
ENDBRANCH   1   2
BRANCH   1  11
HETATM   11  C9  UNL     1      15.991   6.962   2.820  1.00  0.00     0.115 C 
BRANCH  11  12
HETATM   12  C10 UNL     1      16.486   7.531   1.525  1.00  0.00     0.218 C 
HETATM   13  O1  UNL     1      17.438   6.997   0.942  1.00  0.00    -0.274 OA
HETATM   14  N2  UNL     1      15.822   8.666   1.036  1.00  0.00    -0.352 N 
ATOM     15  H2  UNL     1      15.043   9.051   1.570  1.00  0.00     0.163 HD
BRANCH  14  16
HETATM   16  C11 UNL     1      16.204   9.302  -0.190  1.00  0.00     0.034 C 
HETATM   17  C12 UNL     1      15.100  10.288  -0.545  1.00  0.00     0.035 C 
HETATM   18  C13 UNL     1      15.400  10.974  -1.857  1.00  0.00    -0.012 C 
HETATM   19  C14 UNL     1      16.694  11.730  -1.638  1.00  0.00     0.009 C 
HETATM   20  C18 UNL     1      15.493   9.950  -2.939  1.00  0.00     0.009 C 
HETATM   21  C15 UNL     1      17.812  10.762  -1.367  1.00  0.00    -0.012 C 
HETATM   22  C16 UNL     1      17.890   9.781  -2.514  1.00  0.00     0.009 C 
HETATM   23  C20 UNL     1      17.538   9.986  -0.095  1.00  0.00     0.035 C 
HETATM   24  C17 UNL     1      16.628   8.988  -2.613  1.00  0.00    -0.012 C 
HETATM   25  C19 UNL     1      16.244   8.300  -1.319  1.00  0.00     0.035 C 
ENDBRANCH  14  16
ENDBRANCH  11  12
ENDBRANCH   1  11
BRANCH   1  26
HETATM   26  C21 UNL     1      16.906   8.521   4.518  1.00  0.00     0.140 C 
HETATM   27  N3  UNL     1      17.161   9.754   4.779  1.00  0.00    -0.251 N 
ATOM     28  H3  UNL     1      16.513  10.472   4.454  1.00  0.00     0.196 HD
BRANCH  26  29
HETATM   29  O2  UNL     1      17.802   7.564   4.969  1.00  0.00    -0.348 OA
ATOM     30  H2  UNL     1      18.646   7.471   4.545  1.00  0.00     0.219 HD
ENDBRANCH  26  29
BRANCH  27  31
HETATM   31  O3  UNL     1      18.275  10.132   5.480  1.00  0.00    -0.288 OA
ATOM     32  H3  UNL     1      18.226  10.433   6.380  1.00  0.00     0.244 HD
ENDBRANCH  27  31
ENDBRANCH   1  26
TORSDOF 8
ENDMDL
