MODEL 1
REMARK VINA RESULT: -9.002674856      0.000      0.000
REMARK  8 active torsions:
REMARK  status: ('A' for Active; 'I' for Inactive)
REMARK    1  A    between atoms: C1_2  and  C2_3 
REMARK       I    between atoms: C1_2  and  N6_27 
REMARK    2  A    between atoms: C2_3  and  C3_4 
REMARK    3  A    between atoms: C3_4  and  C4_5 
REMARK    4  A    between atoms: C4_5  and  C12_20 
REMARK    5  A    between atoms: N1_6  and  N2_8 
REMARK    6  A    between atoms: N2_8  and  C5_10 
REMARK    7  A    between atoms: C5_10  and  N3_12 
REMARK    8  A    between atoms: N3_12  and  C6_14 
ROOT
HETATM    1  C4  UNL     1      13.653   7.418   3.321  1.00  0.00     0.054 C 
HETATM    2  N1  UNL     1      13.538   7.454   2.054  1.00  0.00    -0.300 N 
ATOM      3  H1  UNL     1      12.592   7.435   1.677  1.00  0.00     0.186 HD
ENDROOT
BRANCH   1   4
HETATM    4  C3  UNL     1      12.440   7.353   4.146  1.00  0.00     0.070 C 
BRANCH   4   5
HETATM    5  C2  UNL     1      11.610   8.592   3.933  1.00  0.00     0.109 C 
BRANCH   5   6
HETATM    6  C1  UNL     1      10.280   8.289   3.371  1.00  0.00     0.220 C 
HETATM    7  O1  UNL     1      10.205   7.518   2.387  1.00  0.00    -0.273 OA
HETATM    8  N6  UNL     1       9.142   8.867   3.945  1.00  0.00    -0.343 N 
HETATM    9  C15 UNL     1       9.347   9.769   5.116  1.00  0.00     0.205 C 
HETATM   10  C20 UNL     1       7.812   8.581   3.410  1.00  0.00     0.127 C 
HETATM   11  C16 UNL     1       8.115  10.445   5.361  1.00  0.00    -0.163 C 
HETATM   12  C17 UNL     1       6.812  10.956   5.362  1.00  0.00     0.081 C 
HETATM   13  C18 UNL     1       6.009  10.273   4.205  1.00  0.00     0.013 C 
HETATM   14  C19 UNL     1       6.893   9.678   3.147  1.00  0.00     0.021 C 
ENDBRANCH   5   6
ENDBRANCH   4   5
ENDBRANCH   1   4
BRANCH   1  15
HETATM   15  C12 UNL     1      14.984   7.410   3.901  1.00  0.00     0.072 A 
HETATM   16  C13 UNL     1      15.858   6.346   4.064  1.00  0.00     0.120 A 
HETATM   17  N4  UNL     1      16.983   6.804   4.640  1.00  0.00    -0.360 N 
HETATM   18  C14 UNL     1      16.869   8.123   4.855  1.00  0.00     0.180 A 
ATOM     19  H4  UNL     1      17.797   6.237   4.877  1.00  0.00     0.166 HD
HETATM   20  N5  UNL     1      15.659   8.480   4.406  1.00  0.00    -0.350 N 
ATOM     21  H5  UNL     1      15.290   9.431   4.438  1.00  0.00     0.166 HD
ENDBRANCH   1  15
BRANCH   2  22
HETATM   22  N2  UNL     1      14.572   7.517   1.141  1.00  0.00    -0.276 N 
ATOM     23  H2  UNL     1      14.918   6.636   0.761  1.00  0.00     0.189 HD
BRANCH  22  24
HETATM   24  C5  UNL     1      15.190   8.715   0.688  1.00  0.00     0.186 C 
HETATM   25  S1  UNL     1      16.830   8.760   0.882  1.00  0.00    -0.040 SA
BRANCH  24  26
HETATM   26  N3  UNL     1      14.432   9.743   0.127  1.00  0.00    -0.361 N 
ATOM     27  H3  UNL     1      13.989   9.525  -0.765  1.00  0.00     0.162 HD
BRANCH  26  28
HETATM   28  C6  UNL     1      14.190  11.053   0.625  1.00  0.00     0.083 C 
HETATM   29  C7  UNL     1      12.982  11.691  -0.022  1.00  0.00     0.025 C 
HETATM   30  C8  UNL     1      12.842  13.126   0.453  1.00  0.00     0.002 C 
HETATM   31  C9  UNL     1      13.006  13.224   1.957  1.00  0.00     0.000 C 
HETATM   32  C10 UNL     1      12.807  11.859   2.546  1.00  0.00     0.002 C 
HETATM   33  C11 UNL     1      13.972  10.991   2.120  1.00  0.00     0.025 C 
ENDBRANCH  26  28
ENDBRANCH  24  26
ENDBRANCH  22  24
ENDBRANCH   2  22
TORSDOF 8
ENDMDL
MODEL 2
REMARK VINA RESULT: -8.935544389      3.224      7.888
REMARK  8 active torsions:
REMARK  status: ('A' for Active; 'I' for Inactive)
REMARK    1  A    between atoms: C1_2  and  C2_3 
REMARK       I    between atoms: C1_2  and  N6_27 
REMARK    2  A    between atoms: C2_3  and  C3_4 
REMARK    3  A    between atoms: C3_4  and  C4_5 
REMARK    4  A    between atoms: C4_5  and  C12_20 
REMARK    5  A    between atoms: N1_6  and  N2_8 
REMARK    6  A    between atoms: N2_8  and  C5_10 
REMARK    7  A    between atoms: C5_10  and  N3_12 
REMARK    8  A    between atoms: N3_12  and  C6_14 
ROOT
HETATM    1  C4  UNL     1      12.985   9.963   1.893  1.00  0.00     0.054 C 
HETATM    2  N1  UNL     1      13.064  10.532   3.028  1.00  0.00    -0.300 N 
ATOM      3  H1  UNL     1      13.990  10.839   3.326  1.00  0.00     0.186 HD
ENDROOT
BRANCH   1   4
HETATM    4  C3  UNL     1      14.205   9.786   1.096  1.00  0.00     0.070 C 
BRANCH   4   5
HETATM    5  C2  UNL     1      14.472  11.031   0.289  1.00  0.00     0.109 C 
BRANCH   5   6
HETATM    6  C1  UNL     1      14.106  10.871  -1.131  1.00  0.00     0.220 C 
HETATM    7  O1  UNL     1      12.909  11.028  -1.465  1.00  0.00    -0.273 OA
HETATM    8  N6  UNL     1      15.097  10.548  -2.065  1.00  0.00    -0.343 N 
HETATM    9  C15 UNL     1      16.491  10.385  -1.558  1.00  0.00     0.205 C 
HETATM   10  C20 UNL     1      14.763  10.386  -3.479  1.00  0.00     0.127 C 
HETATM   11  C16 UNL     1      17.266   9.803  -2.604  1.00  0.00    -0.163 C 
HETATM   12  C17 UNL     1      17.767   9.231  -3.779  1.00  0.00     0.081 C 
HETATM   13  C18 UNL     1      16.607   9.151  -4.827  1.00  0.00     0.013 C 
HETATM   14  C19 UNL     1      15.243   9.218  -4.201  1.00  0.00     0.021 C 
ENDBRANCH   5   6
ENDBRANCH   4   5
ENDBRANCH   1   4
BRANCH   1  15
HETATM   15  C12 UNL     1      11.692   9.478   1.444  1.00  0.00     0.072 A 
HETATM   16  C13 UNL     1      11.100   8.243   1.660  1.00  0.00     0.120 A 
HETATM   17  N4  UNL     1       9.894   8.240   1.066  1.00  0.00    -0.360 N 
HETATM   18  C14 UNL     1       9.685   9.425   0.474  1.00  0.00     0.180 A 
ATOM     19  H4  UNL     1       9.240   7.457   1.065  1.00  0.00     0.166 HD
HETATM   20  N5  UNL     1      10.776  10.166   0.707  1.00  0.00    -0.350 N 
ATOM     21  H5  UNL     1      10.904  11.123   0.377  1.00  0.00     0.166 HD
ENDBRANCH   1  15
BRANCH   2  22
HETATM   22  N2  UNL     1      12.019  10.774   3.897  1.00  0.00    -0.276 N 
ATOM     23  H2  UNL     1      11.452  11.605   3.730  1.00  0.00     0.189 HD
BRANCH  22  24
HETATM   24  C5  UNL     1      11.671   9.954   5.005  1.00  0.00     0.186 C 
HETATM   25  S1  UNL     1      12.941   9.513   5.964  1.00  0.00    -0.040 SA
BRANCH  24  26
HETATM   26  N3  UNL     1      10.345   9.580   5.228  1.00  0.00    -0.361 N 
ATOM     27  H3  UNL     1      10.188   8.984   6.042  1.00  0.00     0.162 HD
BRANCH  26  28
HETATM   28  C6  UNL     1       9.181   9.911   4.481  1.00  0.00     0.083 C 
HETATM   29  C7  UNL     1       8.317   8.701   4.212  1.00  0.00     0.025 C 
HETATM   30  C8  UNL     1       7.157   9.087   3.311  1.00  0.00     0.002 C 
HETATM   31  C9  UNL     1       6.498  10.368   3.784  1.00  0.00     0.000 C 
HETATM   32  C10 UNL     1       6.893  10.605   5.212  1.00  0.00     0.002 C 
HETATM   33  C11 UNL     1       8.370  10.936   5.241  1.00  0.00     0.025 C 
ENDBRANCH  26  28
ENDBRANCH  24  26
ENDBRANCH  22  24
ENDBRANCH   2  22
TORSDOF 8
ENDMDL
MODEL 3
REMARK VINA RESULT: -8.918894803      1.587      2.160
REMARK  8 active torsions:
REMARK  status: ('A' for Active; 'I' for Inactive)
REMARK    1  A    between atoms: C1_2  and  C2_3 
REMARK       I    between atoms: C1_2  and  N6_27 
REMARK    2  A    between atoms: C2_3  and  C3_4 
REMARK    3  A    between atoms: C3_4  and  C4_5 
REMARK    4  A    between atoms: C4_5  and  C12_20 
REMARK    5  A    between atoms: N1_6  and  N2_8 
REMARK    6  A    between atoms: N2_8  and  C5_10 
REMARK    7  A    between atoms: C5_10  and  N3_12 
REMARK    8  A    between atoms: N3_12  and  C6_14 
ROOT
HETATM    1  C4  UNL     1      13.298   7.839   2.282  1.00  0.00     0.054 C 
HETATM    2  N1  UNL     1      13.729   7.497   1.135  1.00  0.00    -0.300 N 
ATOM      3  H1  UNL     1      13.030   7.334   0.411  1.00  0.00     0.186 HD
ENDROOT
BRANCH   1   4
HETATM    4  C3  UNL     1      11.851   7.975   2.491  1.00  0.00     0.070 C 
BRANCH   4   5
HETATM    5  C2  UNL     1      11.434   9.404   2.257  1.00  0.00     0.109 C 
BRANCH   5   6
HETATM    6  C1  UNL     1      11.001  10.075   3.498  1.00  0.00     0.220 C 
HETATM    7  O1  UNL     1      11.866  10.370   4.354  1.00  0.00    -0.273 OA
HETATM    8  N6  UNL     1       9.645  10.362   3.688  1.00  0.00    -0.343 N 
HETATM    9  C15 UNL     1       8.701   9.967   2.601  1.00  0.00     0.205 C 
HETATM   10  C20 UNL     1       9.189  11.028   4.907  1.00  0.00     0.127 C 
HETATM   11  C16 UNL     1       7.376  10.101   3.111  1.00  0.00    -0.163 C 
HETATM   12  C17 UNL     1       6.214  10.310   3.863  1.00  0.00     0.081 C 
HETATM   13  C18 UNL     1       6.628  10.819   5.286  1.00  0.00     0.013 C 
HETATM   14  C19 UNL     1       8.051  10.489   5.637  1.00  0.00     0.021 C 
ENDBRANCH   5   6
ENDBRANCH   4   5
ENDBRANCH   1   4
BRANCH   1  15
HETATM   15  C12 UNL     1      14.256   8.049   3.353  1.00  0.00     0.072 A 
HETATM   16  C13 UNL     1      14.869   7.112   4.172  1.00  0.00     0.120 A 
HETATM   17  N4  UNL     1      15.690   7.759   5.017  1.00  0.00    -0.360 N 
HETATM   18  C14 UNL     1      15.630   9.077   4.776  1.00  0.00     0.180 A 
ATOM     19  H4  UNL     1      16.268   7.316   5.732  1.00  0.00     0.166 HD
HETATM   20  N5  UNL     1      14.762   9.243   3.770  1.00  0.00    -0.350 N 
ATOM     21  H5  UNL     1      14.513  10.147   3.367  1.00  0.00     0.166 HD
ENDBRANCH   1  15
BRANCH   2  22
HETATM   22  N2  UNL     1      15.051   7.326   0.775  1.00  0.00    -0.276 N 
ATOM     23  H2  UNL     1      15.422   6.376   0.784  1.00  0.00     0.189 HD
BRANCH  22  24
HETATM   24  C5  UNL     1      15.935   8.371   0.392  1.00  0.00     0.186 C 
HETATM   25  S1  UNL     1      17.388   8.369   1.178  1.00  0.00    -0.040 SA
BRANCH  24  26
HETATM   26  N3  UNL     1      15.563   9.301  -0.581  1.00  0.00    -0.361 N 
ATOM     27  H3  UNL     1      15.376   8.917  -1.507  1.00  0.00     0.162 HD
BRANCH  26  28
HETATM   28  C6  UNL     1      15.409  10.710  -0.461  1.00  0.00     0.083 C 
HETATM   29  C7  UNL     1      15.709  11.424  -1.759  1.00  0.00     0.025 C 
HETATM   30  C8  UNL     1      15.649  12.926  -1.545  1.00  0.00     0.002 C 
HETATM   31  C9  UNL     1      14.413  13.319  -0.761  1.00  0.00     0.000 C 
HETATM   32  C10 UNL     1      13.428  12.190  -0.831  1.00  0.00     0.002 C 
HETATM   33  C11 UNL     1      13.992  11.027  -0.042  1.00  0.00     0.025 C 
ENDBRANCH  26  28
ENDBRANCH  24  26
ENDBRANCH  22  24
ENDBRANCH   2  22
TORSDOF 8
ENDMDL
MODEL 4
REMARK VINA RESULT: -8.853722823      2.718      4.059
REMARK  8 active torsions:
REMARK  status: ('A' for Active; 'I' for Inactive)
REMARK    1  A    between atoms: C1_2  and  C2_3 
REMARK       I    between atoms: C1_2  and  N6_27 
REMARK    2  A    between atoms: C2_3  and  C3_4 
REMARK    3  A    between atoms: C3_4  and  C4_5 
REMARK    4  A    between atoms: C4_5  and  C12_20 
REMARK    5  A    between atoms: N1_6  and  N2_8 
REMARK    6  A    between atoms: N2_8  and  C5_10 
REMARK    7  A    between atoms: C5_10  and  N3_12 
REMARK    8  A    between atoms: N3_12  and  C6_14 
ROOT
HETATM    1  C4  UNL     1      12.039   8.791   1.464  1.00  0.00     0.054 C 
HETATM    2  N1  UNL     1      12.278   9.702   0.608  1.00  0.00    -0.300 N 
ATOM      3  H1  UNL     1      11.471  10.149   0.175  1.00  0.00     0.186 HD
ENDROOT
BRANCH   1   4
HETATM    4  C3  UNL     1      10.645   8.447   1.771  1.00  0.00     0.070 C 
BRANCH   4   5
HETATM    5  C2  UNL     1       9.804   9.697   1.794  1.00  0.00     0.109 C 
BRANCH   5   6
HETATM    6  C1  UNL     1       9.438  10.105   3.164  1.00  0.00     0.220 C 
HETATM    7  O1  UNL     1      10.343  10.198   4.025  1.00  0.00    -0.273 OA
HETATM    8  N6  UNL     1       8.099  10.375   3.467  1.00  0.00    -0.343 N 
HETATM    9  C15 UNL     1       7.103  10.234   2.364  1.00  0.00     0.205 C 
HETATM   10  C20 UNL     1       7.709  10.783   4.816  1.00  0.00     0.127 C 
HETATM   11  C16 UNL     1       5.803  10.287   2.947  1.00  0.00    -0.163 C 
HETATM   12  C17 UNL     1       4.677  10.360   3.775  1.00  0.00     0.081 C 
HETATM   13  C18 UNL     1       5.159  10.554   5.253  1.00  0.00     0.013 C 
HETATM   14  C19 UNL     1       6.584  10.129   5.467  1.00  0.00     0.021 C 
ENDBRANCH   5   6
ENDBRANCH   4   5
ENDBRANCH   1   4
BRANCH   1  15
HETATM   15  C12 UNL     1      13.159   8.103   2.081  1.00  0.00     0.072 A 
HETATM   16  C13 UNL     1      13.712   8.290   3.339  1.00  0.00     0.120 A 
HETATM   17  N4  UNL     1      14.729   7.423   3.489  1.00  0.00    -0.360 N 
HETATM   18  C14 UNL     1      14.854   6.684   2.377  1.00  0.00     0.180 A 
ATOM     19  H4  UNL     1      15.315   7.341   4.320  1.00  0.00     0.166 HD
HETATM   20  N5  UNL     1      13.901   7.101   1.532  1.00  0.00    -0.350 N 
ATOM     21  H5  UNL     1      13.752   6.718   0.598  1.00  0.00     0.166 HD
ENDBRANCH   1  15
BRANCH   2  22
HETATM   22  N2  UNL     1      13.523  10.142   0.208  1.00  0.00    -0.276 N 
ATOM     23  H2  UNL     1      14.331   9.817   0.740  1.00  0.00     0.189 HD
BRANCH  22  24
HETATM   24  C5  UNL     1      13.769  11.015  -0.887  1.00  0.00     0.186 C 
HETATM   25  S1  UNL     1      13.690  12.623  -0.520  1.00  0.00    -0.040 SA
BRANCH  24  26
HETATM   26  N3  UNL     1      14.054  10.506  -2.156  1.00  0.00    -0.361 N 
ATOM     27  H3  UNL     1      13.245  10.204  -2.699  1.00  0.00     0.162 HD
BRANCH  26  28
HETATM   28  C6  UNL     1      15.313  10.351  -2.797  1.00  0.00     0.083 C 
HETATM   29  C7  UNL     1      16.293   9.582  -1.942  1.00  0.00     0.025 C 
HETATM   30  C8  UNL     1      17.652   9.550  -2.618  1.00  0.00     0.002 C 
HETATM   31  C9  UNL     1      17.525   9.195  -4.087  1.00  0.00     0.000 C 
HETATM   32  C10 UNL     1      16.185   8.558  -4.307  1.00  0.00     0.002 C 
HETATM   33  C11 UNL     1      15.124   9.618  -4.106  1.00  0.00     0.025 C 
ENDBRANCH  26  28
ENDBRANCH  24  26
ENDBRANCH  22  24
ENDBRANCH   2  22
TORSDOF 8
ENDMDL
MODEL 5
REMARK VINA RESULT: -8.836055623      2.460      3.773
REMARK  8 active torsions:
REMARK  status: ('A' for Active; 'I' for Inactive)
REMARK    1  A    between atoms: C1_2  and  C2_3 
REMARK       I    between atoms: C1_2  and  N6_27 
REMARK    2  A    between atoms: C2_3  and  C3_4 
REMARK    3  A    between atoms: C3_4  and  C4_5 
REMARK    4  A    between atoms: C4_5  and  C12_20 
REMARK    5  A    between atoms: N1_6  and  N2_8 
REMARK    6  A    between atoms: N2_8  and  C5_10 
REMARK    7  A    between atoms: C5_10  and  N3_12 
REMARK    8  A    between atoms: N3_12  and  C6_14 
ROOT
HETATM    1  C4  UNL     1      12.559   9.814   1.913  1.00  0.00     0.054 C 
HETATM    2  N1  UNL     1      12.113  10.356   0.852  1.00  0.00    -0.300 N 
ATOM      3  H1  UNL     1      11.323  10.992   0.956  1.00  0.00     0.186 HD
ENDROOT
BRANCH   1   4
HETATM    4  C3  UNL     1      11.924  10.131   3.198  1.00  0.00     0.070 C 
BRANCH   4   5
HETATM    5  C2  UNL     1      11.196   8.919   3.720  1.00  0.00     0.109 C 
BRANCH   5   6
HETATM    6  C1  UNL     1       9.887   8.725   3.068  1.00  0.00     0.220 C 
HETATM    7  O1  UNL     1       9.850   8.164   1.949  1.00  0.00    -0.273 OA
HETATM    8  N6  UNL     1       8.726   9.170   3.710  1.00  0.00    -0.343 N 
HETATM    9  C15 UNL     1       8.885   9.823   5.042  1.00  0.00     0.205 C 
HETATM   10  C20 UNL     1       7.415   8.988   3.088  1.00  0.00     0.127 C 
HETATM   11  C16 UNL     1       7.638  10.429   5.378  1.00  0.00    -0.163 C 
HETATM   12  C17 UNL     1       6.330  10.922   5.441  1.00  0.00     0.081 C 
HETATM   13  C18 UNL     1       5.569  10.476   4.147  1.00  0.00     0.013 C 
HETATM   14  C19 UNL     1       6.491  10.109   3.019  1.00  0.00     0.021 C 
ENDBRANCH   5   6
ENDBRANCH   4   5
ENDBRANCH   1   4
BRANCH   1  15
HETATM   15  C12 UNL     1      13.662   8.875   1.807  1.00  0.00     0.072 A 
HETATM   16  C13 UNL     1      15.010   9.082   2.053  1.00  0.00     0.120 A 
HETATM   17  N4  UNL     1      15.664   7.927   1.834  1.00  0.00    -0.360 N 
HETATM   18  C14 UNL     1      14.789   6.984   1.456  1.00  0.00     0.180 A 
ATOM     19  H4  UNL     1      16.669   7.791   1.940  1.00  0.00     0.166 HD
HETATM   20  N5  UNL     1      13.583   7.565   1.442  1.00  0.00    -0.350 N 
ATOM     21  H5  UNL     1      12.716   7.088   1.191  1.00  0.00     0.166 HD
ENDBRANCH   1  15
BRANCH   2  22
HETATM   22  N2  UNL     1      12.595  10.166  -0.428  1.00  0.00    -0.276 N 
ATOM     23  H2  UNL     1      12.298   9.325  -0.922  1.00  0.00     0.189 HD
BRANCH  22  24
HETATM   24  C5  UNL     1      13.470  11.054  -1.112  1.00  0.00     0.186 C 
HETATM   25  S1  UNL     1      13.834  12.437  -0.286  1.00  0.00    -0.040 SA
BRANCH  24  26
HETATM   26  N3  UNL     1      13.963  10.737  -2.379  1.00  0.00    -0.361 N 
ATOM     27  H3  UNL     1      13.267  10.697  -3.123  1.00  0.00     0.162 HD
BRANCH  26  28
HETATM   28  C6  UNL     1      15.300  10.460  -2.777  1.00  0.00     0.083 C 
HETATM   29  C7  UNL     1      16.076   9.743  -1.698  1.00  0.00     0.025 C 
HETATM   30  C8  UNL     1      17.524   9.582  -2.126  1.00  0.00     0.002 C 
HETATM   31  C9  UNL     1      17.621   9.082  -3.554  1.00  0.00     0.000 C 
HETATM   32  C10 UNL     1      16.300   8.484  -3.939  1.00  0.00     0.002 C 
HETATM   33  C11 UNL     1      15.286   9.605  -4.024  1.00  0.00     0.025 C 
ENDBRANCH  26  28
ENDBRANCH  24  26
ENDBRANCH  22  24
ENDBRANCH   2  22
TORSDOF 8
ENDMDL
