MODEL 1
REMARK VINA RESULT: -9.700505701      0.000      0.000
REMARK  6 active torsions:
REMARK  status: ('A' for Active; 'I' for Inactive)
REMARK       I    between atoms: C1_2  and  N1_3 
REMARK       I    between atoms: C1_2  and  N3_21 
REMARK    1  A    between atoms: N1_3  and  C2_5 
REMARK    2  A    between atoms: C2_5  and  C3_6 
REMARK    3  A    between atoms: C6_9  and  C7_10 
REMARK       I    between atoms: C7_10  and  N2_12 
REMARK    4  A    between atoms: N2_12  and  C8_14 
REMARK    5  A    between atoms: C8_14  and  C9_15 
REMARK    6  A    between atoms: N3_21  and  C14_23 
ROOT
HETATM    1  C2  UNL     1      13.517   7.211   4.572  1.00  0.00     0.129 C 
ENDROOT
BRANCH   1   2
HETATM    2  N1  UNL     1      12.562   8.124   5.095  1.00  0.00    -0.343 N 
HETATM    3  C1  UNL     1      11.342   8.404   4.450  1.00  0.00     0.316 C 
HETATM    4  O1  UNL     1      10.984   7.862   3.354  1.00  0.00    -0.247 OA
HETATM    5  N3  UNL     1      10.442   9.324   5.014  1.00  0.00    -0.334 N 
ATOM      6  H3  UNL     1      10.716   9.763   5.892  1.00  0.00     0.165 HD
ATOM      7  H1  UNL     1      12.769   8.597   5.975  1.00  0.00     0.164 HD
BRANCH   5   8
HETATM    8  C14 UNL     1       9.172   9.701   4.465  1.00  0.00     0.039 C 
HETATM    9  C15 UNL     1       9.203  10.070   3.004  1.00  0.00     0.036 C 
HETATM   10  C16 UNL     1       7.729   9.850   2.633  1.00  0.00    -0.011 C 
HETATM   11  C17 UNL     1       6.819  10.761   3.425  1.00  0.00     0.009 C 
HETATM   12  C21 UNL     1       7.530   8.443   3.180  1.00  0.00     0.012 C 
HETATM   13  C18 UNL     1       7.112  10.715   4.890  1.00  0.00    -0.011 C 
HETATM   14  C19 UNL     1       6.964   9.268   5.377  1.00  0.00     0.012 C 
HETATM   15  C22 UNL     1       8.596  10.928   5.182  1.00  0.00     0.036 C 
HETATM   16  C20 UNL     1       8.111   8.625   4.584  1.00  0.00     0.014 C 
ENDBRANCH   5   8
ENDBRANCH   1   2
BRANCH   1  17
HETATM   17  C3  UNL     1      14.867   7.842   4.506  1.00  0.00     0.004 C 
HETATM   18  C4  UNL     1      15.979   6.816   4.564  1.00  0.00     0.007 C 
HETATM   19  C5  UNL     1      16.729   6.933   3.258  1.00  0.00     0.014 C 
HETATM   20  C6  UNL     1      15.590   7.342   2.319  1.00  0.00     0.078 C 
HETATM   21  C13 UNL     1      14.982   8.474   3.114  1.00  0.00     0.020 C 
BRANCH  20  22
HETATM   22  C7  UNL     1      16.086   7.765   1.011  1.00  0.00     0.222 C 
HETATM   23  O2  UNL     1      16.988   7.124   0.420  1.00  0.00    -0.273 OA
HETATM   24  N2  UNL     1      15.539   8.922   0.394  1.00  0.00    -0.356 N 
ATOM     25  H2  UNL     1      14.805   9.445   0.871  1.00  0.00     0.162 HD
BRANCH  24  26
HETATM   26  C8  UNL     1      16.000   9.369  -0.890  1.00  0.00     0.168 C 
BRANCH  26  27
HETATM   27  C9  UNL     1      15.669  10.829  -1.027  1.00  0.00     0.000 A 
HETATM   28  C10 UNL     1      16.440  11.816  -1.583  1.00  0.00     0.017 A 
HETATM   29  C11 UNL     1      15.937  13.054  -1.596  1.00  0.00     0.008 A 
HETATM   30  C12 UNL     1      14.695  13.239  -1.055  1.00  0.00     0.050 A 
HETATM   31  S1  UNL     1      14.267  11.669  -0.543  1.00  0.00    -0.105 SA
ENDBRANCH  26  27
ENDBRANCH  24  26
ENDBRANCH  20  22
ENDBRANCH   1  17
TORSDOF 6
ENDMDL
MODEL 2
REMARK VINA RESULT: -9.596814049      1.675      2.081
REMARK  6 active torsions:
REMARK  status: ('A' for Active; 'I' for Inactive)
REMARK       I    between atoms: C1_2  and  N1_3 
REMARK       I    between atoms: C1_2  and  N3_21 
REMARK    1  A    between atoms: N1_3  and  C2_5 
REMARK    2  A    between atoms: C2_5  and  C3_6 
REMARK    3  A    between atoms: C6_9  and  C7_10 
REMARK       I    between atoms: C7_10  and  N2_12 
REMARK    4  A    between atoms: N2_12  and  C8_14 
REMARK    5  A    between atoms: C8_14  and  C9_15 
REMARK    6  A    between atoms: N3_21  and  C14_23 
ROOT
HETATM    1  C2  UNL     1      13.719   7.098   4.774  1.00  0.00     0.129 C 
ENDROOT
BRANCH   1   2
HETATM    2  N1  UNL     1      12.806   8.109   5.181  1.00  0.00    -0.343 N 
HETATM    3  C1  UNL     1      11.563   8.312   4.550  1.00  0.00     0.316 C 
HETATM    4  O1  UNL     1      11.145   7.608   3.574  1.00  0.00    -0.247 OA
HETATM    5  N3  UNL     1      10.707   9.334   4.994  1.00  0.00    -0.334 N 
ATOM      6  H3  UNL     1      11.030   9.903   5.776  1.00  0.00     0.165 HD
ATOM      7  H1  UNL     1      13.062   8.713   5.962  1.00  0.00     0.164 HD
BRANCH   5   8
HETATM    8  C14 UNL     1       9.421   9.650   4.444  1.00  0.00     0.039 C 
HETATM    9  C15 UNL     1       9.418   9.911   2.960  1.00  0.00     0.036 C 
HETATM   10  C16 UNL     1       7.941   9.642   2.636  1.00  0.00    -0.011 C 
HETATM   11  C17 UNL     1       7.031  10.594   3.378  1.00  0.00     0.009 C 
HETATM   12  C21 UNL     1       7.777   8.275   3.289  1.00  0.00     0.012 C 
HETATM   13  C18 UNL     1       7.352  10.661   4.836  1.00  0.00    -0.011 C 
HETATM   14  C19 UNL     1       7.238   9.251   5.431  1.00  0.00     0.012 C 
HETATM   15  C22 UNL     1       8.838  10.917   5.082  1.00  0.00     0.036 C 
HETATM   16  C20 UNL     1       8.381   8.569   4.663  1.00  0.00     0.014 C 
ENDBRANCH   5   8
ENDBRANCH   1   2
BRANCH   1  17
HETATM   17  C3  UNL     1      15.063   7.684   4.497  1.00  0.00     0.004 C 
HETATM   18  C4  UNL     1      15.872   6.826   3.547  1.00  0.00     0.007 C 
HETATM   19  C5  UNL     1      16.122   7.676   2.323  1.00  0.00     0.014 C 
HETATM   20  C6  UNL     1      14.844   8.521   2.305  1.00  0.00     0.078 C 
HETATM   21  C13 UNL     1      14.816   8.993   3.740  1.00  0.00     0.020 C 
BRANCH  20  22
HETATM   22  C7  UNL     1      14.929   9.618   1.343  1.00  0.00     0.222 C 
HETATM   23  O2  UNL     1      14.796  10.812   1.705  1.00  0.00    -0.273 OA
HETATM   24  N2  UNL     1      15.168   9.331  -0.028  1.00  0.00    -0.356 N 
ATOM     25  H2  UNL     1      15.277   8.362  -0.325  1.00  0.00     0.162 HD
BRANCH  24  26
HETATM   26  C8  UNL     1      15.257  10.382  -1.003  1.00  0.00     0.168 C 
BRANCH  26  27
HETATM   27  C9  UNL     1      16.198   9.937  -2.088  1.00  0.00     0.000 A 
HETATM   28  C10 UNL     1      15.884   9.311  -3.266  1.00  0.00     0.017 A 
HETATM   29  C11 UNL     1      16.893   9.006  -4.088  1.00  0.00     0.008 A 
HETATM   30  C12 UNL     1      18.157   9.341  -3.689  1.00  0.00     0.050 A 
HETATM   31  S1  UNL     1      17.895  10.076  -2.172  1.00  0.00    -0.105 SA
ENDBRANCH  26  27
ENDBRANCH  24  26
ENDBRANCH  20  22
ENDBRANCH   1  17
TORSDOF 6
ENDMDL
MODEL 3
REMARK VINA RESULT: -9.534517877      1.890      2.735
REMARK  6 active torsions:
REMARK  status: ('A' for Active; 'I' for Inactive)
REMARK       I    between atoms: C1_2  and  N1_3 
REMARK       I    between atoms: C1_2  and  N3_21 
REMARK    1  A    between atoms: N1_3  and  C2_5 
REMARK    2  A    between atoms: C2_5  and  C3_6 
REMARK    3  A    between atoms: C6_9  and  C7_10 
REMARK       I    between atoms: C7_10  and  N2_12 
REMARK    4  A    between atoms: N2_12  and  C8_14 
REMARK    5  A    between atoms: C8_14  and  C9_15 
REMARK    6  A    between atoms: N3_21  and  C14_23 
ROOT
HETATM    1  C2  UNL     1      13.937   7.657   5.022  1.00  0.00     0.129 C 
ENDROOT
BRANCH   1   2
HETATM    2  N1  UNL     1      12.612   7.315   4.637  1.00  0.00    -0.343 N 
HETATM    3  C1  UNL     1      11.548   8.238   4.667  1.00  0.00     0.316 C 
HETATM    4  O1  UNL     1      11.679   9.452   5.031  1.00  0.00    -0.247 OA
HETATM    5  N3  UNL     1      10.258   7.838   4.281  1.00  0.00    -0.334 N 
ATOM      6  H3  UNL     1      10.141   6.869   3.986  1.00  0.00     0.165 HD
ATOM      7  H1  UNL     1      12.424   6.363   4.326  1.00  0.00     0.164 HD
BRANCH   5   8
HETATM    8  C14 UNL     1       9.090   8.669   4.266  1.00  0.00     0.039 C 
HETATM    9  C15 UNL     1       8.461   8.896   5.616  1.00  0.00     0.036 C 
HETATM   10  C16 UNL     1       7.680  10.190   5.343  1.00  0.00    -0.011 C 
HETATM   11  C17 UNL     1       6.641   9.989   4.263  1.00  0.00     0.009 C 
HETATM   12  C21 UNL     1       8.789  11.040   4.736  1.00  0.00     0.012 C 
HETATM   13  C18 UNL     1       7.209   9.330   3.049  1.00  0.00    -0.011 C 
HETATM   14  C19 UNL     1       8.363  10.189   2.517  1.00  0.00     0.012 C 
HETATM   15  C22 UNL     1       7.982   8.060   3.398  1.00  0.00     0.036 C 
HETATM   16  C20 UNL     1       9.334  10.054   3.700  1.00  0.00     0.014 C 
ENDBRANCH   5   8
ENDBRANCH   1   2
BRANCH   1  17
HETATM   17  C3  UNL     1      14.897   7.363   3.919  1.00  0.00     0.004 C 
HETATM   18  C4  UNL     1      14.241   6.615   2.778  1.00  0.00     0.007 C 
HETATM   19  C5  UNL     1      14.348   7.514   1.568  1.00  0.00     0.014 C 
HETATM   20  C6  UNL     1      14.270   8.890   2.238  1.00  0.00     0.078 C 
HETATM   21  C13 UNL     1      15.303   8.716   3.326  1.00  0.00     0.020 C 
BRANCH  20  22
HETATM   22  C7  UNL     1      14.596   9.968   1.306  1.00  0.00     0.222 C 
HETATM   23  O2  UNL     1      14.667  11.160   1.691  1.00  0.00    -0.273 OA
HETATM   24  N2  UNL     1      14.837   9.665  -0.061  1.00  0.00    -0.356 N 
ATOM     25  H2  UNL     1      14.781   8.697  -0.377  1.00  0.00     0.162 HD
BRANCH  24  26
HETATM   26  C8  UNL     1      15.160  10.697  -1.006  1.00  0.00     0.168 C 
BRANCH  26  27
HETATM   27  C9  UNL     1      16.076  10.112  -2.046  1.00  0.00     0.000 A 
HETATM   28  C10 UNL     1      15.727   9.467  -3.203  1.00  0.00     0.017 A 
HETATM   29  C11 UNL     1      16.720   9.028  -3.983  1.00  0.00     0.008 A 
HETATM   30  C12 UNL     1      18.002   9.255  -3.566  1.00  0.00     0.050 A 
HETATM   31  S1  UNL     1      17.780  10.081  -2.090  1.00  0.00    -0.105 SA
ENDBRANCH  26  27
ENDBRANCH  24  26
ENDBRANCH  20  22
ENDBRANCH   1  17
TORSDOF 6
ENDMDL
MODEL 4
REMARK VINA RESULT: -9.520957648      1.651      1.877
REMARK  6 active torsions:
REMARK  status: ('A' for Active; 'I' for Inactive)
REMARK       I    between atoms: C1_2  and  N1_3 
REMARK       I    between atoms: C1_2  and  N3_21 
REMARK    1  A    between atoms: N1_3  and  C2_5 
REMARK    2  A    between atoms: C2_5  and  C3_6 
REMARK    3  A    between atoms: C6_9  and  C7_10 
REMARK       I    between atoms: C7_10  and  N2_12 
REMARK    4  A    between atoms: N2_12  and  C8_14 
REMARK    5  A    between atoms: C8_14  and  C9_15 
REMARK    6  A    between atoms: N3_21  and  C14_23 
ROOT
HETATM    1  C2  UNL     1      14.529   9.571   4.887  1.00  0.00     0.129 C 
ENDROOT
BRANCH   1   2
HETATM    2  N1  UNL     1      13.237   9.047   5.167  1.00  0.00    -0.343 N 
HETATM    3  C1  UNL     1      12.062   9.568   4.591  1.00  0.00     0.316 C 
HETATM    4  O1  UNL     1      12.052  10.541   3.768  1.00  0.00    -0.247 OA
HETATM    5  N3  UNL     1      10.813   9.011   4.914  1.00  0.00    -0.334 N 
ATOM      6  H3  UNL     1      10.808   8.230   5.569  1.00  0.00     0.165 HD
ATOM      7  H1  UNL     1      13.158   8.261   5.812  1.00  0.00     0.164 HD
BRANCH   5   8
HETATM    8  C14 UNL     1       9.545   9.443   4.404  1.00  0.00     0.039 C 
HETATM    9  C15 UNL     1       9.492   9.610   2.907  1.00  0.00     0.036 C 
HETATM   10  C16 UNL     1       7.978   9.499   2.671  1.00  0.00    -0.011 C 
HETATM   11  C17 UNL     1       7.226  10.597   3.388  1.00  0.00     0.009 C 
HETATM   12  C21 UNL     1       7.692   8.204   3.422  1.00  0.00     0.012 C 
HETATM   13  C18 UNL     1       7.630  10.715   4.821  1.00  0.00    -0.011 C 
HETATM   14  C19 UNL     1       7.386   9.368   5.515  1.00  0.00     0.012 C 
HETATM   15  C22 UNL     1       9.147  10.807   4.980  1.00  0.00     0.036 C 
HETATM   16  C20 UNL     1       8.400   8.509   4.744  1.00  0.00     0.014 C 
ENDBRANCH   5   8
ENDBRANCH   1   2
BRANCH   1  17
HETATM   17  C3  UNL     1      15.545   8.479   4.861  1.00  0.00     0.004 C 
HETATM   18  C4  UNL     1      14.930   7.139   4.516  1.00  0.00     0.007 C 
HETATM   19  C5  UNL     1      15.579   6.699   3.224  1.00  0.00     0.014 C 
HETATM   20  C6  UNL     1      15.824   8.057   2.560  1.00  0.00     0.078 C 
HETATM   21  C13 UNL     1      16.490   8.795   3.697  1.00  0.00     0.020 C 
BRANCH  20  22
HETATM   22  C7  UNL     1      16.676   7.940   1.378  1.00  0.00     0.222 C 
HETATM   23  O2  UNL     1      17.447   6.962   1.226  1.00  0.00    -0.273 OA
HETATM   24  N2  UNL     1      16.633   8.951   0.380  1.00  0.00    -0.356 N 
ATOM     25  H2  UNL     1      16.007   9.747   0.501  1.00  0.00     0.162 HD
BRANCH  24  26
HETATM   26  C8  UNL     1      17.454   8.872  -0.795  1.00  0.00     0.168 C 
BRANCH  26  27
HETATM   27  C9  UNL     1      16.589   9.151  -1.993  1.00  0.00     0.000 A 
HETATM   28  C10 UNL     1      16.546   8.460  -3.176  1.00  0.00     0.017 A 
HETATM   29  C11 UNL     1      15.692   8.893  -4.108  1.00  0.00     0.008 A 
HETATM   30  C12 UNL     1      14.929   9.988  -3.810  1.00  0.00     0.050 A 
HETATM   31  S1  UNL     1      15.432  10.381  -2.228  1.00  0.00    -0.105 SA
ENDBRANCH  26  27
ENDBRANCH  24  26
ENDBRANCH  20  22
ENDBRANCH   1  17
TORSDOF 6
ENDMDL
MODEL 5
REMARK VINA RESULT: -9.504807163      1.606      2.381
REMARK  6 active torsions:
REMARK  status: ('A' for Active; 'I' for Inactive)
REMARK       I    between atoms: C1_2  and  N1_3 
REMARK       I    between atoms: C1_2  and  N3_21 
REMARK    1  A    between atoms: N1_3  and  C2_5 
REMARK    2  A    between atoms: C2_5  and  C3_6 
REMARK    3  A    between atoms: C6_9  and  C7_10 
REMARK       I    between atoms: C7_10  and  N2_12 
REMARK    4  A    between atoms: N2_12  and  C8_14 
REMARK    5  A    between atoms: C8_14  and  C9_15 
REMARK    6  A    between atoms: N3_21  and  C14_23 
ROOT
HETATM    1  C2  UNL     1      13.579   6.899   3.055  1.00  0.00     0.129 C 
ENDROOT
BRANCH   1   2
HETATM    2  N1  UNL     1      12.423   6.949   3.883  1.00  0.00    -0.343 N 
HETATM    3  C1  UNL     1      11.352   7.832   3.644  1.00  0.00     0.316 C 
HETATM    4  O1  UNL     1      11.319   8.652   2.669  1.00  0.00    -0.247 OA
HETATM    5  N3  UNL     1      10.240   7.839   4.503  1.00  0.00    -0.334 N 
ATOM      6  H3  UNL     1      10.255   7.185   5.286  1.00  0.00     0.165 HD
ATOM      7  H1  UNL     1      12.368   6.318   4.682  1.00  0.00     0.164 HD
BRANCH   5   8
HETATM    8  C14 UNL     1       9.089   8.683   4.378  1.00  0.00     0.039 C 
HETATM    9  C15 UNL     1       8.311   8.880   5.655  1.00  0.00     0.036 C 
HETATM   10  C16 UNL     1       7.576  10.188   5.330  1.00  0.00    -0.011 C 
HETATM   11  C17 UNL     1       6.665  10.027   4.135  1.00  0.00     0.009 C 
HETATM   12  C21 UNL     1       8.753  11.043   4.876  1.00  0.00     0.012 C 
HETATM   13  C18 UNL     1       7.362   9.395   2.975  1.00  0.00    -0.011 C 
HETATM   14  C19 UNL     1       8.576  10.256   2.601  1.00  0.00     0.012 C 
HETATM   15  C22 UNL     1       8.082   8.108   3.374  1.00  0.00     0.036 C 
HETATM   16  C20 UNL     1       9.405  10.080   3.882  1.00  0.00     0.014 C 
ENDBRANCH   5   8
ENDBRANCH   1   2
BRANCH   1  17
HETATM   17  C3  UNL     1      14.612   7.861   3.539  1.00  0.00     0.004 C 
HETATM   18  C4  UNL     1      15.870   7.157   4.002  1.00  0.00     0.007 C 
HETATM   19  C5  UNL     1      16.980   7.640   3.096  1.00  0.00     0.014 C 
HETATM   20  C6  UNL     1      16.200   7.866   1.797  1.00  0.00     0.078 C 
HETATM   21  C13 UNL     1      15.042   8.683   2.320  1.00  0.00     0.020 C 
BRANCH  20  22
HETATM   22  C7  UNL     1      16.997   8.575   0.799  1.00  0.00     0.222 C 
HETATM   23  O2  UNL     1      18.169   8.218   0.529  1.00  0.00    -0.273 OA
HETATM   24  N2  UNL     1      16.437   9.691   0.119  1.00  0.00    -0.356 N 
ATOM     25  H2  UNL     1      15.485   9.983   0.336  1.00  0.00     0.162 HD
BRANCH  24  26
HETATM   26  C8  UNL     1      17.189  10.414  -0.868  1.00  0.00     0.168 C 
BRANCH  26  27
HETATM   27  C9  UNL     1      16.737   9.959  -2.229  1.00  0.00     0.000 A 
HETATM   28  C10 UNL     1      17.471   9.297  -3.178  1.00  0.00     0.017 A 
HETATM   29  C11 UNL     1      16.857   8.990  -4.324  1.00  0.00     0.008 A 
HETATM   30  C12 UNL     1      15.548   9.359  -4.461  1.00  0.00     0.050 A 
HETATM   31  S1  UNL     1      15.214  10.128  -2.975  1.00  0.00    -0.105 SA
ENDBRANCH  26  27
ENDBRANCH  24  26
ENDBRANCH  20  22
ENDBRANCH   1  17
TORSDOF 6
ENDMDL
