MODEL 1
REMARK VINA RESULT: -5.724651331      0.000      0.000
REMARK  2 active torsions:
REMARK  status: ('A' for Active; 'I' for Inactive)
REMARK    1  A    between atoms: C3_3  and  N1_4 
REMARK    2  A    between atoms: C7_10  and  N4_11 
ROOT
HETATM    1  C1  UNL     1     -41.969  20.563  15.124  1.00  0.00     0.014 C 
HETATM    2  C2  UNL     1     -40.798  20.850  15.065  1.00  0.00    -0.097 C 
HETATM    3  C3  UNL     1     -39.360  21.193  15.018  1.00  0.00     0.227 C 
ENDROOT
BRANCH   3   4
HETATM    4  N1  UNL     1     -38.907  21.146  13.647  1.00  0.00    -0.275 N 
HETATM    5  C4  UNL     1     -38.761  22.319  12.974  1.00  0.00     0.147 A 
HETATM    6  N2  UNL     1     -39.048  23.542  13.610  1.00  0.00    -0.081 NA
HETATM    7  C5  UNL     1     -38.329  22.300  11.666  1.00  0.00     0.129 A 
HETATM    8  C6  UNL     1     -38.173  23.525  10.952  1.00  0.00     0.106 C 
HETATM    9  C7  UNL     1     -38.066  21.065  11.107  1.00  0.00     0.127 A 
HETATM   10  N3  UNL     1     -38.054  24.515  10.369  1.00  0.00    -0.191 NA
HETATM   11  N5  UNL     1     -38.217  19.930  11.787  1.00  0.00    -0.293 N 
HETATM   12  C8  UNL     1     -38.638  19.970  13.059  1.00  0.00     0.330 A 
ATOM     13  H5  UNL     1     -38.013  19.034  11.342  1.00  0.00     0.172 HD
HETATM   14  O1  UNL     1     -38.783  18.916  13.707  1.00  0.00    -0.246 OA
BRANCH   9  15
HETATM   15  N4  UNL     1     -37.667  21.032   9.901  1.00  0.00    -0.384 N 
ATOM     16  H42 UNL     1     -37.345  20.152   9.497  1.00  0.00     0.157 HD
ATOM     17  H41 UNL     1     -37.685  21.901   9.368  1.00  0.00     0.157 HD
ENDBRANCH   9  15
ENDBRANCH   3   4
TORSDOF 2
ENDMDL
MODEL 2
REMARK VINA RESULT: -5.654850139      2.118      4.318
REMARK  2 active torsions:
REMARK  status: ('A' for Active; 'I' for Inactive)
REMARK    1  A    between atoms: C3_3  and  N1_4 
REMARK    2  A    between atoms: C7_10  and  N4_11 
ROOT
HETATM    1  C1  UNL     1     -39.224  24.164   9.773  1.00  0.00     0.014 C 
HETATM    2  C2  UNL     1     -39.613  23.049  10.024  1.00  0.00    -0.097 C 
HETATM    3  C3  UNL     1     -40.094  21.679  10.307  1.00  0.00     0.227 C 
ENDROOT
BRANCH   3   4
HETATM    4  N1  UNL     1     -39.464  21.196  11.515  1.00  0.00    -0.275 N 
HETATM    5  C4  UNL     1     -40.137  21.327  12.690  1.00  0.00     0.147 A 
HETATM    6  N2  UNL     1     -41.414  21.920  12.714  1.00  0.00    -0.081 NA
HETATM    7  C5  UNL     1     -39.558  20.874  13.855  1.00  0.00     0.129 A 
HETATM    8  C6  UNL     1     -40.256  21.006  15.093  1.00  0.00     0.106 C 
HETATM    9  C7  UNL     1     -38.305  20.303  13.757  1.00  0.00     0.127 A 
HETATM   10  N3  UNL     1     -40.815  21.120  16.098  1.00  0.00    -0.191 NA
HETATM   11  N5  UNL     1     -37.666  20.187  12.593  1.00  0.00    -0.293 N 
HETATM   12  C8  UNL     1     -38.247  20.634  11.471  1.00  0.00     0.330 A 
ATOM     13  H5  UNL     1     -36.740  19.760  12.557  1.00  0.00     0.172 HD
HETATM   14  O1  UNL     1     -37.661  20.531  10.376  1.00  0.00    -0.246 OA
BRANCH   9  15
HETATM   15  N4  UNL     1     -37.758  19.881  14.823  1.00  0.00    -0.384 N 
ATOM     16  H42 UNL     1     -38.314  19.374  15.512  1.00  0.00     0.157 HD
ATOM     17  H41 UNL     1     -36.764  20.065  14.955  1.00  0.00     0.157 HD
ENDBRANCH   9  15
ENDBRANCH   3   4
TORSDOF 2
ENDMDL
MODEL 3
REMARK VINA RESULT: -5.524803423      0.875      1.228
REMARK  2 active torsions:
REMARK  status: ('A' for Active; 'I' for Inactive)
REMARK    1  A    between atoms: C3_3  and  N1_4 
REMARK    2  A    between atoms: C7_10  and  N4_11 
ROOT
HETATM    1  C1  UNL     1     -39.222  21.581  16.752  1.00  0.00     0.014 C 
HETATM    2  C2  UNL     1     -39.887  21.503  15.748  1.00  0.00    -0.097 C 
HETATM    3  C3  UNL     1     -40.721  21.421  14.529  1.00  0.00     0.227 C 
ENDROOT
BRANCH   3   4
HETATM    4  N1  UNL     1     -39.865  21.221  13.382  1.00  0.00    -0.275 N 
HETATM    5  C4  UNL     1     -39.319  22.315  12.784  1.00  0.00     0.147 A 
HETATM    6  N2  UNL     1     -39.592  23.603  13.281  1.00  0.00    -0.081 NA
HETATM    7  C5  UNL     1     -38.499  22.149  11.690  1.00  0.00     0.129 A 
HETATM    8  C6  UNL     1     -37.923  23.290  11.056  1.00  0.00     0.106 C 
HETATM    9  C7  UNL     1     -38.276  20.857  11.259  1.00  0.00     0.127 A 
HETATM   10  N3  UNL     1     -37.462  24.213  10.535  1.00  0.00    -0.191 NA
HETATM   11  N5  UNL     1     -38.822  19.801  11.861  1.00  0.00    -0.293 N 
HETATM   12  C8  UNL     1     -39.617  19.984  12.925  1.00  0.00     0.330 A 
ATOM     13  H5  UNL     1     -38.635  18.860  11.515  1.00  0.00     0.172 HD
HETATM   14  O1  UNL     1     -40.134  19.006  13.499  1.00  0.00    -0.246 OA
BRANCH   9  15
HETATM   15  N4  UNL     1     -37.521  20.688  10.250  1.00  0.00    -0.384 N 
ATOM     16  H42 UNL     1     -36.601  20.264  10.370  1.00  0.00     0.157 HD
ATOM     17  H41 UNL     1     -37.868  20.988   9.339  1.00  0.00     0.157 HD
ENDBRANCH   9  15
ENDBRANCH   3   4
TORSDOF 2
ENDMDL
MODEL 4
REMARK VINA RESULT: -5.468110819      3.154      4.817
REMARK  2 active torsions:
REMARK  status: ('A' for Active; 'I' for Inactive)
REMARK    1  A    between atoms: C3_3  and  N1_4 
REMARK    2  A    between atoms: C7_10  and  N4_11 
ROOT
HETATM    1  C1  UNL     1     -40.021  26.377   8.642  1.00  0.00     0.014 C 
HETATM    2  C2  UNL     1     -39.825  25.910   9.738  1.00  0.00    -0.097 C 
HETATM    3  C3  UNL     1     -39.602  25.355  11.091  1.00  0.00     0.227 C 
ENDROOT
BRANCH   3   4
HETATM    4  N1  UNL     1     -39.184  23.977  10.973  1.00  0.00    -0.275 N 
HETATM    5  C4  UNL     1     -40.143  23.017  10.876  1.00  0.00     0.147 A 
HETATM    6  N2  UNL     1     -41.505  23.372  10.890  1.00  0.00    -0.081 NA
HETATM    7  C5  UNL     1     -39.769  21.696  10.763  1.00  0.00     0.129 A 
HETATM    8  C6  UNL     1     -40.768  20.682  10.660  1.00  0.00     0.106 C 
HETATM    9  C7  UNL     1     -38.416  21.421  10.755  1.00  0.00     0.127 A 
HETATM   10  N3  UNL     1     -41.575  19.858  10.585  1.00  0.00    -0.191 NA
HETATM   11  N5  UNL     1     -37.495  22.380  10.852  1.00  0.00    -0.293 N 
HETATM   12  C8  UNL     1     -37.880  23.659  10.961  1.00  0.00     0.330 A 
ATOM     13  H5  UNL     1     -36.503  22.141  10.843  1.00  0.00     0.172 HD
HETATM   14  O1  UNL     1     -37.030  24.566  11.052  1.00  0.00    -0.246 OA
BRANCH   9  15
HETATM   15  N4  UNL     1     -38.056  20.207  10.651  1.00  0.00    -0.384 N 
ATOM     16  H42 UNL     1     -38.316  19.537  11.375  1.00  0.00     0.157 HD
ATOM     17  H41 UNL     1     -37.511  19.939   9.832  1.00  0.00     0.157 HD
ENDBRANCH   9  15
ENDBRANCH   3   4
TORSDOF 2
ENDMDL
MODEL 5
REMARK VINA RESULT: -5.439997495      1.542      1.684
REMARK  2 active torsions:
REMARK  status: ('A' for Active; 'I' for Inactive)
REMARK    1  A    between atoms: C3_3  and  N1_4 
REMARK    2  A    between atoms: C7_10  and  N4_11 
ROOT
HETATM    1  C1  UNL     1     -40.177  21.789  16.243  1.00  0.00     0.014 C 
HETATM    2  C2  UNL     1     -40.433  21.103  15.283  1.00  0.00    -0.097 C 
HETATM    3  C3  UNL     1     -40.771  20.261  14.115  1.00  0.00     0.227 C 
ENDROOT
BRANCH   3   4
HETATM    4  N1  UNL     1     -39.866  20.569  13.031  1.00  0.00    -0.275 N 
HETATM    5  C4  UNL     1     -40.270  21.462  12.087  1.00  0.00     0.147 A 
HETATM    6  N2  UNL     1     -41.540  22.062  12.177  1.00  0.00    -0.081 NA
HETATM    7  C5  UNL     1     -39.425  21.772  11.045  1.00  0.00     0.129 A 
HETATM    8  C6  UNL     1     -39.839  22.707  10.050  1.00  0.00     0.106 C 
HETATM    9  C7  UNL     1     -38.195  21.145  11.021  1.00  0.00     0.127 A 
HETATM   10  N3  UNL     1     -40.175  23.457   9.238  1.00  0.00    -0.191 NA
HETATM   11  N5  UNL     1     -37.823  20.274  11.958  1.00  0.00    -0.293 N 
HETATM   12  C8  UNL     1     -38.660  19.986  12.964  1.00  0.00     0.330 A 
ATOM     13  H5  UNL     1     -36.906  19.828  11.909  1.00  0.00     0.172 HD
HETATM   14  O1  UNL     1     -38.325  19.173  13.848  1.00  0.00    -0.246 OA
BRANCH   9  15
HETATM   15  N4  UNL     1     -37.405  21.421  10.065  1.00  0.00    -0.384 N 
ATOM     16  H42 UNL     1     -37.368  20.814   9.246  1.00  0.00     0.157 HD
ATOM     17  H41 UNL     1     -36.825  22.256  10.151  1.00  0.00     0.157 HD
ENDBRANCH   9  15
ENDBRANCH   3   4
TORSDOF 2
ENDMDL
