MODEL 1
REMARK VINA RESULT: -5.114649361      0.000      0.000
REMARK  2 active torsions:
REMARK  status: ('A' for Active; 'I' for Inactive)
REMARK    1  A    between atoms: N1_1  and  C1_4 
REMARK    2  A    between atoms: C3_10  and  N4_11 
ROOT
HETATM    1  C1  UNL     1     -37.126  20.352  16.507  1.00  0.00     0.691 A 
HETATM    2  N2  UNL     1     -37.986  20.947  17.356  1.00  0.00    -0.187 N 
ATOM      3  H2  UNL     1     -37.732  21.080  18.335  1.00  0.00     0.185 HD
HETATM    4  C2  UNL     1     -39.191  21.369  16.900  1.00  0.00     0.215 A 
HETATM    5  N3  UNL     1     -39.517  21.189  15.602  1.00  0.00    -0.187 N 
ATOM      6  H3  UNL     1     -40.426  21.511  15.268  1.00  0.00     0.185 HD
HETATM    7  C3  UNL     1     -38.672  20.595  14.736  1.00  0.00     0.695 A 
HETATM    8  N6  UNL     1     -37.484  20.188  15.219  1.00  0.00    -0.022 N 
ATOM      9  H6  UNL     1     -36.827  19.736  14.583  1.00  0.00     0.203 HD
ENDROOT
BRANCH   7  10
HETATM   10  N4  UNL     1     -39.019  20.410  13.376  1.00  0.00    -0.214 N 
HETATM   11  C4  UNL     1     -40.347  20.680  12.952  1.00  0.00     0.160 C 
HETATM   12  C5  UNL     1     -40.641  20.466  11.521  1.00  0.00     0.134 C 
HETATM   13  N5  UNL     1     -39.531  20.243  10.661  1.00  0.00    -0.418 N 
HETATM   14  C6  UNL     1     -38.264  20.691  11.141  1.00  0.00     0.134 C 
ATOM     15  H5  UNL     1     -39.635  19.788   9.754  1.00  0.00     0.153 HD
HETATM   16  C7  UNL     1     -38.006  19.950  12.459  1.00  0.00     0.160 C 
ENDBRANCH   7  10
BRANCH   1  17
HETATM   17  N1  UNL     1     -35.974  19.952  16.960  1.00  0.00    -0.234 N 
ATOM     18  H12 UNL     1     -35.109  20.091  16.438  1.00  0.00     0.174 HD
ATOM     19  H11 UNL     1     -35.937  19.484  17.865  1.00  0.00     0.174 HD
ENDBRANCH   1  17
TORSDOF 2
ENDMDL
MODEL 2
REMARK VINA RESULT: -4.889201656      2.341      3.343
REMARK  2 active torsions:
REMARK  status: ('A' for Active; 'I' for Inactive)
REMARK    1  A    between atoms: N1_1  and  C1_4 
REMARK    2  A    between atoms: C3_10  and  N4_11 
ROOT
HETATM    1  C1  UNL     1     -38.554  20.267  14.008  1.00  0.00     0.691 A 
HETATM    2  N2  UNL     1     -39.761  19.869  14.455  1.00  0.00    -0.187 N 
ATOM      3  H2  UNL     1     -39.834  19.295  15.294  1.00  0.00     0.185 HD
HETATM    4  C2  UNL     1     -40.878  20.239  13.782  1.00  0.00     0.215 A 
HETATM    5  N3  UNL     1     -40.771  21.001  12.672  1.00  0.00    -0.187 N 
ATOM      6  H3  UNL     1     -41.618  21.275  12.172  1.00  0.00     0.185 HD
HETATM    7  C3  UNL     1     -39.573  21.409  12.207  1.00  0.00     0.695 A 
HETATM    8  N6  UNL     1     -38.484  21.026  12.897  1.00  0.00    -0.022 N 
ATOM      9  H6  UNL     1     -37.566  21.322  12.565  1.00  0.00     0.203 HD
ENDROOT
BRANCH   7  10
HETATM   10  N4  UNL     1     -39.467  22.208  11.043  1.00  0.00    -0.214 N 
HETATM   11  C4  UNL     1     -40.420  22.054  10.002  1.00  0.00     0.160 C 
HETATM   12  C5  UNL     1     -40.251  22.918   8.817  1.00  0.00     0.134 C 
HETATM   13  N5  UNL     1     -39.309  23.977   8.921  1.00  0.00    -0.418 N 
HETATM   14  C6  UNL     1     -38.969  24.389  10.245  1.00  0.00     0.134 C 
ATOM     15  H5  UNL     1     -38.899  24.417   8.096  1.00  0.00     0.153 HD
HETATM   16  C7  UNL     1     -38.387  23.159  10.952  1.00  0.00     0.160 C 
ENDBRANCH   7  10
BRANCH   1  17
HETATM   17  N1  UNL     1     -37.492  19.904  14.664  1.00  0.00    -0.234 N 
ATOM     18  H12 UNL     1     -37.443  19.944  15.682  1.00  0.00     0.174 HD
ATOM     19  H11 UNL     1     -36.682  19.569  14.142  1.00  0.00     0.174 HD
ENDBRANCH   1  17
TORSDOF 2
ENDMDL
MODEL 3
REMARK VINA RESULT: -4.719303521      2.298      3.365
REMARK  2 active torsions:
REMARK  status: ('A' for Active; 'I' for Inactive)
REMARK    1  A    between atoms: N1_1  and  C1_4 
REMARK    2  A    between atoms: C3_10  and  N4_11 
ROOT
HETATM    1  C1  UNL     1     -38.708  20.389  14.178  1.00  0.00     0.691 A 
HETATM    2  N2  UNL     1     -39.886  20.020  14.719  1.00  0.00    -0.187 N 
ATOM      3  H2  UNL     1     -39.906  19.438  15.556  1.00  0.00     0.185 HD
HETATM    4  C2  UNL     1     -41.043  20.429  14.144  1.00  0.00     0.215 A 
HETATM    5  N3  UNL     1     -41.005  21.201  13.036  1.00  0.00    -0.187 N 
ATOM      6  H3  UNL     1     -41.882  21.504  12.611  1.00  0.00     0.185 HD
HETATM    7  C3  UNL     1     -39.838  21.580  12.478  1.00  0.00     0.695 A 
HETATM    8  N6  UNL     1     -38.707  21.158  13.072  1.00  0.00    -0.022 N 
ATOM      9  H6  UNL     1     -37.812  21.432  12.668  1.00  0.00     0.203 HD
ENDROOT
BRANCH   7  10
HETATM   10  N4  UNL     1     -39.805  22.389  11.317  1.00  0.00    -0.214 N 
HETATM   11  C4  UNL     1     -38.795  23.380  11.186  1.00  0.00     0.160 C 
HETATM   12  C5  UNL     1     -38.818  24.187   9.950  1.00  0.00     0.134 C 
HETATM   13  N5  UNL     1     -39.684  23.753   8.911  1.00  0.00    -0.418 N 
HETATM   14  C6  UNL     1     -40.084  22.383   8.957  1.00  0.00     0.134 C 
ATOM     15  H5  UNL     1     -40.002  24.383   8.175  1.00  0.00     0.153 HD
HETATM   16  C7  UNL     1     -40.802  22.180  10.297  1.00  0.00     0.160 C 
ENDBRANCH   7  10
BRANCH   1  17
HETATM   17  N1  UNL     1     -37.606  19.988  14.741  1.00  0.00    -0.234 N 
ATOM     18  H12 UNL     1     -37.488  19.978  15.754  1.00  0.00     0.174 HD
ATOM     19  H11 UNL     1     -36.837  19.674  14.148  1.00  0.00     0.174 HD
ENDBRANCH   1  17
TORSDOF 2
ENDMDL
MODEL 4
REMARK VINA RESULT: -4.714807866      2.747      3.742
REMARK  2 active torsions:
REMARK  status: ('A' for Active; 'I' for Inactive)
REMARK    1  A    between atoms: N1_1  and  C1_4 
REMARK    2  A    between atoms: C3_10  and  N4_11 
ROOT
HETATM    1  C1  UNL     1     -38.304  20.288  14.125  1.00  0.00     0.691 A 
HETATM    2  N2  UNL     1     -39.197  19.341  13.776  1.00  0.00    -0.187 N 
ATOM      3  H2  UNL     1     -39.283  18.488  14.328  1.00  0.00     0.185 HD
HETATM    4  C2  UNL     1     -39.979  19.530  12.685  1.00  0.00     0.215 A 
HETATM    5  N3  UNL     1     -39.857  20.663  11.960  1.00  0.00    -0.187 N 
ATOM      6  H3  UNL     1     -40.450  20.797  11.141  1.00  0.00     0.185 HD
HETATM    7  C3  UNL     1     -38.970  21.623  12.292  1.00  0.00     0.695 A 
HETATM    8  N6  UNL     1     -38.208  21.405  13.380  1.00  0.00    -0.022 N 
ATOM      9  H6  UNL     1     -37.530  22.117  13.651  1.00  0.00     0.203 HD
ENDROOT
BRANCH   7  10
HETATM   10  N4  UNL     1     -38.846  22.809  11.529  1.00  0.00    -0.214 N 
HETATM   11  C4  UNL     1     -39.411  22.863  10.228  1.00  0.00     0.160 C 
HETATM   12  C5  UNL     1     -39.247  24.129   9.487  1.00  0.00     0.134 C 
HETATM   13  N5  UNL     1     -38.756  25.245  10.218  1.00  0.00    -0.418 N 
HETATM   14  C6  UNL     1     -38.904  25.181  11.637  1.00  0.00     0.134 C 
ATOM     15  H5  UNL     1     -38.322  26.044   9.756  1.00  0.00     0.153 HD
HETATM   16  C7  UNL     1     -38.146  23.931  12.102  1.00  0.00     0.160 C 
ENDBRANCH   7  10
BRANCH   1  17
HETATM   17  N1  UNL     1     -37.560  20.091  15.174  1.00  0.00    -0.234 N 
ATOM     18  H12 UNL     1     -37.674  20.636  16.029  1.00  0.00     0.174 HD
ATOM     19  H11 UNL     1     -36.840  19.370  15.138  1.00  0.00     0.174 HD
ENDBRANCH   1  17
TORSDOF 2
ENDMDL
MODEL 5
REMARK VINA RESULT: -4.683306261      0.651      1.810
REMARK  2 active torsions:
REMARK  status: ('A' for Active; 'I' for Inactive)
REMARK    1  A    between atoms: N1_1  and  C1_4 
REMARK    2  A    between atoms: C3_10  and  N4_11 
ROOT
HETATM    1  C1  UNL     1     -39.236  21.278  16.995  1.00  0.00     0.691 A 
HETATM    2  N2  UNL     1     -38.003  20.965  17.439  1.00  0.00    -0.187 N 
ATOM      3  H2  UNL     1     -37.758  21.108  18.418  1.00  0.00     0.185 HD
HETATM    4  C2  UNL     1     -37.090  20.458  16.574  1.00  0.00     0.215 A 
HETATM    5  N3  UNL     1     -37.424  20.272  15.279  1.00  0.00    -0.187 N 
ATOM      6  H3  UNL     1     -36.730  19.889  14.636  1.00  0.00     0.185 HD
HETATM    7  C3  UNL     1     -38.652  20.578  14.814  1.00  0.00     0.695 A 
HETATM    8  N6  UNL     1     -39.535  21.079  15.696  1.00  0.00    -0.022 N 
ATOM      9  H6  UNL     1     -40.471  21.319  15.369  1.00  0.00     0.203 HD
ENDROOT
BRANCH   7  10
HETATM   10  N4  UNL     1     -38.997  20.381  13.455  1.00  0.00    -0.214 N 
HETATM   11  C4  UNL     1     -40.332  20.615  13.033  1.00  0.00     0.160 C 
HETATM   12  C5  UNL     1     -40.624  20.391  11.604  1.00  0.00     0.134 C 
HETATM   13  N5  UNL     1     -39.511  20.194  10.742  1.00  0.00    -0.418 N 
HETATM   14  C6  UNL     1     -38.254  20.675  11.218  1.00  0.00     0.134 C 
ATOM     15  H5  UNL     1     -39.605  19.734   9.836  1.00  0.00     0.153 HD
HETATM   16  C7  UNL     1     -37.975  19.944  12.537  1.00  0.00     0.160 C 
ENDBRANCH   7  10
BRANCH   1  17
HETATM   17  N1  UNL     1     -40.101  21.763  17.836  1.00  0.00    -0.234 N 
ATOM     18  H12 UNL     1     -41.107  21.673  17.692  1.00  0.00     0.174 HD
ATOM     19  H11 UNL     1     -39.760  22.250  18.665  1.00  0.00     0.174 HD
ENDBRANCH   1  17
TORSDOF 2
ENDMDL
