MODEL 1
REMARK VINA RESULT: -5.844882302      0.000      0.000
REMARK  1 active torsions:
REMARK  status: ('A' for Active; 'I' for Inactive)
REMARK    1  A    between atoms: C1_2  and  C2_4 
ROOT
HETATM    1  C2  UNL     1     -39.776  20.554  11.902  1.00  0.00     0.115 A 
HETATM    2  C3  UNL     1     -38.532  19.982  11.741  1.00  0.00     0.124 A 
HETATM    3  N2  UNL     1     -37.699  19.838  12.783  1.00  0.00    -0.347 N 
ATOM      4  H2  UNL     1     -36.782  19.413  12.648  1.00  0.00     0.167 HD
HETATM    5  C4  UNL     1     -38.079  20.259  14.025  1.00  0.00     0.154 A 
HETATM    6  N3  UNL     1     -37.461  20.237  15.208  1.00  0.00    -0.291 N 
ATOM      7  H3  UNL     1     -36.526  19.869  15.385  1.00  0.00     0.172 HD
HETATM    8  C5  UNL     1     -38.278  20.779  16.124  1.00  0.00     0.327 A 
HETATM    9  O2  UNL     1     -38.071  20.945  17.363  1.00  0.00    -0.247 OA
HETATM   10  N4  UNL     1     -39.415  21.142  15.502  1.00  0.00    -0.291 N 
ATOM     11  H4  UNL     1     -40.219  21.582  15.949  1.00  0.00     0.172 HD
HETATM   12  C6  UNL     1     -39.322  20.833  14.198  1.00  0.00     0.155 A 
HETATM   13  N5  UNL     1     -40.138  20.964  13.124  1.00  0.00    -0.334 N 
ATOM     14  H5  UNL     1     -41.057  21.388  13.251  1.00  0.00     0.168 HD
ENDROOT
BRANCH   1  15
HETATM   15  C1  UNL     1     -40.666  20.704  10.762  1.00  0.00     0.282 C 
HETATM   16  N1  UNL     1     -40.435  21.744   9.841  1.00  0.00    -0.056 NA
HETATM   17  O1  UNL     1     -41.644  19.942  10.552  1.00  0.00    -0.269 OA
ENDBRANCH   1  15
TORSDOF 1
ENDMDL
MODEL 2
REMARK VINA RESULT: -5.437015023      3.124      3.925
REMARK  1 active torsions:
REMARK  status: ('A' for Active; 'I' for Inactive)
REMARK    1  A    between atoms: C1_2  and  C2_4 
ROOT
HETATM    1  C2  UNL     1     -39.179  23.328  10.012  1.00  0.00     0.115 A 
HETATM    2  C3  UNL     1     -39.811  22.356   9.268  1.00  0.00     0.124 A 
HETATM    3  N2  UNL     1     -39.919  21.098   9.727  1.00  0.00    -0.347 N 
ATOM      4  H2  UNL     1     -40.390  20.389   9.164  1.00  0.00     0.167 HD
HETATM    5  C4  UNL     1     -39.398  20.768  10.944  1.00  0.00     0.154 A 
HETATM    6  N3  UNL     1     -39.365  19.620  11.625  1.00  0.00    -0.291 N 
ATOM      7  H3  UNL     1     -39.758  18.731  11.314  1.00  0.00     0.172 HD
HETATM    8  C5  UNL     1     -38.728  19.833  12.786  1.00  0.00     0.327 A 
HETATM    9  O2  UNL     1     -38.486  19.004  13.714  1.00  0.00    -0.247 OA
HETATM   10  N4  UNL     1     -38.361  21.127  12.827  1.00  0.00    -0.291 N 
ATOM     11  H4  UNL     1     -37.859  21.576  13.593  1.00  0.00     0.172 HD
HETATM   12  C6  UNL     1     -38.763  21.734  11.698  1.00  0.00     0.155 A 
HETATM   13  N5  UNL     1     -38.672  22.993  11.205  1.00  0.00    -0.334 N 
ATOM     14  H5  UNL     1     -38.202  23.709  11.761  1.00  0.00     0.168 HD
ENDROOT
BRANCH   1  15
HETATM   15  C1  UNL     1     -39.071  24.685   9.501  1.00  0.00     0.282 C 
HETATM   16  N1  UNL     1     -39.295  25.769  10.372  1.00  0.00    -0.056 NA
HETATM   17  O1  UNL     1     -38.784  24.945   8.305  1.00  0.00    -0.269 OA
ENDBRANCH   1  15
TORSDOF 1
ENDMDL
MODEL 3
REMARK VINA RESULT: -5.397269946      1.145      1.765
REMARK  1 active torsions:
REMARK  status: ('A' for Active; 'I' for Inactive)
REMARK    1  A    between atoms: C1_2  and  C2_4 
ROOT
HETATM    1  C2  UNL     1     -40.062  21.148  12.102  1.00  0.00     0.115 A 
HETATM    2  C3  UNL     1     -40.329  22.348  12.725  1.00  0.00     0.124 A 
HETATM    3  N2  UNL     1     -39.763  22.653  13.904  1.00  0.00    -0.347 N 
ATOM      4  H2  UNL     1     -39.970  23.546  14.352  1.00  0.00     0.167 HD
HETATM    5  C4  UNL     1     -38.910  21.770  14.501  1.00  0.00     0.154 A 
HETATM    6  N3  UNL     1     -38.226  21.819  15.646  1.00  0.00    -0.291 N 
ATOM      7  H3  UNL     1     -38.233  22.592  16.312  1.00  0.00     0.172 HD
HETATM    8  C5  UNL     1     -37.527  20.681  15.772  1.00  0.00     0.327 A 
HETATM    9  O2  UNL     1     -36.752  20.333  16.713  1.00  0.00    -0.247 OA
HETATM   10  N4  UNL     1     -37.781  19.917  14.694  1.00  0.00    -0.291 N 
ATOM     11  H4  UNL     1     -37.387  18.993  14.517  1.00  0.00     0.172 HD
HETATM   12  C6  UNL     1     -38.637  20.566  13.886  1.00  0.00     0.155 A 
HETATM   13  N5  UNL     1     -39.225  20.289  12.697  1.00  0.00    -0.334 N 
ATOM     14  H5  UNL     1     -39.023  19.399  12.241  1.00  0.00     0.168 HD
ENDROOT
BRANCH   1  15
HETATM   15  C1  UNL     1     -40.684  20.833  10.826  1.00  0.00     0.282 C 
HETATM   16  N1  UNL     1     -40.308  21.559   9.679  1.00  0.00    -0.056 NA
HETATM   17  O1  UNL     1     -41.552  19.933  10.690  1.00  0.00    -0.269 OA
ENDBRANCH   1  15
TORSDOF 1
ENDMDL
MODEL 4
REMARK VINA RESULT: -5.344587249      1.351      1.351
REMARK  1 active torsions:
REMARK  status: ('A' for Active; 'I' for Inactive)
REMARK    1  A    between atoms: C1_2  and  C2_4 
ROOT
HETATM    1  C2  UNL     1     -39.729  21.244  11.387  1.00  0.00     0.115 A 
HETATM    2  C3  UNL     1     -39.215  19.969  11.289  1.00  0.00     0.124 A 
HETATM    3  N2  UNL     1     -38.565  19.406  12.320  1.00  0.00    -0.347 N 
ATOM      4  H2  UNL     1     -38.191  18.461  12.232  1.00  0.00     0.167 HD
HETATM    5  C4  UNL     1     -38.406  20.097  13.486  1.00  0.00     0.154 A 
HETATM    6  N3  UNL     1     -37.815  19.783  14.641  1.00  0.00    -0.291 N 
ATOM      7  H3  UNL     1     -37.349  18.901  14.852  1.00  0.00     0.172 HD
HETATM    8  C5  UNL     1     -37.938  20.825  15.478  1.00  0.00     0.327 A 
HETATM    9  O2  UNL     1     -37.516  20.933  16.668  1.00  0.00    -0.247 OA
HETATM   10  N4  UNL     1     -38.612  21.796  14.834  1.00  0.00    -0.291 N 
ATOM     11  H4  UNL     1     -38.854  22.707  15.225  1.00  0.00     0.172 HD
HETATM   12  C6  UNL     1     -38.916  21.374  13.596  1.00  0.00     0.155 A 
HETATM   13  N5  UNL     1     -39.567  21.913  12.536  1.00  0.00    -0.334 N 
ATOM     14  H5  UNL     1     -39.945  22.857  12.615  1.00  0.00     0.168 HD
ENDROOT
BRANCH   1  15
HETATM   15  C1  UNL     1     -40.430  21.839  10.260  1.00  0.00     0.282 C 
HETATM   16  N1  UNL     1     -41.822  21.659  10.143  1.00  0.00    -0.056 NA
HETATM   17  O1  UNL     1     -39.850  22.514   9.373  1.00  0.00    -0.269 OA
ENDBRANCH   1  15
TORSDOF 1
ENDMDL
MODEL 5
REMARK VINA RESULT: -5.293498676      2.718      3.585
REMARK  1 active torsions:
REMARK  status: ('A' for Active; 'I' for Inactive)
REMARK    1  A    between atoms: C1_2  and  C2_4 
ROOT
HETATM    1  C2  UNL     1     -39.774  22.558   9.297  1.00  0.00     0.115 A 
HETATM    2  C3  UNL     1     -38.904  23.354  10.011  1.00  0.00     0.124 A 
HETATM    3  N2  UNL     1     -38.351  22.917  11.154  1.00  0.00    -0.347 N 
ATOM      4  H2  UNL     1     -37.709  23.518  11.671  1.00  0.00     0.167 HD
HETATM    5  C4  UNL     1     -38.646  21.670  11.623  1.00  0.00     0.154 A 
HETATM    6  N3  UNL     1     -38.246  21.001  12.707  1.00  0.00    -0.291 N 
ATOM      7  H3  UNL     1     -37.600  21.347  13.416  1.00  0.00     0.172 HD
HETATM    8  C5  UNL     1     -38.837  19.796  12.704  1.00  0.00     0.327 A 
HETATM    9  O2  UNL     1     -38.723  18.863  13.553  1.00  0.00    -0.247 OA
HETATM   10  N4  UNL     1     -39.612  19.717  11.607  1.00  0.00    -0.291 N 
ATOM     11  H4  UNL     1     -40.182  18.914  11.342  1.00  0.00     0.172 HD
HETATM   12  C6  UNL     1     -39.515  20.865  10.916  1.00  0.00     0.155 A 
HETATM   13  N5  UNL     1     -40.056  21.337   9.766  1.00  0.00    -0.334 N 
ATOM     14  H5  UNL     1     -40.699  20.743   9.242  1.00  0.00     0.168 HD
ENDROOT
BRANCH   1  15
HETATM   15  C1  UNL     1     -40.365  23.047   8.061  1.00  0.00     0.282 C 
HETATM   16  N1  UNL     1     -40.522  24.434   7.875  1.00  0.00    -0.056 NA
HETATM   17  O1  UNL     1     -40.747  22.285   7.137  1.00  0.00    -0.269 OA
ENDBRANCH   1  15
TORSDOF 1
ENDMDL
