MODEL 1
REMARK VINA RESULT: -5.513195268      0.000      0.000
REMARK  2 active torsions:
REMARK  status: ('A' for Active; 'I' for Inactive)
REMARK    1  A    between atoms: C3_3  and  N1_4 
REMARK    2  A    between atoms: C5_13  and  N6_14 
ROOT
HETATM    1  C1  UNL     1     -39.466  24.544   9.206  1.00  0.00     0.014 C 
HETATM    2  C2  UNL     1     -38.740  23.937   9.958  1.00  0.00    -0.095 C 
HETATM    3  C3  UNL     1     -37.836  23.209  10.869  1.00  0.00     0.262 C 
ENDROOT
BRANCH   3   4
HETATM    4  N1  UNL     1     -38.288  21.853  11.096  1.00  0.00    -0.095 N 
HETATM    5  N2  UNL     1     -38.497  20.914  10.198  1.00  0.00    -0.210 N 
HETATM    6  N3  UNL     1     -38.912  19.797  10.821  1.00  0.00    -0.205 N 
ATOM      7  H2  UNL     1     -38.365  21.016   9.192  1.00  0.00     0.210 HD
HETATM    8  N4  UNL     1     -38.972  20.014  12.109  1.00  0.00    -0.064 N 
ATOM      9  H3  UNL     1     -39.145  18.917  10.360  1.00  0.00     0.211 HD
HETATM   10  C4  UNL     1     -39.316  19.263  13.170  1.00  0.00     0.244 A 
HETATM   11  C6  UNL     1     -38.581  21.302  12.278  1.00  0.00     0.739 A 
HETATM   12  N5  UNL     1     -39.266  19.802  14.394  1.00  0.00    -0.185 N 
HETATM   13  C5  UNL     1     -38.873  21.093  14.552  1.00  0.00     0.691 A 
ATOM     14  H5  UNL     1     -39.523  19.244  15.208  1.00  0.00     0.185 HD
HETATM   15  N7  UNL     1     -38.527  21.855  13.502  1.00  0.00    -0.019 N 
ATOM     16  H7  UNL     1     -38.233  22.823  13.629  1.00  0.00     0.203 HD
BRANCH  13  17
HETATM   17  N6  UNL     1     -38.839  21.576  15.750  1.00  0.00    -0.234 N 
ATOM     18  H62 UNL     1     -39.687  21.618  16.314  1.00  0.00     0.174 HD
ATOM     19  H61 UNL     1     -37.944  21.909  16.108  1.00  0.00     0.174 HD
ENDBRANCH  13  17
ENDBRANCH   3   4
TORSDOF 2
ENDMDL
MODEL 2
REMARK VINA RESULT: -5.314916002      1.379      1.550
REMARK  2 active torsions:
REMARK  status: ('A' for Active; 'I' for Inactive)
REMARK    1  A    between atoms: C3_3  and  N1_4 
REMARK    2  A    between atoms: C5_13  and  N6_14 
ROOT
HETATM    1  C1  UNL     1     -37.725  24.595  11.463  1.00  0.00     0.014 C 
HETATM    2  C2  UNL     1     -37.825  23.518  10.925  1.00  0.00    -0.095 C 
HETATM    3  C3  UNL     1     -37.939  22.212  10.248  1.00  0.00     0.262 C 
ENDROOT
BRANCH   3   4
HETATM    4  N1  UNL     1     -39.029  21.427  10.788  1.00  0.00    -0.095 N 
HETATM    5  N2  UNL     1     -40.187  21.161  10.221  1.00  0.00    -0.210 N 
HETATM    6  N3  UNL     1     -40.918  20.399  11.053  1.00  0.00    -0.205 N 
ATOM      7  H2  UNL     1     -40.482  21.480   9.299  1.00  0.00     0.210 HD
HETATM    8  N4  UNL     1     -40.238  20.177  12.148  1.00  0.00    -0.064 N 
ATOM      9  H3  UNL     1     -41.856  20.050  10.861  1.00  0.00     0.211 HD
HETATM   10  C4  UNL     1     -40.485  19.496  13.281  1.00  0.00     0.244 A 
HETATM   11  C6  UNL     1     -39.056  20.821  11.979  1.00  0.00     0.739 A 
HETATM   12  N5  UNL     1     -39.550  19.462  14.239  1.00  0.00    -0.185 N 
HETATM   13  C5  UNL     1     -38.370  20.111  14.059  1.00  0.00     0.691 A 
ATOM     14  H5  UNL     1     -39.724  18.949  15.103  1.00  0.00     0.185 HD
HETATM   15  N7  UNL     1     -38.110  20.795  12.933  1.00  0.00    -0.019 N 
ATOM     16  H7  UNL     1     -37.221  21.279  12.806  1.00  0.00     0.203 HD
BRANCH  13  17
HETATM   17  N6  UNL     1     -37.494  20.054  15.007  1.00  0.00    -0.234 N 
ATOM     18  H62 UNL     1     -36.578  20.486  14.891  1.00  0.00     0.174 HD
ATOM     19  H61 UNL     1     -37.747  19.565  15.866  1.00  0.00     0.174 HD
ENDBRANCH  13  17
ENDBRANCH   3   4
TORSDOF 2
ENDMDL
MODEL 3
REMARK VINA RESULT: -5.239947035      2.010      2.069
REMARK  2 active torsions:
REMARK  status: ('A' for Active; 'I' for Inactive)
REMARK    1  A    between atoms: C3_3  and  N1_4 
REMARK    2  A    between atoms: C5_13  and  N6_14 
ROOT
HETATM    1  C1  UNL     1     -40.444  23.395   7.950  1.00  0.00     0.014 C 
HETATM    2  C2  UNL     1     -40.802  22.952   9.016  1.00  0.00    -0.095 C 
HETATM    3  C3  UNL     1     -41.246  22.432  10.323  1.00  0.00     0.262 C 
ENDROOT
BRANCH   3   4
HETATM    4  N1  UNL     1     -40.399  21.352  10.782  1.00  0.00    -0.095 N 
HETATM    5  N2  UNL     1     -39.468  20.716  10.104  1.00  0.00    -0.210 N 
HETATM    6  N3  UNL     1     -38.912  19.781  10.893  1.00  0.00    -0.205 N 
ATOM      7  H2  UNL     1     -39.210  20.902   9.135  1.00  0.00     0.210 HD
HETATM    8  N4  UNL     1     -39.480  19.814  12.071  1.00  0.00    -0.064 N 
ATOM      9  H3  UNL     1     -38.164  19.145  10.617  1.00  0.00     0.211 HD
HETATM   10  C4  UNL     1     -39.315  19.116  13.209  1.00  0.00     0.244 A 
HETATM   11  C6  UNL     1     -40.410  20.798  11.998  1.00  0.00     0.739 A 
HETATM   12  N5  UNL     1     -40.080  19.406  14.269  1.00  0.00    -0.185 N 
HETATM   13  C5  UNL     1     -41.009  20.394  14.185  1.00  0.00     0.691 A 
ATOM     14  H5  UNL     1     -39.966  18.886  15.138  1.00  0.00     0.185 HD
HETATM   15  N7  UNL     1     -41.185  21.099  13.055  1.00  0.00    -0.019 N 
ATOM     16  H7  UNL     1     -41.884  21.839  13.000  1.00  0.00     0.203 HD
BRANCH  13  17
HETATM   17  N6  UNL     1     -41.727  20.643  15.229  1.00  0.00    -0.234 N 
ATOM     18  H62 UNL     1     -41.382  21.269  15.957  1.00  0.00     0.174 HD
ATOM     19  H61 UNL     1     -42.642  20.197  15.301  1.00  0.00     0.174 HD
ENDBRANCH  13  17
ENDBRANCH   3   4
TORSDOF 2
ENDMDL
MODEL 4
REMARK VINA RESULT: -5.158068911      2.513      5.048
REMARK  2 active torsions:
REMARK  status: ('A' for Active; 'I' for Inactive)
REMARK    1  A    between atoms: C3_3  and  N1_4 
REMARK    2  A    between atoms: C5_13  and  N6_14 
ROOT
HETATM    1  C1  UNL     1     -42.006  20.124  17.683  1.00  0.00     0.014 C 
HETATM    2  C2  UNL     1     -41.452  20.834  16.877  1.00  0.00    -0.095 C 
HETATM    3  C3  UNL     1     -40.795  21.711  15.889  1.00  0.00     0.262 C 
ENDROOT
BRANCH   3   4
HETATM    4  N1  UNL     1     -39.703  21.035  15.220  1.00  0.00    -0.095 N 
HETATM    5  N2  UNL     1     -38.544  20.681  15.730  1.00  0.00    -0.210 N 
HETATM    6  N3  UNL     1     -37.812  20.077  14.778  1.00  0.00    -0.205 N 
ATOM      7  H2  UNL     1     -38.247  20.838  16.693  1.00  0.00     0.210 HD
HETATM    8  N4  UNL     1     -38.494  20.043  13.663  1.00  0.00    -0.064 N 
ATOM      9  H3  UNL     1     -36.872  19.703  14.905  1.00  0.00     0.211 HD
HETATM   10  C4  UNL     1     -38.248  19.569  12.429  1.00  0.00     0.244 A 
HETATM   11  C6  UNL     1     -39.678  20.644  13.943  1.00  0.00     0.739 A 
HETATM   12  N5  UNL     1     -39.186  19.696  11.482  1.00  0.00    -0.185 N 
HETATM   13  C5  UNL     1     -40.367  20.300  11.773  1.00  0.00     0.691 A 
ATOM     14  H5  UNL     1     -39.012  19.340  10.542  1.00  0.00     0.185 HD
HETATM   15  N7  UNL     1     -40.627  20.779  13.001  1.00  0.00    -0.019 N 
ATOM     16  H7  UNL     1     -41.517  21.230  13.211  1.00  0.00     0.203 HD
BRANCH  13  17
HETATM   17  N6  UNL     1     -41.246  20.403  10.831  1.00  0.00    -0.234 N 
ATOM     18  H62 UNL     1     -40.954  20.439   9.855  1.00  0.00     0.174 HD
ATOM     19  H61 UNL     1     -42.230  20.447  11.095  1.00  0.00     0.174 HD
ENDBRANCH  13  17
ENDBRANCH   3   4
TORSDOF 2
ENDMDL
MODEL 5
REMARK VINA RESULT: -5.131408681      1.552      4.392
REMARK  2 active torsions:
REMARK  status: ('A' for Active; 'I' for Inactive)
REMARK    1  A    between atoms: C3_3  and  N1_4 
REMARK    2  A    between atoms: C5_13  and  N6_14 
ROOT
HETATM    1  C1  UNL     1     -37.348  21.282  16.917  1.00  0.00     0.014 C 
HETATM    2  C2  UNL     1     -38.292  21.290  16.163  1.00  0.00    -0.095 C 
HETATM    3  C3  UNL     1     -39.460  21.298  15.261  1.00  0.00     0.262 C 
ENDROOT
BRANCH   3   4
HETATM    4  N1  UNL     1     -39.146  20.701  13.980  1.00  0.00    -0.095 N 
HETATM    5  N2  UNL     1     -39.242  19.434  13.638  1.00  0.00    -0.210 N 
HETATM    6  N3  UNL     1     -38.855  19.295  12.358  1.00  0.00    -0.205 N 
ATOM      7  H2  UNL     1     -39.560  18.679  14.245  1.00  0.00     0.210 HD
HETATM    8  N4  UNL     1     -38.511  20.462  11.879  1.00  0.00    -0.064 N 
ATOM      9  H3  UNL     1     -38.833  18.416  11.841  1.00  0.00     0.211 HD
HETATM   10  C4  UNL     1     -38.059  20.888  10.687  1.00  0.00     0.244 A 
HETATM   11  C6  UNL     1     -38.694  21.340  12.897  1.00  0.00     0.739 A 
HETATM   12  N5  UNL     1     -37.792  22.189  10.517  1.00  0.00    -0.185 N 
HETATM   13  C5  UNL     1     -37.979  23.060  11.543  1.00  0.00     0.691 A 
ATOM     14  H5  UNL     1     -37.450  22.526   9.618  1.00  0.00     0.185 HD
HETATM   15  N7  UNL     1     -38.430  22.649  12.739  1.00  0.00    -0.019 N 
ATOM     16  H7  UNL     1     -38.568  23.309  13.504  1.00  0.00     0.203 HD
BRANCH  13  17
HETATM   17  N6  UNL     1     -37.711  24.307  11.338  1.00  0.00    -0.234 N 
ATOM     18  H62 UNL     1     -36.790  24.589  11.003  1.00  0.00     0.174 HD
ATOM     19  H61 UNL     1     -38.444  24.992  11.522  1.00  0.00     0.174 HD
ENDBRANCH  13  17
ENDBRANCH   3   4
TORSDOF 2
ENDMDL
