MODEL 1
REMARK VINA RESULT: -6.194537170      0.000      0.000
REMARK  1 active torsions:
REMARK  status: ('A' for Active; 'I' for Inactive)
REMARK    1  A    between atoms: C1_2  and  C2_4 
ROOT
HETATM    1  C2  UNL     1     -39.720  20.503  11.806  1.00  0.00     0.188 A 
HETATM    2  N2  UNL     1     -38.520  19.892  11.668  1.00  0.00    -0.280 N 
ATOM      3  H2  UNL     1     -38.237  19.547  10.750  1.00  0.00     0.189 HD
HETATM    4  N3  UNL     1     -37.708  19.733  12.697  1.00  0.00    -0.281 N 
ATOM      5  H3  UNL     1     -36.809  19.269  12.566  1.00  0.00     0.188 HD
HETATM    6  C3  UNL     1     -38.057  20.177  13.917  1.00  0.00     0.169 A 
HETATM    7  N4  UNL     1     -37.493  20.181  15.137  1.00  0.00    -0.290 N 
ATOM      8  H4  UNL     1     -36.579  19.791  15.369  1.00  0.00     0.172 HD
HETATM    9  C4  UNL     1     -38.334  20.785  16.006  1.00  0.00     0.327 A 
HETATM   10  O2  UNL     1     -38.118  20.963  17.252  1.00  0.00    -0.247 OA
HETATM   11  N5  UNL     1     -39.442  21.176  15.371  1.00  0.00    -0.291 N 
ATOM     12  H5  UNL     1     -40.246  21.656  15.776  1.00  0.00     0.172 HD
HETATM   13  C5  UNL     1     -39.277  20.801  14.067  1.00  0.00     0.157 A 
HETATM   14  N6  UNL     1     -40.086  20.954  13.016  1.00  0.00    -0.320 N 
ATOM     15  H6  UNL     1     -40.988  21.417  13.132  1.00  0.00     0.169 HD
ENDROOT
BRANCH   1  16
HETATM   16  C1  UNL     1     -40.624  20.688  10.689  1.00  0.00     0.300 C 
HETATM   17  N1  UNL     1     -40.393  21.692   9.735  1.00  0.00    -0.054 NA
HETATM   18  O1  UNL     1     -41.614  19.942  10.586  1.00  0.00    -0.268 OA
ENDBRANCH   1  16
TORSDOF 1
ENDMDL
MODEL 2
REMARK VINA RESULT: -5.842976792      1.247      4.902
REMARK  1 active torsions:
REMARK  status: ('A' for Active; 'I' for Inactive)
REMARK    1  A    between atoms: C1_2  and  C2_4 
ROOT
HETATM    1  C2  UNL     1     -38.438  20.900  15.555  1.00  0.00     0.188 A 
HETATM    2  N2  UNL     1     -37.488  20.133  14.970  1.00  0.00    -0.280 N 
ATOM      3  H2  UNL     1     -36.626  19.932  15.477  1.00  0.00     0.189 HD
HETATM    4  N3  UNL     1     -37.655  19.642  13.756  1.00  0.00    -0.281 N 
ATOM      5  H3  UNL     1     -36.924  19.066  13.338  1.00  0.00     0.188 HD
HETATM    6  C3  UNL     1     -38.781  19.893  13.066  1.00  0.00     0.169 A 
HETATM    7  N4  UNL     1     -39.261  19.564  11.855  1.00  0.00    -0.290 N 
ATOM      8  H4  UNL     1     -38.780  18.988  11.163  1.00  0.00     0.172 HD
HETATM    9  C4  UNL     1     -40.484  20.120  11.702  1.00  0.00     0.327 A 
HETATM   10  O2  UNL     1     -41.229  20.012  10.671  1.00  0.00    -0.247 OA
HETATM   11  N5  UNL     1     -40.811  20.810  12.799  1.00  0.00    -0.291 N 
ATOM     12  H5  UNL     1     -41.672  21.331  12.963  1.00  0.00     0.172 HD
HETATM   13  C5  UNL     1     -39.754  20.673  13.654  1.00  0.00     0.157 A 
HETATM   14  N6  UNL     1     -39.569  21.162  14.883  1.00  0.00    -0.320 N 
ATOM     15  H6  UNL     1     -40.292  21.738  15.314  1.00  0.00     0.169 HD
ENDROOT
BRANCH   1  16
HETATM   16  C1  UNL     1     -38.274  21.448  16.886  1.00  0.00     0.300 C 
HETATM   17  N1  UNL     1     -37.525  20.764  17.858  1.00  0.00    -0.054 NA
HETATM   18  O1  UNL     1     -38.807  22.538  17.159  1.00  0.00    -0.268 OA
ENDBRANCH   1  16
TORSDOF 1
ENDMDL
MODEL 3
REMARK VINA RESULT: -5.538926284      2.854      3.125
REMARK  1 active torsions:
REMARK  status: ('A' for Active; 'I' for Inactive)
REMARK    1  A    between atoms: C1_2  and  C2_4 
ROOT
HETATM    1  C2  UNL     1     -38.461  22.518  11.317  1.00  0.00     0.188 A 
HETATM    2  N2  UNL     1     -37.826  21.329  11.189  1.00  0.00    -0.280 N 
ATOM      3  H2  UNL     1     -37.035  21.252  10.551  1.00  0.00     0.189 HD
HETATM    4  N3  UNL     1     -38.212  20.268  11.874  1.00  0.00    -0.281 N 
ATOM      5  H3  UNL     1     -37.716  19.384  11.759  1.00  0.00     0.188 HD
HETATM    6  C3  UNL     1     -39.253  20.344  12.721  1.00  0.00     0.169 A 
HETATM    7  N4  UNL     1     -39.887  19.491  13.544  1.00  0.00    -0.290 N 
ATOM      8  H4  UNL     1     -39.649  18.508  13.678  1.00  0.00     0.172 HD
HETATM    9  C4  UNL     1     -40.893  20.147  14.165  1.00  0.00     0.327 A 
HETATM   10  O2  UNL     1     -41.701  19.643  15.015  1.00  0.00    -0.247 OA
HETATM   11  N5  UNL     1     -40.926  21.420  13.758  1.00  0.00    -0.291 N 
ATOM     12  H5  UNL     1     -41.578  22.145  14.058  1.00  0.00     0.172 HD
HETATM   13  C5  UNL     1     -39.906  21.551  12.858  1.00  0.00     0.157 A 
HETATM   14  N6  UNL     1     -39.502  22.614  12.158  1.00  0.00    -0.320 N 
ATOM     15  H6  UNL     1     -39.988  23.505  12.263  1.00  0.00     0.169 HD
ENDROOT
BRANCH   1  16
HETATM   16  C1  UNL     1     -38.053  23.694  10.575  1.00  0.00     0.300 C 
HETATM   17  N1  UNL     1     -38.736  24.081   9.410  1.00  0.00    -0.054 NA
HETATM   18  O1  UNL     1     -37.085  24.359  10.984  1.00  0.00    -0.268 OA
ENDBRANCH   1  16
TORSDOF 1
ENDMDL
MODEL 4
REMARK VINA RESULT: -5.538004297      1.508      1.518
REMARK  1 active torsions:
REMARK  status: ('A' for Active; 'I' for Inactive)
REMARK    1  A    between atoms: C1_2  and  C2_4 
ROOT
HETATM    1  C2  UNL     1     -39.017  21.524  11.021  1.00  0.00     0.188 A 
HETATM    2  N2  UNL     1     -38.642  20.224  10.974  1.00  0.00    -0.280 N 
ATOM      3  H2  UNL     1     -38.646  19.735  10.079  1.00  0.00     0.189 HD
HETATM    4  N3  UNL     1     -38.271  19.577  12.063  1.00  0.00    -0.281 N 
ATOM      5  H3  UNL     1     -37.992  18.598  12.000  1.00  0.00     0.188 HD
HETATM    6  C3  UNL     1     -38.257  20.199  13.255  1.00  0.00     0.169 A 
HETATM    7  N4  UNL     1     -37.946  19.853  14.516  1.00  0.00    -0.290 N 
ATOM      8  H4  UNL     1     -37.625  18.932  14.817  1.00  0.00     0.172 HD
HETATM    9  C4  UNL     1     -38.128  20.924  15.321  1.00  0.00     0.327 A 
HETATM   10  O2  UNL     1     -37.928  20.953  16.582  1.00  0.00    -0.247 OA
HETATM   11  N5  UNL     1     -38.555  21.967  14.602  1.00  0.00    -0.291 N 
ATOM     12  H5  UNL     1     -38.774  22.902  14.946  1.00  0.00     0.172 HD
HETATM   13  C5  UNL     1     -38.637  21.522  13.313  1.00  0.00     0.157 A 
HETATM   14  N6  UNL     1     -39.010  22.162  12.201  1.00  0.00    -0.320 N 
ATOM     15  H6  UNL     1     -39.290  23.142  12.249  1.00  0.00     0.169 HD
ENDROOT
BRANCH   1  16
HETATM   16  C1  UNL     1     -39.427  22.251   9.837  1.00  0.00     0.300 C 
HETATM   17  N1  UNL     1     -38.841  23.486   9.513  1.00  0.00    -0.054 NA
HETATM   18  O1  UNL     1     -40.311  21.767   9.107  1.00  0.00    -0.268 OA
ENDBRANCH   1  16
TORSDOF 1
ENDMDL
MODEL 5
REMARK VINA RESULT: -5.490958310      2.034      2.902
REMARK  1 active torsions:
REMARK  status: ('A' for Active; 'I' for Inactive)
REMARK    1  A    between atoms: C1_2  and  C2_4 
ROOT
HETATM    1  C2  UNL     1     -40.898  22.043  10.114  1.00  0.00     0.188 A 
HETATM    2  N2  UNL     1     -39.767  21.858   9.392  1.00  0.00    -0.280 N 
ATOM      3  H2  UNL     1     -39.741  22.161   8.419  1.00  0.00     0.189 HD
HETATM    4  N3  UNL     1     -38.699  21.294   9.924  1.00  0.00    -0.281 N 
ATOM      5  H3  UNL     1     -37.859  21.166   9.359  1.00  0.00     0.188 HD
HETATM    6  C3  UNL     1     -38.708  20.886  11.205  1.00  0.00     0.169 A 
HETATM    7  N4  UNL     1     -37.828  20.295  12.033  1.00  0.00    -0.290 N 
ATOM      8  H4  UNL     1     -36.876  20.022  11.789  1.00  0.00     0.172 HD
HETATM    9  C4  UNL     1     -38.411  20.123  13.240  1.00  0.00     0.327 A 
HETATM   10  O2  UNL     1     -37.864  19.592  14.264  1.00  0.00    -0.247 OA
HETATM   11  N5  UNL     1     -39.662  20.592  13.213  1.00  0.00    -0.291 N 
ATOM     12  H5  UNL     1     -40.335  20.593  13.980  1.00  0.00     0.172 HD
HETATM   13  C5  UNL     1     -39.855  21.070  11.948  1.00  0.00     0.157 A 
HETATM   14  N6  UNL     1     -40.926  21.643  11.394  1.00  0.00    -0.320 N 
ATOM     15  H6  UNL     1     -41.772  21.777  11.948  1.00  0.00     0.169 HD
ENDROOT
BRANCH   1  16
HETATM   16  C1  UNL     1     -42.080  22.661   9.549  1.00  0.00     0.300 C 
HETATM   17  N1  UNL     1     -43.083  23.187  10.381  1.00  0.00    -0.054 NA
HETATM   18  O1  UNL     1     -42.198  22.719   8.312  1.00  0.00    -0.268 OA
ENDBRANCH   1  16
TORSDOF 1
ENDMDL
