MODEL 1
REMARK VINA RESULT: -5.115385321      0.000      0.000
REMARK  9 active torsions:
REMARK  status: ('A' for Active; 'I' for Inactive)
REMARK    1  A    between atoms: N1_2  and  C2_5 
REMARK    2  A    between atoms: C2_5  and  C3_6 
REMARK    3  A    between atoms: C5_8  and  C6_9 
REMARK    4  A    between atoms: C6_9  and  C7_10 
REMARK    5  A    between atoms: C7_10  and  N2_11 
REMARK    6  A    between atoms: N2_11  and  C8_13 
REMARK    7  A    between atoms: C8_13  and  C9_15 
REMARK    8  A    between atoms: C9_15  and  C10_16 
REMARK    9  A    between atoms: C10_16  and  N3_17 
ROOT
HETATM    1  C7  UNL     1      82.762  21.163   1.212  1.00  0.00     0.120 C 
ENDROOT
BRANCH   1   2
HETATM    2  C6  UNL     1      82.126  19.878   0.869  1.00  0.00     0.024 C 
BRANCH   2   3
HETATM    3  C5  UNL     1      81.118  19.850  -0.223  1.00  0.00    -0.007 A 
HETATM    4  C3  UNL     1      80.472  18.493  -0.414  1.00  0.00     0.016 A 
HETATM    5  C4  UNL     1      79.672  19.705  -0.104  1.00  0.00     0.011 A 
BRANCH   4   6
HETATM    6  C2  UNL     1      80.312  17.917  -1.784  1.00  0.00     0.236 C 
BRANCH   6   7
HETATM    7  N1  UNL     1      80.346  16.457  -1.669  1.00  0.00    -0.079 N 
HETATM    8  C1  UNL     1      80.555  16.096  -0.269  1.00  0.00     0.267 C 
ATOM      9  H12 UNL     1      81.038  16.035  -2.287  1.00  0.00     0.276 HD
ATOM     10  H11 UNL     1      79.515  16.016  -2.064  1.00  0.00     0.276 HD
ENDBRANCH   6   7
ENDBRANCH   4   6
ENDBRANCH   2   3
ENDBRANCH   1   2
BRANCH   1  11
HETATM   11  N2  UNL     1      81.931  22.293   0.984  1.00  0.00    -0.384 N 
ATOM     12  H2  UNL     1      81.807  22.625   0.027  1.00  0.00     0.160 HD
BRANCH  11  13
HETATM   13  C8  UNL     1      81.268  22.975   2.030  1.00  0.00     0.074 C 
HETATM   14  S1  UNL     1      79.657  23.341   1.908  1.00  0.00    -0.066 SA
BRANCH  13  15
HETATM   15  C9  UNL     1      82.016  23.376   3.242  1.00  0.00     0.088 C 
BRANCH  15  16
HETATM   16  C10 UNL     1      81.295  24.654   3.753  1.00  0.00     0.122 C 
BRANCH  16  17
HETATM   17  N3  UNL     1      82.196  25.743   3.667  1.00  0.00    -0.420 N 
HETATM   18  C11 UNL     1      83.577  25.439   3.726  1.00  0.00     0.142 C 
HETATM   19  C12 UNL     1      81.810  26.729   2.704  1.00  0.00     0.142 C 
ENDBRANCH  16  17
ENDBRANCH  15  16
ENDBRANCH  13  15
ENDBRANCH  11  13
ENDBRANCH   1  11
TORSDOF 9
ENDMDL
MODEL 2
REMARK VINA RESULT: -5.101467990      1.101      1.206
REMARK  9 active torsions:
REMARK  status: ('A' for Active; 'I' for Inactive)
REMARK    1  A    between atoms: N1_2  and  C2_5 
REMARK    2  A    between atoms: C2_5  and  C3_6 
REMARK    3  A    between atoms: C5_8  and  C6_9 
REMARK    4  A    between atoms: C6_9  and  C7_10 
REMARK    5  A    between atoms: C7_10  and  N2_11 
REMARK    6  A    between atoms: N2_11  and  C8_13 
REMARK    7  A    between atoms: C8_13  and  C9_15 
REMARK    8  A    between atoms: C9_15  and  C10_16 
REMARK    9  A    between atoms: C10_16  and  N3_17 
ROOT
HETATM    1  C7  UNL     1      82.868  21.178   0.983  1.00  0.00     0.120 C 
ENDROOT
BRANCH   1   2
HETATM    2  C6  UNL     1      82.173  19.895   0.772  1.00  0.00     0.024 C 
BRANCH   2   3
HETATM    3  C5  UNL     1      81.191  19.790  -0.339  1.00  0.00    -0.007 A 
HETATM    4  C3  UNL     1      80.552  18.420  -0.454  1.00  0.00     0.016 A 
HETATM    5  C4  UNL     1      79.743  19.648  -0.245  1.00  0.00     0.011 A 
BRANCH   4   6
HETATM    6  C2  UNL     1      80.426  17.752  -1.784  1.00  0.00     0.236 C 
BRANCH   6   7
HETATM    7  N1  UNL     1      80.394  16.305  -1.564  1.00  0.00    -0.079 N 
HETATM    8  C1  UNL     1      80.412  16.043  -0.127  1.00  0.00     0.267 C 
ATOM      9  H12 UNL     1      81.144  15.820  -2.057  1.00  0.00     0.276 HD
ATOM     10  H11 UNL     1      79.606  15.857  -2.031  1.00  0.00     0.276 HD
ENDBRANCH   6   7
ENDBRANCH   4   6
ENDBRANCH   2   3
ENDBRANCH   1   2
BRANCH   1  11
HETATM   11  N2  UNL     1      82.068  22.317   0.693  1.00  0.00    -0.384 N 
ATOM     12  H2  UNL     1      82.007  22.639  -0.273  1.00  0.00     0.160 HD
BRANCH  11  13
HETATM   13  C8  UNL     1      81.355  23.021   1.691  1.00  0.00     0.074 C 
HETATM   14  S1  UNL     1      79.738  22.739   1.925  1.00  0.00    -0.066 SA
BRANCH  13  15
HETATM   15  C9  UNL     1      82.048  24.024   2.527  1.00  0.00     0.088 C 
BRANCH  15  16
HETATM   16  C10 UNL     1      81.648  25.397   1.920  1.00  0.00     0.122 C 
BRANCH  16  17
HETATM   17  N3  UNL     1      82.829  26.135   1.662  1.00  0.00    -0.420 N 
HETATM   18  C11 UNL     1      83.497  25.870   0.443  1.00  0.00     0.142 C 
HETATM   19  C12 UNL     1      82.737  27.511   2.043  1.00  0.00     0.142 C 
ENDBRANCH  16  17
ENDBRANCH  15  16
ENDBRANCH  13  15
ENDBRANCH  11  13
ENDBRANCH   1  11
TORSDOF 9
ENDMDL
MODEL 3
REMARK VINA RESULT: -5.093633728      1.420      1.502
REMARK  9 active torsions:
REMARK  status: ('A' for Active; 'I' for Inactive)
REMARK    1  A    between atoms: N1_2  and  C2_5 
REMARK    2  A    between atoms: C2_5  and  C3_6 
REMARK    3  A    between atoms: C5_8  and  C6_9 
REMARK    4  A    between atoms: C6_9  and  C7_10 
REMARK    5  A    between atoms: C7_10  and  N2_11 
REMARK    6  A    between atoms: N2_11  and  C8_13 
REMARK    7  A    between atoms: C8_13  and  C9_15 
REMARK    8  A    between atoms: C9_15  and  C10_16 
REMARK    9  A    between atoms: C10_16  and  N3_17 
ROOT
HETATM    1  C7  UNL     1      83.195  20.883   0.733  1.00  0.00     0.120 C 
ENDROOT
BRANCH   1   2
HETATM    2  C6  UNL     1      82.213  19.784   0.740  1.00  0.00     0.024 C 
BRANCH   2   3
HETATM    3  C5  UNL     1      81.102  19.813  -0.247  1.00  0.00    -0.007 A 
HETATM    4  C3  UNL     1      80.379  18.488  -0.383  1.00  0.00     0.016 A 
HETATM    5  C4  UNL     1      79.670  19.731   0.013  1.00  0.00     0.011 A 
BRANCH   4   6
HETATM    6  C2  UNL     1      80.060  17.935  -1.734  1.00  0.00     0.236 C 
BRANCH   6   7
HETATM    7  N1  UNL     1      80.368  16.503  -1.723  1.00  0.00    -0.079 N 
HETATM    8  C1  UNL     1      80.475  16.052  -0.337  1.00  0.00     0.267 C 
ATOM      9  H12 UNL     1      81.199  16.281  -2.269  1.00  0.00     0.276 HD
ATOM     10  H11 UNL     1      79.695  15.956  -2.259  1.00  0.00     0.276 HD
ENDBRANCH   6   7
ENDBRANCH   4   6
ENDBRANCH   2   3
ENDBRANCH   1   2
BRANCH   1  11
HETATM   11  N2  UNL     1      82.700  22.090   0.167  1.00  0.00    -0.384 N 
ATOM     12  H2  UNL     1      82.323  22.067  -0.780  1.00  0.00     0.160 HD
BRANCH  11  13
HETATM   13  C8  UNL     1      82.711  23.319   0.866  1.00  0.00     0.074 C 
HETATM   14  S1  UNL     1      83.758  24.527   0.427  1.00  0.00    -0.066 SA
BRANCH  13  15
HETATM   15  C9  UNL     1      81.790  23.531   2.004  1.00  0.00     0.088 C 
BRANCH  15  16
HETATM   16  C10 UNL     1      81.199  24.951   1.782  1.00  0.00     0.122 C 
BRANCH  16  17
HETATM   17  N3  UNL     1      81.377  25.702   2.969  1.00  0.00    -0.420 N 
HETATM   18  C11 UNL     1      81.842  25.001   4.107  1.00  0.00     0.142 C 
HETATM   19  C12 UNL     1      81.953  26.993   2.746  1.00  0.00     0.142 C 
ENDBRANCH  16  17
ENDBRANCH  15  16
ENDBRANCH  13  15
ENDBRANCH  11  13
ENDBRANCH   1  11
TORSDOF 9
ENDMDL
MODEL 4
REMARK VINA RESULT: -5.051506817      2.036      2.377
REMARK  9 active torsions:
REMARK  status: ('A' for Active; 'I' for Inactive)
REMARK    1  A    between atoms: N1_2  and  C2_5 
REMARK    2  A    between atoms: C2_5  and  C3_6 
REMARK    3  A    between atoms: C5_8  and  C6_9 
REMARK    4  A    between atoms: C6_9  and  C7_10 
REMARK    5  A    between atoms: C7_10  and  N2_11 
REMARK    6  A    between atoms: N2_11  and  C8_13 
REMARK    7  A    between atoms: C8_13  and  C9_15 
REMARK    8  A    between atoms: C9_15  and  C10_16 
REMARK    9  A    between atoms: C10_16  and  N3_17 
ROOT
HETATM    1  C7  UNL     1      83.380  20.681   0.556  1.00  0.00     0.120 C 
ENDROOT
BRANCH   1   2
HETATM    2  C6  UNL     1      82.213  19.805   0.774  1.00  0.00     0.024 C 
BRANCH   2   3
HETATM    3  C5  UNL     1      81.083  19.869  -0.189  1.00  0.00    -0.007 A 
HETATM    4  C3  UNL     1      80.363  18.547  -0.366  1.00  0.00     0.016 A 
HETATM    5  C4  UNL     1      79.656  19.769   0.096  1.00  0.00     0.011 A 
BRANCH   4   6
HETATM    6  C2  UNL     1      80.019  18.049  -1.732  1.00  0.00     0.236 C 
BRANCH   6   7
HETATM    7  N1  UNL     1      80.320  16.616  -1.781  1.00  0.00    -0.079 N 
HETATM    8  C1  UNL     1      80.540  16.130  -0.421  1.00  0.00     0.267 C 
ATOM      9  H12 UNL     1      81.102  16.405  -2.401  1.00  0.00     0.276 HD
ATOM     10  H11 UNL     1      79.602  16.085  -2.272  1.00  0.00     0.276 HD
ENDBRANCH   6   7
ENDBRANCH   4   6
ENDBRANCH   2   3
ENDBRANCH   1   2
BRANCH   1  11
HETATM   11  N2  UNL     1      83.079  21.864  -0.173  1.00  0.00    -0.384 N 
ATOM     12  H2  UNL     1      82.618  21.777  -1.078  1.00  0.00     0.160 HD
BRANCH  11  13
HETATM   13  C8  UNL     1      83.395  23.155   0.309  1.00  0.00     0.074 C 
HETATM   14  S1  UNL     1      84.077  24.283  -0.696  1.00  0.00    -0.066 SA
BRANCH  13  15
HETATM   15  C9  UNL     1      83.128  23.504   1.720  1.00  0.00     0.088 C 
BRANCH  15  16
HETATM   16  C10 UNL     1      81.729  24.182   1.708  1.00  0.00     0.122 C 
BRANCH  16  17
HETATM   17  N3  UNL     1      80.754  23.204   2.016  1.00  0.00    -0.420 N 
HETATM   18  C11 UNL     1      81.002  22.383   3.142  1.00  0.00     0.142 C 
HETATM   19  C12 UNL     1      79.409  23.668   1.862  1.00  0.00     0.142 C 
ENDBRANCH  16  17
ENDBRANCH  15  16
ENDBRANCH  13  15
ENDBRANCH  11  13
ENDBRANCH   1  11
TORSDOF 9
ENDMDL
MODEL 5
REMARK VINA RESULT: -5.036047807      1.683      1.971
REMARK  9 active torsions:
REMARK  status: ('A' for Active; 'I' for Inactive)
REMARK    1  A    between atoms: N1_2  and  C2_5 
REMARK    2  A    between atoms: C2_5  and  C3_6 
REMARK    3  A    between atoms: C5_8  and  C6_9 
REMARK    4  A    between atoms: C6_9  and  C7_10 
REMARK    5  A    between atoms: C7_10  and  N2_11 
REMARK    6  A    between atoms: N2_11  and  C8_13 
REMARK    7  A    between atoms: C8_13  and  C9_15 
REMARK    8  A    between atoms: C9_15  and  C10_16 
REMARK    9  A    between atoms: C10_16  and  N3_17 
ROOT
HETATM    1  C7  UNL     1      83.546  20.217   0.852  1.00  0.00     0.120 C 
ENDROOT
BRANCH   1   2
HETATM    2  C6  UNL     1      82.217  19.600   1.016  1.00  0.00     0.024 C 
BRANCH   2   3
HETATM    3  C5  UNL     1      81.210  19.777  -0.063  1.00  0.00    -0.007 A 
HETATM    4  C3  UNL     1      80.391  18.532  -0.336  1.00  0.00     0.016 A 
HETATM    5  C4  UNL     1      79.758  19.814   0.064  1.00  0.00     0.011 A 
BRANCH   4   6
HETATM    6  C2  UNL     1      80.153  18.075  -1.738  1.00  0.00     0.236 C 
BRANCH   6   7
HETATM    7  N1  UNL     1      80.323  16.620  -1.777  1.00  0.00    -0.079 N 
HETATM    8  C1  UNL     1      80.562  16.134  -0.420  1.00  0.00     0.267 C 
ATOM      9  H12 UNL     1      81.054  16.332  -2.428  1.00  0.00     0.276 HD
ATOM     10  H11 UNL     1      79.539  16.148  -2.227  1.00  0.00     0.276 HD
ENDBRANCH   6   7
ENDBRANCH   4   6
ENDBRANCH   2   3
ENDBRANCH   1   2
BRANCH   1  11
HETATM   11  N2  UNL     1      83.876  21.146   1.876  1.00  0.00    -0.384 N 
ATOM     12  H2  UNL     1      84.606  20.899   2.545  1.00  0.00     0.160 HD
BRANCH  11  13
HETATM   13  C8  UNL     1      83.232  22.398   2.005  1.00  0.00     0.074 C 
HETATM   14  S1  UNL     1      83.168  23.446   0.723  1.00  0.00    -0.066 SA
BRANCH  13  15
HETATM   15  C9  UNL     1      82.619  22.785   3.293  1.00  0.00     0.088 C 
BRANCH  15  16
HETATM   16  C10 UNL     1      81.120  22.395   3.157  1.00  0.00     0.122 C 
BRANCH  16  17
HETATM   17  N3  UNL     1      80.345  23.580   3.174  1.00  0.00    -0.420 N 
HETATM   18  C11 UNL     1      80.968  24.746   3.680  1.00  0.00     0.142 C 
HETATM   19  C12 UNL     1      79.540  23.753   2.004  1.00  0.00     0.142 C 
ENDBRANCH  16  17
ENDBRANCH  15  16
ENDBRANCH  13  15
ENDBRANCH  11  13
ENDBRANCH   1  11
TORSDOF 9
ENDMDL
