MODEL 1
REMARK VINA RESULT: -6.122553760      0.000      0.000
REMARK  8 active torsions:
REMARK  status: ('A' for Active; 'I' for Inactive)
REMARK    1  A    between atoms: C3_3  and  N1_4 
REMARK    2  A    between atoms: N1_4  and  C4_5 
REMARK    3  A    between atoms: N1_4  and  C7_8 
REMARK    4  A    between atoms: C7_8  and  C8_9 
REMARK    5  A    between atoms: C8_9  and  C9_10 
REMARK    6  A    between atoms: C9_10  and  N2_11 
REMARK    7  A    between atoms: N2_11  and  C10_13 
REMARK    8  A    between atoms: C10_13  and  C11_14 
ROOT
HETATM    1  C1  UNL     1      83.382  21.280   1.475  1.00  0.00     0.018 C 
HETATM    2  C2  UNL     1      83.021  22.102   2.297  1.00  0.00    -0.072 C 
HETATM    3  C3  UNL     1      82.637  23.074   3.300  1.00  0.00     0.155 C 
ENDROOT
BRANCH   3   4
HETATM    4  N1  UNL     1      81.632  23.961   2.985  1.00  0.00    -0.352 N 
BRANCH   4   5
HETATM    5  C4  UNL     1      81.636  25.122   3.831  1.00  0.00     0.220 C 
HETATM    6  C5  UNL     1      82.002  26.350   3.070  1.00  0.00    -0.097 C 
HETATM    7  C6  UNL     1      82.295  27.356   2.476  1.00  0.00     0.014 C 
ENDBRANCH   4   5
BRANCH   4   8
HETATM    8  C7  UNL     1      80.875  24.001   1.837  1.00  0.00     0.066 C 
BRANCH   8   9
HETATM    9  C8  UNL     1      79.461  23.483   1.871  1.00  0.00     0.064 C 
BRANCH   9  10
HETATM   10  C9  UNL     1      79.427  21.941   1.951  1.00  0.00     0.118 C 
BRANCH  10  11
HETATM   11  N2  UNL     1      79.096  21.392   0.685  1.00  0.00    -0.420 N 
ATOM     12  H2  UNL     1      78.895  22.005  -0.106  1.00  0.00     0.153 HD
BRANCH  11  13
HETATM   13  C10 UNL     1      79.047  20.001   0.530  1.00  0.00     0.120 C 
BRANCH  13  14
HETATM   14  C11 UNL     1      80.265  19.455  -0.236  1.00  0.00     0.020 C 
HETATM   15  C12 UNL     1      81.051  18.520   0.634  1.00  0.00     0.009 C 
HETATM   16  C13 UNL     1      81.109  17.111   0.141  1.00  0.00     0.020 C 
HETATM   17  C14 UNL     1      79.764  16.625  -0.342  1.00  0.00     0.113 C 
HETATM   18  N3  UNL     1      79.092  17.536  -1.214  1.00  0.00    -0.421 N 
HETATM   19  C15 UNL     1      79.771  18.763  -1.483  1.00  0.00     0.120 C 
ATOM     20  H3  UNL     1      78.180  17.323  -1.619  1.00  0.00     0.153 HD
ENDBRANCH  13  14
ENDBRANCH  11  13
ENDBRANCH  10  11
ENDBRANCH   9  10
ENDBRANCH   8   9
ENDBRANCH   4   8
ENDBRANCH   3   4
TORSDOF 8
ENDMDL
MODEL 2
REMARK VINA RESULT: -6.028658623      1.076      1.266
REMARK  8 active torsions:
REMARK  status: ('A' for Active; 'I' for Inactive)
REMARK    1  A    between atoms: C3_3  and  N1_4 
REMARK    2  A    between atoms: N1_4  and  C4_5 
REMARK    3  A    between atoms: N1_4  and  C7_8 
REMARK    4  A    between atoms: C7_8  and  C8_9 
REMARK    5  A    between atoms: C8_9  and  C9_10 
REMARK    6  A    between atoms: C9_10  and  N2_11 
REMARK    7  A    between atoms: N2_11  and  C10_13 
REMARK    8  A    between atoms: C10_13  and  C11_14 
ROOT
HETATM    1  C1  UNL     1      83.420  21.650  -0.470  1.00  0.00     0.018 C 
HETATM    2  C2  UNL     1      83.219  22.646   0.200  1.00  0.00    -0.072 C 
HETATM    3  C3  UNL     1      83.003  23.860   0.960  1.00  0.00     0.155 C 
ENDROOT
BRANCH   3   4
HETATM    4  N1  UNL     1      82.025  23.846   1.930  1.00  0.00    -0.352 N 
BRANCH   4   5
HETATM    5  C4  UNL     1      81.129  24.964   1.825  1.00  0.00     0.220 C 
HETATM    6  C5  UNL     1      81.765  26.220   2.314  1.00  0.00    -0.097 C 
HETATM    7  C6  UNL     1      82.258  27.248   2.703  1.00  0.00     0.014 C 
ENDBRANCH   4   5
BRANCH   4   8
HETATM    8  C7  UNL     1      81.654  22.794   2.735  1.00  0.00     0.066 C 
BRANCH   8   9
HETATM    9  C8  UNL     1      80.191  22.550   2.998  1.00  0.00     0.064 C 
BRANCH   9  10
HETATM   10  C9  UNL     1      79.739  21.183   2.440  1.00  0.00     0.118 C 
BRANCH  10  11
HETATM   11  N2  UNL     1      79.766  21.200   1.022  1.00  0.00    -0.420 N 
ATOM     12  H2  UNL     1      80.113  22.019   0.523  1.00  0.00     0.153 HD
BRANCH  11  13
HETATM   13  C10 UNL     1      79.313  20.080   0.312  1.00  0.00     0.120 C 
BRANCH  13  14
HETATM   14  C11 UNL     1      80.416  19.453  -0.558  1.00  0.00     0.020 C 
HETATM   15  C12 UNL     1      81.297  18.570   0.275  1.00  0.00     0.009 C 
HETATM   16  C13 UNL     1      81.276  17.128  -0.110  1.00  0.00     0.020 C 
HETATM   17  C14 UNL     1      79.875  16.634  -0.381  1.00  0.00     0.113 C 
HETATM   18  N3  UNL     1      79.107  17.491  -1.228  1.00  0.00    -0.421 N 
HETATM   19  C15 UNL     1      79.759  18.679  -1.675  1.00  0.00     0.120 C 
ATOM     20  H3  UNL     1      78.148  17.267  -1.497  1.00  0.00     0.153 HD
ENDBRANCH  13  14
ENDBRANCH  11  13
ENDBRANCH  10  11
ENDBRANCH   9  10
ENDBRANCH   8   9
ENDBRANCH   4   8
ENDBRANCH   3   4
TORSDOF 8
ENDMDL
MODEL 3
REMARK VINA RESULT: -5.913617658      1.218      2.491
REMARK  8 active torsions:
REMARK  status: ('A' for Active; 'I' for Inactive)
REMARK    1  A    between atoms: C3_3  and  N1_4 
REMARK    2  A    between atoms: N1_4  and  C4_5 
REMARK    3  A    between atoms: N1_4  and  C7_8 
REMARK    4  A    between atoms: C7_8  and  C8_9 
REMARK    5  A    between atoms: C8_9  and  C9_10 
REMARK    6  A    between atoms: C9_10  and  N2_11 
REMARK    7  A    between atoms: N2_11  and  C10_13 
REMARK    8  A    between atoms: C10_13  and  C11_14 
ROOT
HETATM    1  C1  UNL     1      83.603  27.713   1.448  1.00  0.00     0.018 C 
HETATM    2  C2  UNL     1      82.686  27.240   2.092  1.00  0.00    -0.072 C 
HETATM    3  C3  UNL     1      81.571  26.723   2.859  1.00  0.00     0.155 C 
ENDROOT
BRANCH   3   4
HETATM    4  N1  UNL     1      81.367  25.360   2.858  1.00  0.00    -0.352 N 
BRANCH   4   5
HETATM    5  C4  UNL     1      81.324  24.808   4.183  1.00  0.00     0.220 C 
HETATM    6  C5  UNL     1      82.620  24.996   4.894  1.00  0.00    -0.097 C 
HETATM    7  C6  UNL     1      83.659  25.137   5.488  1.00  0.00     0.014 C 
ENDBRANCH   4   5
BRANCH   4   8
HETATM    8  C7  UNL     1      80.923  24.578   1.817  1.00  0.00     0.066 C 
BRANCH   8   9
HETATM    9  C8  UNL     1      80.926  23.079   1.971  1.00  0.00     0.064 C 
BRANCH   9  10
HETATM   10  C9  UNL     1      79.524  22.483   1.721  1.00  0.00     0.118 C 
BRANCH  10  11
HETATM   11  N2  UNL     1      79.583  21.066   1.744  1.00  0.00    -0.420 N 
ATOM     12  H2  UNL     1      79.889  20.577   2.585  1.00  0.00     0.153 HD
BRANCH  11  13
HETATM   13  C10 UNL     1      79.216  20.344   0.600  1.00  0.00     0.120 C 
BRANCH  13  14
HETATM   14  C11 UNL     1      80.427  19.700  -0.097  1.00  0.00     0.020 C 
HETATM   15  C12 UNL     1      81.032  18.644   0.778  1.00  0.00     0.009 C 
HETATM   16  C13 UNL     1      80.978  17.262   0.216  1.00  0.00     0.020 C 
HETATM   17  C14 UNL     1      79.633  16.952  -0.396  1.00  0.00     0.113 C 
HETATM   18  N3  UNL     1      79.138  17.972  -1.266  1.00  0.00    -0.421 N 
HETATM   19  C15 UNL     1      79.966  19.126  -1.415  1.00  0.00     0.120 C 
ATOM     20  H3  UNL     1      78.245  17.882  -1.752  1.00  0.00     0.153 HD
ENDBRANCH  13  14
ENDBRANCH  11  13
ENDBRANCH  10  11
ENDBRANCH   9  10
ENDBRANCH   8   9
ENDBRANCH   4   8
ENDBRANCH   3   4
TORSDOF 8
ENDMDL
MODEL 4
REMARK VINA RESULT: -5.850254813      1.244      1.537
REMARK  8 active torsions:
REMARK  status: ('A' for Active; 'I' for Inactive)
REMARK    1  A    between atoms: C3_3  and  N1_4 
REMARK    2  A    between atoms: N1_4  and  C4_5 
REMARK    3  A    between atoms: N1_4  and  C7_8 
REMARK    4  A    between atoms: C7_8  and  C8_9 
REMARK    5  A    between atoms: C8_9  and  C9_10 
REMARK    6  A    between atoms: C9_10  and  N2_11 
REMARK    7  A    between atoms: N2_11  and  C10_13 
REMARK    8  A    between atoms: C10_13  and  C11_14 
ROOT
HETATM    1  C1  UNL     1      83.377  21.683  -0.384  1.00  0.00     0.018 C 
HETATM    2  C2  UNL     1      83.133  22.666   0.291  1.00  0.00    -0.072 C 
HETATM    3  C3  UNL     1      82.854  23.867   1.052  1.00  0.00     0.155 C 
ENDROOT
BRANCH   3   4
HETATM    4  N1  UNL     1      82.092  23.741   2.194  1.00  0.00    -0.352 N 
BRANCH   4   5
HETATM    5  C4  UNL     1      82.838  23.204   3.297  1.00  0.00     0.220 C 
HETATM    6  C5  UNL     1      83.026  24.217   4.373  1.00  0.00    -0.097 C 
HETATM    7  C6  UNL     1      83.191  25.019   5.257  1.00  0.00     0.014 C 
ENDBRANCH   4   5
BRANCH   4   8
HETATM    8  C7  UNL     1      80.872  24.320   2.458  1.00  0.00     0.066 C 
BRANCH   8   9
HETATM    9  C8  UNL     1      79.626  23.705   1.878  1.00  0.00     0.064 C 
BRANCH   9  10
HETATM   10  C9  UNL     1      79.654  22.165   1.987  1.00  0.00     0.118 C 
BRANCH  10  11
HETATM   11  N2  UNL     1      79.090  21.581   0.824  1.00  0.00    -0.420 N 
ATOM     12  H2  UNL     1      78.681  22.170   0.098  1.00  0.00     0.153 HD
BRANCH  11  13
HETATM   13  C10 UNL     1      79.100  20.187   0.680  1.00  0.00     0.120 C 
BRANCH  13  14
HETATM   14  C11 UNL     1      80.297  19.694  -0.151  1.00  0.00     0.020 C 
HETATM   15  C12 UNL     1      81.106  18.707   0.637  1.00  0.00     0.009 C 
HETATM   16  C13 UNL     1      81.151  17.333   0.054  1.00  0.00     0.020 C 
HETATM   17  C14 UNL     1      79.795  16.875  -0.425  1.00  0.00     0.113 C 
HETATM   18  N3  UNL     1      79.099  17.839  -1.218  1.00  0.00    -0.421 N 
HETATM   19  C15 UNL     1      79.771  19.082  -1.426  1.00  0.00     0.120 C 
ATOM     20  H3  UNL     1      78.177  17.651  -1.613  1.00  0.00     0.153 HD
ENDBRANCH  13  14
ENDBRANCH  11  13
ENDBRANCH  10  11
ENDBRANCH   9  10
ENDBRANCH   8   9
ENDBRANCH   4   8
ENDBRANCH   3   4
TORSDOF 8
ENDMDL
MODEL 5
REMARK VINA RESULT: -5.840195264      0.609      2.679
REMARK  8 active torsions:
REMARK  status: ('A' for Active; 'I' for Inactive)
REMARK    1  A    between atoms: C3_3  and  N1_4 
REMARK    2  A    between atoms: N1_4  and  C4_5 
REMARK    3  A    between atoms: N1_4  and  C7_8 
REMARK    4  A    between atoms: C7_8  and  C8_9 
REMARK    5  A    between atoms: C8_9  and  C9_10 
REMARK    6  A    between atoms: C9_10  and  N2_11 
REMARK    7  A    between atoms: N2_11  and  C10_13 
REMARK    8  A    between atoms: C10_13  and  C11_14 
ROOT
HETATM    1  C1  UNL     1      82.230  27.243   2.395  1.00  0.00     0.018 C 
HETATM    2  C2  UNL     1      82.514  26.202   2.958  1.00  0.00    -0.072 C 
HETATM    3  C3  UNL     1      82.881  24.990   3.662  1.00  0.00     0.155 C 
ENDROOT
BRANCH   3   4
HETATM    4  N1  UNL     1      82.084  23.880   3.489  1.00  0.00    -0.352 N 
BRANCH   4   5
HETATM    5  C4  UNL     1      82.781  22.654   3.764  1.00  0.00     0.220 C 
HETATM    6  C5  UNL     1      83.236  21.992   2.510  1.00  0.00    -0.097 C 
HETATM    7  C6  UNL     1      83.615  21.438   1.509  1.00  0.00     0.014 C 
ENDBRANCH   4   5
BRANCH   4   8
HETATM    8  C7  UNL     1      80.713  23.836   3.390  1.00  0.00     0.066 C 
BRANCH   8   9
HETATM    9  C8  UNL     1      80.083  23.433   2.082  1.00  0.00     0.064 C 
BRANCH   9  10
HETATM   10  C9  UNL     1      79.596  21.969   2.119  1.00  0.00     0.118 C 
BRANCH  10  11
HETATM   11  N2  UNL     1      79.063  21.598   0.857  1.00  0.00    -0.420 N 
ATOM     12  H2  UNL     1      78.743  22.313   0.203  1.00  0.00     0.153 HD
BRANCH  11  13
HETATM   13  C10 UNL     1      78.981  20.242   0.517  1.00  0.00     0.120 C 
BRANCH  13  14
HETATM   14  C11 UNL     1      80.285  19.715  -0.105  1.00  0.00     0.020 C 
HETATM   15  C12 UNL     1      80.940  18.729   0.816  1.00  0.00     0.009 C 
HETATM   16  C13 UNL     1      81.053  17.345   0.269  1.00  0.00     0.020 C 
HETATM   17  C14 UNL     1      79.781  16.900  -0.412  1.00  0.00     0.113 C 
HETATM   18  N3  UNL     1      79.238  17.860  -1.321  1.00  0.00    -0.421 N 
HETATM   19  C15 UNL     1      79.957  19.088  -1.439  1.00  0.00     0.120 C 
ATOM     20  H3  UNL     1      78.387  17.679  -1.854  1.00  0.00     0.153 HD
ENDBRANCH  13  14
ENDBRANCH  11  13
ENDBRANCH  10  11
ENDBRANCH   9  10
ENDBRANCH   8   9
ENDBRANCH   4   8
ENDBRANCH   3   4
TORSDOF 8
ENDMDL
