MODEL 1
REMARK VINA RESULT: -5.313521813      0.000      0.000
REMARK  10 active torsions:
REMARK  status: ('A' for Active; 'I' for Inactive)
REMARK    1  A    between atoms: O1_1  and  C1_3 
REMARK    2  A    between atoms: C1_3  and  C2_4 
REMARK    3  A    between atoms: C2_4  and  O2_5 
REMARK    4  A    between atoms: O2_5  and  C3_6 
REMARK    5  A    between atoms: C3_6  and  C4_7 
REMARK    6  A    between atoms: C5_8  and  C6_9 
REMARK    7  A    between atoms: C6_9  and  N1_10 
REMARK    8  A    between atoms: N1_10  and  C7_11 
REMARK    9  A    between atoms: C7_11  and  C8_12 
REMARK   10  A    between atoms: C8_12  and  O3_13 
ROOT
HETATM    1  N1  UNL     1      80.803  19.312   0.503  1.00  0.00    -0.062 N 
HETATM    2  C9  UNL     1      80.831  18.032   1.091  1.00  0.00     0.238 C 
HETATM    3  C10 UNL     1      80.938  16.832   0.230  1.00  0.00     0.028 C 
HETATM    4  C11 UNL     1      80.309  16.904  -1.120  1.00  0.00     0.003 C 
HETATM    5  C12 UNL     1      80.189  18.294  -1.673  1.00  0.00     0.028 C 
HETATM    6  C13 UNL     1      81.033  19.298  -0.948  1.00  0.00     0.238 C 
ENDROOT
BRANCH   1   7
HETATM    7  C6  UNL     1      81.998  20.032   1.028  1.00  0.00     0.265 C 
BRANCH   7   8
HETATM    8  C5  UNL     1      82.622  20.941   0.104  1.00  0.00    -0.001 C 
HETATM    9  C4  UNL     1      82.858  22.200   0.348  1.00  0.00    -0.003 C 
BRANCH   9  10
HETATM   10  C3  UNL     1      82.525  22.901   1.603  1.00  0.00     0.194 C 
BRANCH  10  11
HETATM   11  O2  UNL     1      81.295  23.565   1.459  1.00  0.00    -0.385 OA
BRANCH  11  12
HETATM   12  C2  UNL     1      81.200  24.628   2.317  1.00  0.00     0.194 C 
BRANCH  12  13
HETATM   13  C1  UNL     1      81.343  24.310   3.770  1.00  0.00     0.190 C 
BRANCH  13  14
HETATM   14  O1  UNL     1      80.142  23.651   4.142  1.00  0.00    -0.399 OA
ATOM     15  H1  UNL     1      80.390  23.014   4.801  1.00  0.00     0.209 HD
ENDBRANCH  13  14
ENDBRANCH  12  13
ENDBRANCH  11  12
ENDBRANCH  10  11
ENDBRANCH   9  10
ENDBRANCH   7   8
ENDBRANCH   1   7
BRANCH   1  16
HETATM   16  C7  UNL     1      79.723  20.181   0.824  1.00  0.00     0.263 C 
BRANCH  16  17
HETATM   17  C8  UNL     1      79.539  20.680   2.190  1.00  0.00     0.192 C 
BRANCH  17  18
HETATM   18  O3  UNL     1      78.981  21.952   2.275  1.00  0.00    -0.399 OA
ATOM     19  H3  UNL     1      78.870  22.279   3.160  1.00  0.00     0.209 HD
ENDBRANCH  17  18
ENDBRANCH  16  17
ENDBRANCH   1  16
TORSDOF 10
ENDMDL
MODEL 2
REMARK VINA RESULT: -5.285404419      2.289      5.831
REMARK  10 active torsions:
REMARK  status: ('A' for Active; 'I' for Inactive)
REMARK    1  A    between atoms: O1_1  and  C1_3 
REMARK    2  A    between atoms: C1_3  and  C2_4 
REMARK    3  A    between atoms: C2_4  and  O2_5 
REMARK    4  A    between atoms: O2_5  and  C3_6 
REMARK    5  A    between atoms: C3_6  and  C4_7 
REMARK    6  A    between atoms: C5_8  and  C6_9 
REMARK    7  A    between atoms: C6_9  and  N1_10 
REMARK    8  A    between atoms: N1_10  and  C7_11 
REMARK    9  A    between atoms: C7_11  and  C8_12 
REMARK   10  A    between atoms: C8_12  and  O3_13 
ROOT
HETATM    1  N1  UNL     1      81.882  22.873   2.441  1.00  0.00    -0.062 N 
HETATM    2  C9  UNL     1      82.174  23.739   1.369  1.00  0.00     0.238 C 
HETATM    3  C10 UNL     1      82.821  25.045   1.638  1.00  0.00     0.028 C 
HETATM    4  C11 UNL     1      82.499  25.710   2.933  1.00  0.00     0.003 C 
HETATM    5  C12 UNL     1      82.081  24.769   4.025  1.00  0.00     0.028 C 
HETATM    6  C13 UNL     1      82.405  23.336   3.732  1.00  0.00     0.238 C 
ENDROOT
BRANCH   1   7
HETATM    7  C6  UNL     1      82.661  21.627   2.186  1.00  0.00     0.265 C 
BRANCH   7   8
HETATM    8  C5  UNL     1      82.761  21.238   0.805  1.00  0.00    -0.001 C 
HETATM    9  C4  UNL     1      82.244  20.151   0.302  1.00  0.00    -0.003 C 
BRANCH   9  10
HETATM   10  C3  UNL     1      81.477  19.145   1.060  1.00  0.00     0.194 C 
BRANCH  10  11
HETATM   11  O2  UNL     1      80.101  19.358   0.869  1.00  0.00    -0.385 OA
BRANCH  11  12
HETATM   12  C2  UNL     1      79.749  19.192  -0.444  1.00  0.00     0.194 C 
BRANCH  12  13
HETATM   13  C1  UNL     1      79.646  17.777  -0.918  1.00  0.00     0.190 C 
BRANCH  13  14
HETATM   14  O1  UNL     1      78.326  17.359  -0.603  1.00  0.00    -0.399 OA
ATOM     15  H1  UNL     1      78.419  16.693   0.067  1.00  0.00     0.209 HD
ENDBRANCH  13  14
ENDBRANCH  12  13
ENDBRANCH  11  12
ENDBRANCH  10  11
ENDBRANCH   9  10
ENDBRANCH   7   8
ENDBRANCH   1   7
BRANCH   1  16
HETATM   16  C7  UNL     1      80.546  22.404   2.588  1.00  0.00     0.263 C 
BRANCH  16  17
HETATM   17  C8  UNL     1      79.436  23.066   1.896  1.00  0.00     0.192 C 
BRANCH  17  18
HETATM   18  O3  UNL     1      78.858  24.119   2.599  1.00  0.00    -0.399 OA
ATOM     19  H3  UNL     1      78.050  24.451   2.224  1.00  0.00     0.209 HD
ENDBRANCH  17  18
ENDBRANCH  16  17
ENDBRANCH   1  16
TORSDOF 10
ENDMDL
MODEL 3
REMARK VINA RESULT: -5.261572575      2.423      5.684
REMARK  10 active torsions:
REMARK  status: ('A' for Active; 'I' for Inactive)
REMARK    1  A    between atoms: O1_1  and  C1_3 
REMARK    2  A    between atoms: C1_3  and  C2_4 
REMARK    3  A    between atoms: C2_4  and  O2_5 
REMARK    4  A    between atoms: O2_5  and  C3_6 
REMARK    5  A    between atoms: C3_6  and  C4_7 
REMARK    6  A    between atoms: C5_8  and  C6_9 
REMARK    7  A    between atoms: C6_9  and  N1_10 
REMARK    8  A    between atoms: N1_10  and  C7_11 
REMARK    9  A    between atoms: C7_11  and  C8_12 
REMARK   10  A    between atoms: C8_12  and  O3_13 
ROOT
HETATM    1  N1  UNL     1      81.569  22.019   2.488  1.00  0.00    -0.062 N 
HETATM    2  C9  UNL     1      81.883  22.568   1.230  1.00  0.00     0.238 C 
HETATM    3  C10 UNL     1      83.300  22.796   0.862  1.00  0.00     0.028 C 
HETATM    4  C11 UNL     1      84.243  23.137   1.965  1.00  0.00     0.003 C 
HETATM    5  C12 UNL     1      83.824  22.634   3.315  1.00  0.00     0.028 C 
HETATM    6  C13 UNL     1      82.746  21.594   3.255  1.00  0.00     0.238 C 
ENDROOT
BRANCH   1   7
HETATM    7  C6  UNL     1      80.863  20.735   2.211  1.00  0.00     0.265 C 
BRANCH   7   8
HETATM    8  C5  UNL     1      79.501  20.867   1.767  1.00  0.00    -0.001 C 
HETATM    9  C4  UNL     1      79.032  20.366   0.658  1.00  0.00    -0.003 C 
BRANCH   9  10
HETATM   10  C3  UNL     1      79.813  19.586  -0.321  1.00  0.00     0.194 C 
BRANCH  10  11
HETATM   11  O2  UNL     1      79.489  18.223  -0.205  1.00  0.00    -0.385 OA
BRANCH  11  12
HETATM   12  C2  UNL     1      80.616  17.446  -0.157  1.00  0.00     0.194 C 
BRANCH  12  13
HETATM   13  C1  UNL     1      80.412  16.024   0.256  1.00  0.00     0.190 C 
BRANCH  13  14
HETATM   14  O1  UNL     1      80.727  15.975   1.640  1.00  0.00    -0.399 OA
ATOM     15  H1  UNL     1      81.277  15.209   1.752  1.00  0.00     0.209 HD
ENDBRANCH  13  14
ENDBRANCH  12  13
ENDBRANCH  11  12
ENDBRANCH  10  11
ENDBRANCH   9  10
ENDBRANCH   7   8
ENDBRANCH   1   7
BRANCH   1  16
HETATM   16  C7  UNL     1      80.660  22.723   3.327  1.00  0.00     0.263 C 
BRANCH  16  17
HETATM   17  C8  UNL     1      80.228  24.084   2.994  1.00  0.00     0.192 C 
BRANCH  17  18
HETATM   18  O3  UNL     1      78.881  24.202   2.666  1.00  0.00    -0.399 OA
ATOM     19  H3  UNL     1      78.550  23.521   2.092  1.00  0.00     0.209 HD
ENDBRANCH  17  18
ENDBRANCH  16  17
ENDBRANCH   1  16
TORSDOF 10
ENDMDL
MODEL 4
REMARK VINA RESULT: -5.234483866      2.631      6.417
REMARK  10 active torsions:
REMARK  status: ('A' for Active; 'I' for Inactive)
REMARK    1  A    between atoms: O1_1  and  C1_3 
REMARK    2  A    between atoms: C1_3  and  C2_4 
REMARK    3  A    between atoms: C2_4  and  O2_5 
REMARK    4  A    between atoms: O2_5  and  C3_6 
REMARK    5  A    between atoms: C3_6  and  C4_7 
REMARK    6  A    between atoms: C5_8  and  C6_9 
REMARK    7  A    between atoms: C6_9  and  N1_10 
REMARK    8  A    between atoms: N1_10  and  C7_11 
REMARK    9  A    between atoms: C7_11  and  C8_12 
REMARK   10  A    between atoms: C8_12  and  O3_13 
ROOT
HETATM    1  N1  UNL     1      82.000  24.181   3.034  1.00  0.00    -0.062 N 
HETATM    2  C9  UNL     1      81.641  25.418   3.602  1.00  0.00     0.238 C 
HETATM    3  C10 UNL     1      81.673  26.643   2.769  1.00  0.00     0.028 C 
HETATM    4  C11 UNL     1      82.700  26.706   1.690  1.00  0.00     0.003 C 
HETATM    5  C12 UNL     1      83.147  25.366   1.183  1.00  0.00     0.028 C 
HETATM    6  C13 UNL     1      82.240  24.244   1.587  1.00  0.00     0.238 C 
ENDROOT
BRANCH   1   7
HETATM    7  C6  UNL     1      80.793  23.313   3.141  1.00  0.00     0.265 C 
BRANCH   7   8
HETATM    8  C5  UNL     1      79.892  23.375   2.021  1.00  0.00    -0.001 C 
HETATM    9  C4  UNL     1      79.282  22.345   1.503  1.00  0.00    -0.003 C 
BRANCH   9  10
HETATM   10  C3  UNL     1      79.414  20.953   1.974  1.00  0.00     0.194 C 
BRANCH  10  11
HETATM   11  O2  UNL     1      78.954  20.073   0.979  1.00  0.00    -0.385 OA
BRANCH  11  12
HETATM   12  C2  UNL     1      79.951  19.756   0.095  1.00  0.00     0.194 C 
BRANCH  12  13
HETATM   13  C1  UNL     1      79.616  18.711  -0.921  1.00  0.00     0.190 C 
BRANCH  13  14
HETATM   14  O1  UNL     1      78.437  18.077  -0.449  1.00  0.00    -0.399 OA
ATOM     15  H1  UNL     1      78.680  17.653   0.365  1.00  0.00     0.209 HD
ENDBRANCH  13  14
ENDBRANCH  12  13
ENDBRANCH  11  12
ENDBRANCH  10  11
ENDBRANCH   9  10
ENDBRANCH   7   8
ENDBRANCH   1   7
BRANCH   1  16
HETATM   16  C7  UNL     1      83.017  23.413   3.670  1.00  0.00     0.263 C 
BRANCH  16  17
HETATM   17  C8  UNL     1      83.023  21.950   3.579  1.00  0.00     0.192 C 
BRANCH  17  18
HETATM   18  O3  UNL     1      83.769  21.309   4.564  1.00  0.00    -0.399 OA
ATOM     19  H3  UNL     1      83.610  21.621   5.447  1.00  0.00     0.209 HD
ENDBRANCH  17  18
ENDBRANCH  16  17
ENDBRANCH   1  16
TORSDOF 10
ENDMDL
MODEL 5
REMARK VINA RESULT: -5.199775733      2.640      6.013
REMARK  10 active torsions:
REMARK  status: ('A' for Active; 'I' for Inactive)
REMARK    1  A    between atoms: O1_1  and  C1_3 
REMARK    2  A    between atoms: C1_3  and  C2_4 
REMARK    3  A    between atoms: C2_4  and  O2_5 
REMARK    4  A    between atoms: O2_5  and  C3_6 
REMARK    5  A    between atoms: C3_6  and  C4_7 
REMARK    6  A    between atoms: C5_8  and  C6_9 
REMARK    7  A    between atoms: C6_9  and  N1_10 
REMARK    8  A    between atoms: N1_10  and  C7_11 
REMARK    9  A    between atoms: C7_11  and  C8_12 
REMARK   10  A    between atoms: C8_12  and  O3_13 
ROOT
HETATM    1  N1  UNL     1      81.811  22.131   2.457  1.00  0.00    -0.062 N 
HETATM    2  C9  UNL     1      80.908  22.740   3.350  1.00  0.00     0.238 C 
HETATM    3  C10 UNL     1      80.378  24.090   3.049  1.00  0.00     0.028 C 
HETATM    4  C11 UNL     1      81.271  25.023   2.304  1.00  0.00     0.003 C 
HETATM    5  C12 UNL     1      82.299  24.343   1.447  1.00  0.00     0.028 C 
HETATM    6  C13 UNL     1      82.014  22.889   1.216  1.00  0.00     0.238 C 
ENDROOT
BRANCH   1   7
HETATM    7  C6  UNL     1      81.145  20.883   1.987  1.00  0.00     0.265 C 
BRANCH   7   8
HETATM    8  C5  UNL     1      79.736  21.000   1.725  1.00  0.00    -0.001 C 
HETATM    9  C4  UNL     1      79.122  20.455   0.711  1.00  0.00    -0.003 C 
BRANCH   9  10
HETATM   10  C3  UNL     1      79.767  19.635  -0.332  1.00  0.00     0.194 C 
BRANCH  10  11
HETATM   11  O2  UNL     1      79.473  18.278  -0.113  1.00  0.00    -0.385 OA
BRANCH  11  12
HETATM   12  C2  UNL     1      80.604  17.508  -0.166  1.00  0.00     0.194 C 
BRANCH  12  13
HETATM   13  C1  UNL     1      80.440  16.077   0.234  1.00  0.00     0.190 C 
BRANCH  13  14
HETATM   14  O1  UNL     1      80.706  16.032   1.627  1.00  0.00    -0.399 OA
ATOM     15  H1  UNL     1      81.210  15.239   1.769  1.00  0.00     0.209 HD
ENDBRANCH  13  14
ENDBRANCH  12  13
ENDBRANCH  11  12
ENDBRANCH  10  11
ENDBRANCH   9  10
ENDBRANCH   7   8
ENDBRANCH   1   7
BRANCH   1  16
HETATM   16  C7  UNL     1      83.059  21.671   2.964  1.00  0.00     0.263 C 
BRANCH  16  17
HETATM   17  C8  UNL     1      83.645  22.262   4.171  1.00  0.00     0.192 C 
BRANCH  17  18
HETATM   18  O3  UNL     1      84.196  21.343   5.059  1.00  0.00    -0.399 OA
ATOM     19  H3  UNL     1      83.561  20.834   5.549  1.00  0.00     0.209 HD
ENDBRANCH  17  18
ENDBRANCH  16  17
ENDBRANCH   1  16
TORSDOF 10
ENDMDL
