MODEL 1
REMARK VINA RESULT: -5.393241147      0.000      0.000
REMARK  9 active torsions:
REMARK  status: ('A' for Active; 'I' for Inactive)
REMARK    1  A    between atoms: C2_2  and  C3_3 
REMARK    2  A    between atoms: C3_3  and  N1_4 
REMARK    3  A    between atoms: N1_4  and  C4_5 
REMARK    4  A    between atoms: N1_4  and  C7_10 
REMARK    5  A    between atoms: C4_5  and  C5_6 
REMARK    6  A    between atoms: C5_6  and  N2_7 
REMARK    7  A    between atoms: N2_7  and  C6_8 
REMARK    8  A    between atoms: C11_14  and  C12_15 
REMARK    9  A    between atoms: C12_15  and  N3_16 
ROOT
HETATM    1  C7  UNL     1      81.173  19.274   0.020  1.00  0.00     0.063 C 
HETATM    2  C8  UNL     1      79.967  19.421  -0.882  1.00  0.00     0.020 C 
HETATM    3  C9  UNL     1      80.182  18.482  -2.070  1.00  0.00     0.002 C 
HETATM    4  C10 UNL     1      80.452  17.104  -1.548  1.00  0.00     0.006 C 
HETATM    5  C11 UNL     1      80.135  16.986  -0.079  1.00  0.00     0.012 C 
HETATM    6  C13 UNL     1      80.960  17.944   0.753  1.00  0.00     0.026 C 
ENDROOT
BRANCH   1   7
HETATM    7  N1  UNL     1      81.384  20.392   0.872  1.00  0.00    -0.283 NA
BRANCH   7   8
HETATM    8  C3  UNL     1      82.855  20.408   1.149  1.00  0.00     0.121 C 
BRANCH   8   9
HETATM    9  C2  UNL     1      83.640  21.016   0.086  1.00  0.00    -0.022 C 
HETATM   10  C1  UNL     1      83.410  22.217  -0.401  1.00  0.00     0.008 C 
ENDBRANCH   8   9
ENDBRANCH   7   8
BRANCH   7  11
HETATM   11  C4  UNL     1      80.772  20.419   2.128  1.00  0.00     0.092 C 
BRANCH  11  12
HETATM   12  C5  UNL     1      79.410  21.068   2.301  1.00  0.00     0.197 C 
BRANCH  12  13
HETATM   13  N2  UNL     1      79.388  22.415   2.123  1.00  0.00    -0.390 NA
BRANCH  13  14
HETATM   14  C6  UNL     1      79.366  23.744   1.947  1.00  0.00     0.440 C 
HETATM   15  O1  UNL     1      80.304  24.597   1.726  1.00  0.00    -0.268 OA
ENDBRANCH  13  14
ENDBRANCH  12  13
ENDBRANCH  11  12
ENDBRANCH   7  11
ENDBRANCH   1   7
BRANCH   5  16
HETATM   16  C12 UNL     1      80.542  15.576   0.340  1.00  0.00     0.234 C 
BRANCH  16  17
HETATM   17  N3  UNL     1      80.610  14.706  -0.827  1.00  0.00    -0.079 N 
ATOM     18  H33 UNL     1      81.094  15.150  -1.607  1.00  0.00     0.274 HD
ATOM     19  H32 UNL     1      81.248  13.923  -0.682  1.00  0.00     0.274 HD
ATOM     20  H31 UNL     1      79.675  14.392  -1.087  1.00  0.00     0.274 HD
ENDBRANCH  16  17
ENDBRANCH   5  16
TORSDOF 9
ENDMDL
MODEL 2
REMARK VINA RESULT: -5.380606837      2.889      3.385
REMARK  9 active torsions:
REMARK  status: ('A' for Active; 'I' for Inactive)
REMARK    1  A    between atoms: C2_2  and  C3_3 
REMARK    2  A    between atoms: C3_3  and  N1_4 
REMARK    3  A    between atoms: N1_4  and  C4_5 
REMARK    4  A    between atoms: N1_4  and  C7_10 
REMARK    5  A    between atoms: C4_5  and  C5_6 
REMARK    6  A    between atoms: C5_6  and  N2_7 
REMARK    7  A    between atoms: N2_7  and  C6_8 
REMARK    8  A    between atoms: C11_14  and  C12_15 
REMARK    9  A    between atoms: C12_15  and  N3_16 
ROOT
HETATM    1  C7  UNL     1      81.403  20.647   0.707  1.00  0.00     0.063 C 
HETATM    2  C8  UNL     1      80.063  20.452   1.381  1.00  0.00     0.020 C 
HETATM    3  C9  UNL     1      79.041  20.189   0.272  1.00  0.00     0.002 C 
HETATM    4  C10 UNL     1      79.531  19.050  -0.567  1.00  0.00     0.006 C 
HETATM    5  C11 UNL     1      80.679  18.322   0.084  1.00  0.00     0.012 C 
HETATM    6  C13 UNL     1      81.861  19.237   0.320  1.00  0.00     0.026 C 
ENDROOT
BRANCH   1   7
HETATM    7  N1  UNL     1      82.335  21.376   1.496  1.00  0.00    -0.283 NA
BRANCH   7   8
HETATM    8  C3  UNL     1      83.636  20.653   1.343  1.00  0.00     0.121 C 
BRANCH   8   9
HETATM    9  C2  UNL     1      84.662  21.437   0.675  1.00  0.00    -0.022 C 
HETATM   10  C1  UNL     1      85.711  20.915   0.076  1.00  0.00     0.008 C 
ENDBRANCH   8   9
ENDBRANCH   7   8
BRANCH   7  11
HETATM   11  C4  UNL     1      82.129  21.478   2.874  1.00  0.00     0.092 C 
BRANCH  11  12
HETATM   12  C5  UNL     1      82.750  22.624   3.657  1.00  0.00     0.197 C 
BRANCH  12  13
HETATM   13  N2  UNL     1      83.668  22.254   4.587  1.00  0.00    -0.390 NA
BRANCH  13  14
HETATM   14  C6  UNL     1      84.574  21.889   5.506  1.00  0.00     0.440 C 
HETATM   15  O1  UNL     1      84.867  20.746   6.017  1.00  0.00    -0.268 OA
ENDBRANCH  13  14
ENDBRANCH  12  13
ENDBRANCH  11  12
ENDBRANCH   7  11
ENDBRANCH   1   7
BRANCH   5  16
HETATM   16  C12 UNL     1      81.136  17.259  -0.911  1.00  0.00     0.234 C 
BRANCH  16  17
HETATM   17  N3  UNL     1      80.382  17.375  -2.153  1.00  0.00    -0.079 N 
ATOM     18  H33 UNL     1      79.792  16.559  -2.319  1.00  0.00     0.274 HD
ATOM     19  H32 UNL     1      79.648  18.080  -2.089  1.00  0.00     0.274 HD
ATOM     20  H31 UNL     1      81.015  17.553  -2.934  1.00  0.00     0.274 HD
ENDBRANCH  16  17
ENDBRANCH   5  16
TORSDOF 9
ENDMDL
MODEL 3
REMARK VINA RESULT: -5.378023337      2.815      5.962
REMARK  9 active torsions:
REMARK  status: ('A' for Active; 'I' for Inactive)
REMARK    1  A    between atoms: C2_2  and  C3_3 
REMARK    2  A    between atoms: C3_3  and  N1_4 
REMARK    3  A    between atoms: N1_4  and  C4_5 
REMARK    4  A    between atoms: N1_4  and  C7_10 
REMARK    5  A    between atoms: C4_5  and  C5_6 
REMARK    6  A    between atoms: C5_6  and  N2_7 
REMARK    7  A    between atoms: N2_7  and  C6_8 
REMARK    8  A    between atoms: C11_14  and  C12_15 
REMARK    9  A    between atoms: C12_15  and  N3_16 
ROOT
HETATM    1  C7  UNL     1      82.824  21.694   2.117  1.00  0.00     0.063 C 
HETATM    2  C8  UNL     1      83.039  21.939   3.595  1.00  0.00     0.020 C 
HETATM    3  C9  UNL     1      83.327  23.432   3.761  1.00  0.00     0.002 C 
HETATM    4  C10 UNL     1      82.220  24.208   3.117  1.00  0.00     0.006 C 
HETATM    5  C11 UNL     1      81.038  23.333   2.784  1.00  0.00     0.012 C 
HETATM    6  C13 UNL     1      81.415  22.222   1.828  1.00  0.00     0.026 C 
ENDROOT
BRANCH   1   7
HETATM    7  N1  UNL     1      83.042  20.344   1.728  1.00  0.00    -0.283 NA
BRANCH   7   8
HETATM    8  C3  UNL     1      84.422  20.316   1.149  1.00  0.00     0.121 C 
BRANCH   8   9
HETATM    9  C2  UNL     1      84.659  21.355   0.160  1.00  0.00    -0.022 C 
HETATM   10  C1  UNL     1      85.854  21.802  -0.163  1.00  0.00     0.008 C 
ENDBRANCH   8   9
ENDBRANCH   7   8
BRANCH   7  11
HETATM   11  C4  UNL     1      82.220  19.773   0.754  1.00  0.00     0.092 C 
BRANCH  11  12
HETATM   12  C5  UNL     1      81.305  18.614   1.109  1.00  0.00     0.197 C 
BRANCH  12  13
HETATM   13  N2  UNL     1      80.325  18.356   0.204  1.00  0.00    -0.390 NA
BRANCH  13  14
HETATM   14  C6  UNL     1      79.359  18.101  -0.690  1.00  0.00     0.440 C 
HETATM   15  O1  UNL     1      78.130  17.748  -0.549  1.00  0.00    -0.268 OA
ENDBRANCH  13  14
ENDBRANCH  12  13
ENDBRANCH  11  12
ENDBRANCH   7  11
ENDBRANCH   1   7
BRANCH   5  16
HETATM   16  C12 UNL     1      80.035  24.221   2.054  1.00  0.00     0.234 C 
BRANCH  16  17
HETATM   17  N3  UNL     1      80.709  25.388   1.496  1.00  0.00    -0.079 N 
ATOM     18  H33 UNL     1      81.528  25.129   0.947  1.00  0.00     0.274 HD
ATOM     19  H32 UNL     1      80.163  25.824   0.753  1.00  0.00     0.274 HD
ATOM     20  H31 UNL     1      80.940  26.049   2.238  1.00  0.00     0.274 HD
ENDBRANCH  16  17
ENDBRANCH   5  16
TORSDOF 9
ENDMDL
MODEL 4
REMARK VINA RESULT: -5.377609199      1.760      4.437
REMARK  9 active torsions:
REMARK  status: ('A' for Active; 'I' for Inactive)
REMARK    1  A    between atoms: C2_2  and  C3_3 
REMARK    2  A    between atoms: C3_3  and  N1_4 
REMARK    3  A    between atoms: N1_4  and  C4_5 
REMARK    4  A    between atoms: N1_4  and  C7_10 
REMARK    5  A    between atoms: C4_5  and  C5_6 
REMARK    6  A    between atoms: C5_6  and  N2_7 
REMARK    7  A    between atoms: N2_7  and  C6_8 
REMARK    8  A    between atoms: C11_14  and  C12_15 
REMARK    9  A    between atoms: C12_15  and  N3_16 
ROOT
HETATM    1  C7  UNL     1      82.923  20.805   1.245  1.00  0.00     0.063 C 
HETATM    2  C8  UNL     1      82.661  21.312  -0.157  1.00  0.00     0.020 C 
HETATM    3  C9  UNL     1      83.464  22.605  -0.318  1.00  0.00     0.002 C 
HETATM    4  C10 UNL     1      84.894  22.326   0.028  1.00  0.00     0.006 C 
HETATM    5  C11 UNL     1      85.173  20.848   0.125  1.00  0.00     0.012 C 
HETATM    6  C13 UNL     1      84.323  20.186   1.188  1.00  0.00     0.026 C 
ENDROOT
BRANCH   1   7
HETATM    7  N1  UNL     1      81.910  19.933   1.731  1.00  0.00    -0.283 NA
BRANCH   7   8
HETATM    8  C3  UNL     1      81.129  19.519   0.523  1.00  0.00     0.121 C 
BRANCH   8   9
HETATM    9  C2  UNL     1      81.060  18.078   0.340  1.00  0.00    -0.022 C 
HETATM   10  C1  UNL     1      80.800  17.496  -0.811  1.00  0.00     0.008 C 
ENDBRANCH   8   9
ENDBRANCH   7   8
BRANCH   7  11
HETATM   11  C4  UNL     1      80.962  20.423   2.633  1.00  0.00     0.092 C 
BRANCH  11  12
HETATM   12  C5  UNL     1      79.659  21.018   2.125  1.00  0.00     0.197 C 
BRANCH  12  13
HETATM   13  N2  UNL     1      79.615  22.376   2.108  1.00  0.00    -0.390 NA
BRANCH  13  14
HETATM   14  C6  UNL     1      79.571  23.716   2.091  1.00  0.00     0.440 C 
HETATM   15  O1  UNL     1      80.434  24.599   1.730  1.00  0.00    -0.268 OA
ENDBRANCH  13  14
ENDBRANCH  12  13
ENDBRANCH  11  12
ENDBRANCH   7  11
ENDBRANCH   1   7
BRANCH   5  16
HETATM   16  C12 UNL     1      86.625  20.711   0.573  1.00  0.00     0.234 C 
BRANCH  16  17
HETATM   17  N3  UNL     1      86.828  19.430   1.237  1.00  0.00    -0.079 N 
ATOM     18  H33 UNL     1      85.954  19.042   1.593  1.00  0.00     0.274 HD
ATOM     19  H32 UNL     1      87.061  18.690   0.575  1.00  0.00     0.274 HD
ATOM     20  H31 UNL     1      87.532  19.521   1.970  1.00  0.00     0.274 HD
ENDBRANCH  16  17
ENDBRANCH   5  16
TORSDOF 9
ENDMDL
MODEL 5
REMARK VINA RESULT: -5.329006987      1.733      2.216
REMARK  9 active torsions:
REMARK  status: ('A' for Active; 'I' for Inactive)
REMARK    1  A    between atoms: C2_2  and  C3_3 
REMARK    2  A    between atoms: C3_3  and  N1_4 
REMARK    3  A    between atoms: N1_4  and  C4_5 
REMARK    4  A    between atoms: N1_4  and  C7_10 
REMARK    5  A    between atoms: C4_5  and  C5_6 
REMARK    6  A    between atoms: C5_6  and  N2_7 
REMARK    7  A    between atoms: N2_7  and  C6_8 
REMARK    8  A    between atoms: C11_14  and  C12_15 
REMARK    9  A    between atoms: C12_15  and  N3_16 
ROOT
HETATM    1  C7  UNL     1      81.567  20.531   0.587  1.00  0.00     0.063 C 
HETATM    2  C8  UNL     1      80.281  20.423   1.376  1.00  0.00     0.020 C 
HETATM    3  C9  UNL     1      79.155  20.206   0.364  1.00  0.00     0.002 C 
HETATM    4  C10 UNL     1      79.504  19.029  -0.494  1.00  0.00     0.006 C 
HETATM    5  C11 UNL     1      80.661  18.244   0.069  1.00  0.00     0.012 C 
HETATM    6  C13 UNL     1      81.909  19.091   0.187  1.00  0.00     0.026 C 
ENDROOT
BRANCH   1   7
HETATM    7  N1  UNL     1      82.603  21.214   1.280  1.00  0.00    -0.283 NA
BRANCH   7   8
HETATM    8  C3  UNL     1      83.864  20.492   0.922  1.00  0.00     0.121 C 
BRANCH   8   9
HETATM    9  C2  UNL     1      84.866  21.344   0.301  1.00  0.00    -0.022 C 
HETATM   10  C1  UNL     1      86.078  20.940  -0.015  1.00  0.00     0.008 C 
ENDBRANCH   8   9
ENDBRANCH   7   8
BRANCH   7  11
HETATM   11  C4  UNL     1      82.582  21.250   2.677  1.00  0.00     0.092 C 
BRANCH  11  12
HETATM   12  C5  UNL     1      82.478  22.578   3.407  1.00  0.00     0.197 C 
BRANCH  12  13
HETATM   13  N2  UNL     1      81.384  23.321   3.094  1.00  0.00    -0.390 NA
BRANCH  13  14
HETATM   14  C6  UNL     1      80.304  24.054   2.785  1.00  0.00     0.440 C 
HETATM   15  O1  UNL     1      79.103  23.723   2.468  1.00  0.00    -0.268 OA
ENDBRANCH  13  14
ENDBRANCH  12  13
ENDBRANCH  11  12
ENDBRANCH   7  11
ENDBRANCH   1   7
BRANCH   5  16
HETATM   16  C12 UNL     1      80.969  17.143  -0.942  1.00  0.00     0.234 C 
BRANCH  16  17
HETATM   17  N3  UNL     1      80.355  17.454  -2.226  1.00  0.00    -0.079 N 
ATOM     18  H33 UNL     1      81.002  17.933  -2.853  1.00  0.00     0.274 HD
ATOM     19  H32 UNL     1      80.198  16.616  -2.786  1.00  0.00     0.274 HD
ATOM     20  H31 UNL     1      79.495  17.985  -2.086  1.00  0.00     0.274 HD
ENDBRANCH  16  17
ENDBRANCH   5  16
TORSDOF 9
ENDMDL
