MODEL 1
REMARK VINA RESULT: -9.525481713      0.000      0.000
REMARK  9 active torsions:
REMARK  status: ('A' for Active; 'I' for Inactive)
REMARK    1  A    between atoms: N1_1  and  C1_4 
REMARK    2  A    between atoms: C2_7  and  C3_8 
REMARK    3  A    between atoms: C3_8  and  C4_9 
REMARK    4  A    between atoms: C5_10  and  C6_11 
REMARK    5  A    between atoms: C6_11  and  O1_13 
REMARK    6  A    between atoms: C7_15  and  C8_16 
REMARK       I    between atoms: C8_16  and  N4_18 
REMARK    7  A    between atoms: N4_18  and  N5_19 
REMARK       I    between atoms: N5_19  and  C9_21 
REMARK       I    between atoms: C9_21  and  N6_23 
REMARK    8  A    between atoms: N6_23  and  N7_25 
REMARK    9  A    between atoms: N7_25  and  N8_26 
ROOT
HETATM    1  C4  UNL     1      30.864  52.248   9.332  1.00  0.00     0.071 A 
HETATM    2  C5  UNL     1      32.120  53.190   9.480  1.00  0.00     0.012 A 
HETATM    3  C7  UNL     1      32.002  52.181   8.592  1.00  0.00     0.046 A 
ENDROOT
BRANCH   1   4
HETATM    4  C3  UNL     1      30.815  51.457  10.668  1.00  0.00     0.091 C 
BRANCH   4   5
HETATM    5  C2  UNL     1      29.809  51.927  11.593  1.00  0.00     0.102 A 
HETATM    6  N2  UNL     1      29.558  51.644  12.778  1.00  0.00    -0.181 N 
HETATM    7  C1  UNL     1      28.659  52.244  13.567  1.00  0.00     0.681 A 
ATOM      8  H2  UNL     1      30.090  50.877  13.189  1.00  0.00     0.185 HD
HETATM    9  N10 UNL     1      27.961  53.183  13.138  1.00  0.00    -0.141 N 
HETATM   10  C10 UNL     1      28.134  53.625  11.812  1.00  0.00     0.339 A 
ATOM     11  H10 UNL     1      27.270  53.628  13.742  1.00  0.00     0.189 HD
HETATM   12  N9  UNL     1      28.999  53.095  10.977  1.00  0.00    -0.297 N 
HETATM   13  O4  UNL     1      27.424  54.579  11.439  1.00  0.00    -0.246 OA
ATOM     14  H9  UNL     1      29.125  53.420  10.018  1.00  0.00     0.172 HD
BRANCH   7  15
HETATM   15  N1  UNL     1      28.670  52.115  14.933  1.00  0.00    -0.234 N 
ATOM     16  H12 UNL     1      27.838  51.677  15.326  1.00  0.00     0.174 HD
ATOM     17  H11 UNL     1      29.321  52.627  15.529  1.00  0.00     0.174 HD
ENDBRANCH   7  15
ENDBRANCH   4   5
ENDBRANCH   1   4
BRANCH   2  18
HETATM   18  C6  UNL     1      32.534  54.206  10.456  1.00  0.00     0.157 C 
HETATM   19  N3  UNL     1      31.751  54.787  11.469  1.00  0.00    -0.074 NA
BRANCH  18  20
HETATM   20  O1  UNL     1      33.760  54.624  10.332  1.00  0.00    -0.348 OA
ATOM     21  H1  UNL     1      33.877  55.562  10.427  1.00  0.00     0.219 HD
ENDBRANCH  18  20
ENDBRANCH   2  18
BRANCH   3  22
HETATM   22  C8  UNL     1      32.678  51.420   7.420  1.00  0.00     0.343 C 
HETATM   23  O2  UNL     1      33.917  51.381   7.508  1.00  0.00    -0.249 OA
HETATM   24  N4  UNL     1      31.717  51.004   6.590  1.00  0.00    -0.277 NA
BRANCH  24  25
HETATM   25  N5  UNL     1      30.767  50.588   5.762  1.00  0.00    -0.180 N 
HETATM   26  C9  UNL     1      30.399  49.203   5.390  1.00  0.00     0.362 C 
HETATM   27  O3  UNL     1      30.642  48.186   5.574  1.00  0.00    -0.243 OA
HETATM   28  N6  UNL     1      29.230  49.422   4.339  1.00  0.00    -0.234 N 
ATOM     29  H6  UNL     1      28.895  50.357   4.107  1.00  0.00     0.189 HD
ATOM     30  H5  UNL     1      30.214  51.323   5.321  1.00  0.00     0.207 HD
BRANCH  28  31
HETATM   31  N7  UNL     1      28.701  48.330   3.770  1.00  0.00    -0.026 NA
BRANCH  31  32
HETATM   32  N8  UNL     1      28.292  48.528   2.504  1.00  0.00    -0.329 N 
ATOM     33  H82 UNL     1      28.555  47.905   1.741  1.00  0.00     0.174 HD
ATOM     34  H81 UNL     1      27.703  49.353   2.392  1.00  0.00     0.174 HD
ENDBRANCH  31  32
ENDBRANCH  28  31
ENDBRANCH  24  25
ENDBRANCH   3  22
TORSDOF 9
ENDMDL
MODEL 2
REMARK VINA RESULT: -9.448064787      1.888      5.775
REMARK  9 active torsions:
REMARK  status: ('A' for Active; 'I' for Inactive)
REMARK    1  A    between atoms: N1_1  and  C1_4 
REMARK    2  A    between atoms: C2_7  and  C3_8 
REMARK    3  A    between atoms: C3_8  and  C4_9 
REMARK    4  A    between atoms: C5_10  and  C6_11 
REMARK    5  A    between atoms: C6_11  and  O1_13 
REMARK    6  A    between atoms: C7_15  and  C8_16 
REMARK       I    between atoms: C8_16  and  N4_18 
REMARK    7  A    between atoms: N4_18  and  N5_19 
REMARK       I    between atoms: N5_19  and  C9_21 
REMARK       I    between atoms: C9_21  and  N6_23 
REMARK    8  A    between atoms: N6_23  and  N7_25 
REMARK    9  A    between atoms: N7_25  and  N8_26 
ROOT
HETATM    1  C4  UNL     1      31.200  50.769   8.646  1.00  0.00     0.071 A 
HETATM    2  C5  UNL     1      31.571  50.582   7.125  1.00  0.00     0.012 A 
HETATM    3  C7  UNL     1      32.166  51.447   7.973  1.00  0.00     0.046 A 
ENDROOT
BRANCH   1   4
HETATM    4  C3  UNL     1      29.756  51.341   8.624  1.00  0.00     0.091 C 
BRANCH   4   5
HETATM    5  C2  UNL     1      29.322  51.891   9.888  1.00  0.00     0.102 A 
HETATM    6  N2  UNL     1      29.384  51.466  11.055  1.00  0.00    -0.181 N 
HETATM    7  C1  UNL     1      29.047  52.133  12.166  1.00  0.00     0.681 A 
ATOM      8  H2  UNL     1      29.725  50.513  11.179  1.00  0.00     0.185 HD
HETATM    9  N10 UNL     1      28.611  53.299  12.100  1.00  0.00    -0.141 N 
HETATM   10  C10 UNL     1      28.489  53.923  10.844  1.00  0.00     0.339 A 
ATOM     11  H10 UNL     1      28.346  53.797  12.949  1.00  0.00     0.189 HD
HETATM   12  N9  UNL     1      28.807  53.340   9.709  1.00  0.00    -0.297 N 
HETATM   13  O4  UNL     1      28.067  55.096  10.836  1.00  0.00    -0.246 OA
ATOM     14  H9  UNL     1      28.721  53.797   8.801  1.00  0.00     0.172 HD
BRANCH   7  15
HETATM   15  N1  UNL     1      29.450  51.741  13.416  1.00  0.00    -0.234 N 
ATOM     16  H12 UNL     1      29.965  50.861  13.442  1.00  0.00     0.174 HD
ATOM     17  H11 UNL     1      29.066  52.145  14.271  1.00  0.00     0.174 HD
ENDBRANCH   7  15
ENDBRANCH   4   5
ENDBRANCH   1   4
BRANCH   2  18
HETATM   18  C6  UNL     1      30.967  49.855   6.002  1.00  0.00     0.157 C 
HETATM   19  N3  UNL     1      30.751  48.470   5.898  1.00  0.00    -0.074 NA
BRANCH  18  20
HETATM   20  O1  UNL     1      30.629  50.592   4.984  1.00  0.00    -0.348 OA
ATOM     21  H1  UNL     1      30.071  50.165   4.345  1.00  0.00     0.219 HD
ENDBRANCH  18  20
ENDBRANCH   2  18
BRANCH   3  22
HETATM   22  C8  UNL     1      33.278  52.518   8.139  1.00  0.00     0.343 C 
HETATM   23  O2  UNL     1      34.266  52.318   7.413  1.00  0.00    -0.249 OA
HETATM   24  N4  UNL     1      32.871  53.395   9.061  1.00  0.00    -0.277 NA
BRANCH  24  25
HETATM   25  N5  UNL     1      32.472  54.271   9.976  1.00  0.00    -0.180 N 
HETATM   26  C9  UNL     1      31.975  54.019  11.348  1.00  0.00     0.362 C 
HETATM   27  O3  UNL     1      31.778  53.245  12.047  1.00  0.00    -0.243 OA
HETATM   28  N6  UNL     1      31.636  55.479  11.869  1.00  0.00    -0.234 N 
ATOM     29  H6  UNL     1      31.810  56.302  11.292  1.00  0.00     0.189 HD
ATOM     30  H5  UNL     1      32.513  55.250   9.696  1.00  0.00     0.207 HD
BRANCH  28  31
HETATM   31  N7  UNL     1      31.111  55.588  13.098  1.00  0.00    -0.026 NA
BRANCH  31  32
HETATM   32  N8  UNL     1      29.804  55.907  13.097  1.00  0.00    -0.329 N 
ATOM     33  H82 UNL     1      29.185  55.670  12.322  1.00  0.00     0.174 HD
ATOM     34  H81 UNL     1      29.506  56.401  13.938  1.00  0.00     0.174 HD
ENDBRANCH  31  32
ENDBRANCH  28  31
ENDBRANCH  24  25
ENDBRANCH   3  22
TORSDOF 9
ENDMDL
MODEL 3
REMARK VINA RESULT: -9.366424045      1.873      2.320
REMARK  9 active torsions:
REMARK  status: ('A' for Active; 'I' for Inactive)
REMARK    1  A    between atoms: N1_1  and  C1_4 
REMARK    2  A    between atoms: C2_7  and  C3_8 
REMARK    3  A    between atoms: C3_8  and  C4_9 
REMARK    4  A    between atoms: C5_10  and  C6_11 
REMARK    5  A    between atoms: C6_11  and  O1_13 
REMARK    6  A    between atoms: C7_15  and  C8_16 
REMARK       I    between atoms: C8_16  and  N4_18 
REMARK    7  A    between atoms: N4_18  and  N5_19 
REMARK       I    between atoms: N5_19  and  C9_21 
REMARK       I    between atoms: C9_21  and  N6_23 
REMARK    8  A    between atoms: N6_23  and  N7_25 
REMARK    9  A    between atoms: N7_25  and  N8_26 
ROOT
HETATM    1  C4  UNL     1      30.872  51.367   8.591  1.00  0.00     0.071 A 
HETATM    2  C5  UNL     1      32.062  51.547   7.573  1.00  0.00     0.012 A 
HETATM    3  C7  UNL     1      31.424  50.386   7.830  1.00  0.00     0.046 A 
ENDROOT
BRANCH   1   4
HETATM    4  C3  UNL     1      31.505  51.656   9.980  1.00  0.00     0.091 C 
BRANCH   4   5
HETATM    5  C2  UNL     1      30.586  52.228  10.937  1.00  0.00     0.102 A 
HETATM    6  N2  UNL     1      30.453  52.082  12.165  1.00  0.00    -0.181 N 
HETATM    7  C1  UNL     1      29.626  52.767  12.964  1.00  0.00     0.681 A 
ATOM      8  H2  UNL     1      31.031  51.368  12.608  1.00  0.00     0.185 HD
HETATM    9  N10 UNL     1      28.878  53.649  12.499  1.00  0.00    -0.141 N 
HETATM   10  C10 UNL     1      28.918  53.936  11.121  1.00  0.00     0.339 A 
ATOM     11  H10 UNL     1      28.243  54.160  13.112  1.00  0.00     0.189 HD
HETATM   12  N9  UNL     1      29.707  53.315  10.273  1.00  0.00    -0.297 N 
HETATM   13  O4  UNL     1      28.164  54.840  10.712  1.00  0.00    -0.246 OA
ATOM     14  H9  UNL     1      29.736  53.528   9.276  1.00  0.00     0.172 HD
BRANCH   7  15
HETATM   15  N1  UNL     1      29.769  52.797  14.328  1.00  0.00    -0.234 N 
ATOM     16  H12 UNL     1      30.341  53.563  14.680  1.00  0.00     0.174 HD
ATOM     17  H11 UNL     1      29.543  51.999  14.922  1.00  0.00     0.174 HD
ENDBRANCH   7  15
ENDBRANCH   4   5
ENDBRANCH   1   4
BRANCH   2  18
HETATM   18  C6  UNL     1      32.996  52.638   7.266  1.00  0.00     0.157 C 
HETATM   19  N3  UNL     1      33.444  53.648   8.134  1.00  0.00    -0.074 NA
BRANCH  18  20
HETATM   20  O1  UNL     1      33.421  52.672   6.037  1.00  0.00    -0.348 OA
ATOM     21  H1  UNL     1      32.830  52.297   5.395  1.00  0.00     0.219 HD
ENDBRANCH  18  20
ENDBRANCH   2  18
BRANCH   3  22
HETATM   22  C8  UNL     1      31.315  48.878   7.475  1.00  0.00     0.343 C 
HETATM   23  O2  UNL     1      31.744  48.130   8.369  1.00  0.00    -0.249 OA
HETATM   24  N4  UNL     1      30.783  48.781   6.254  1.00  0.00    -0.277 NA
BRANCH  24  25
HETATM   25  N5  UNL     1      30.254  48.676   5.040  1.00  0.00    -0.180 N 
HETATM   26  C9  UNL     1      28.884  49.011   4.592  1.00  0.00     0.362 C 
HETATM   27  O3  UNL     1      27.954  49.397   4.930  1.00  0.00    -0.243 OA
HETATM   28  N6  UNL     1      28.911  48.608   3.057  1.00  0.00    -0.234 N 
ATOM     29  H6  UNL     1      29.759  48.252   2.617  1.00  0.00     0.189 HD
ATOM     30  H5  UNL     1      30.877  48.316   4.318  1.00  0.00     0.207 HD
BRANCH  28  31
HETATM   31  N7  UNL     1      27.773  48.755   2.362  1.00  0.00    -0.026 NA
BRANCH  31  32
HETATM   32  N8  UNL     1      26.792  47.924   2.757  1.00  0.00    -0.329 N 
ATOM     33  H82 UNL     1      26.978  47.068   3.279  1.00  0.00     0.174 HD
ATOM     34  H81 UNL     1      25.860  48.237   2.484  1.00  0.00     0.174 HD
ENDBRANCH  31  32
ENDBRANCH  28  31
ENDBRANCH  24  25
ENDBRANCH   3  22
TORSDOF 9
ENDMDL
MODEL 4
REMARK VINA RESULT: -9.352662390      1.985      2.725
REMARK  9 active torsions:
REMARK  status: ('A' for Active; 'I' for Inactive)
REMARK    1  A    between atoms: N1_1  and  C1_4 
REMARK    2  A    between atoms: C2_7  and  C3_8 
REMARK    3  A    between atoms: C3_8  and  C4_9 
REMARK    4  A    between atoms: C5_10  and  C6_11 
REMARK    5  A    between atoms: C6_11  and  O1_13 
REMARK    6  A    between atoms: C7_15  and  C8_16 
REMARK       I    between atoms: C8_16  and  N4_18 
REMARK    7  A    between atoms: N4_18  and  N5_19 
REMARK       I    between atoms: N5_19  and  C9_21 
REMARK       I    between atoms: C9_21  and  N6_23 
REMARK    8  A    between atoms: N6_23  and  N7_25 
REMARK    9  A    between atoms: N7_25  and  N8_26 
ROOT
HETATM    1  C4  UNL     1      30.762  51.370   8.425  1.00  0.00     0.071 A 
HETATM    2  C5  UNL     1      32.017  51.547   7.487  1.00  0.00     0.012 A 
HETATM    3  C7  UNL     1      31.366  50.386   7.710  1.00  0.00     0.046 A 
ENDROOT
BRANCH   1   4
HETATM    4  C3  UNL     1      31.299  51.672   9.851  1.00  0.00     0.091 C 
BRANCH   4   5
HETATM    5  C2  UNL     1      30.495  52.615  10.595  1.00  0.00     0.102 A 
HETATM    6  N2  UNL     1      29.291  52.630  10.907  1.00  0.00    -0.181 N 
HETATM    7  C1  UNL     1      28.687  53.516  11.708  1.00  0.00     0.681 A 
ATOM      8  H2  UNL     1      28.705  51.895  10.513  1.00  0.00     0.185 HD
HETATM    9  N10 UNL     1      29.331  54.451  12.222  1.00  0.00    -0.141 N 
HETATM   10  C10 UNL     1      30.711  54.565  11.968  1.00  0.00     0.339 A 
ATOM     11  H10 UNL     1      28.862  55.129  12.823  1.00  0.00     0.189 HD
HETATM   12  N9  UNL     1      31.379  53.732  11.200  1.00  0.00    -0.297 N 
HETATM   13  O4  UNL     1      31.310  55.507  12.521  1.00  0.00    -0.246 OA
ATOM     14  H9  UNL     1      32.379  53.815  11.021  1.00  0.00     0.172 HD
BRANCH   7  15
HETATM   15  N1  UNL     1      27.459  53.286  12.274  1.00  0.00    -0.234 N 
ATOM     16  H12 UNL     1      26.908  52.560  11.816  1.00  0.00     0.174 HD
ATOM     17  H11 UNL     1      27.023  53.936  12.928  1.00  0.00     0.174 HD
ENDBRANCH   7  15
ENDBRANCH   4   5
ENDBRANCH   1   4
BRANCH   2  18
HETATM   18  C6  UNL     1      32.966  52.638   7.236  1.00  0.00     0.157 C 
HETATM   19  N3  UNL     1      33.420  53.603   8.151  1.00  0.00    -0.074 NA
BRANCH  18  20
HETATM   20  O1  UNL     1      33.401  52.722   6.012  1.00  0.00    -0.348 OA
ATOM     21  H1  UNL     1      33.760  53.567   5.769  1.00  0.00     0.219 HD
ENDBRANCH  18  20
ENDBRANCH   2  18
BRANCH   3  22
HETATM   22  C8  UNL     1      31.286  48.875   7.360  1.00  0.00     0.343 C 
HETATM   23  O2  UNL     1      31.754  48.139   8.245  1.00  0.00    -0.249 OA
HETATM   24  N4  UNL     1      30.726  48.761   6.153  1.00  0.00    -0.277 NA
BRANCH  24  25
HETATM   25  N5  UNL     1      30.171  48.642   4.952  1.00  0.00    -0.180 N 
HETATM   26  C9  UNL     1      28.793  48.977   4.528  1.00  0.00     0.362 C 
HETATM   27  O3  UNL     1      27.874  49.373   4.880  1.00  0.00    -0.243 OA
HETATM   28  N6  UNL     1      28.785  48.550   3.000  1.00  0.00    -0.234 N 
ATOM     29  H6  UNL     1      29.622  48.183   2.547  1.00  0.00     0.189 HD
ATOM     30  H5  UNL     1      30.777  48.267   4.222  1.00  0.00     0.207 HD
BRANCH  28  31
HETATM   31  N7  UNL     1      27.634  48.693   2.327  1.00  0.00    -0.026 NA
BRANCH  31  32
HETATM   32  N8  UNL     1      26.671  47.842   2.724  1.00  0.00    -0.329 N 
ATOM     33  H82 UNL     1      25.991  47.446   2.076  1.00  0.00     0.174 HD
ATOM     34  H81 UNL     1      26.693  47.641   3.724  1.00  0.00     0.174 HD
ENDBRANCH  31  32
ENDBRANCH  28  31
ENDBRANCH  24  25
ENDBRANCH   3  22
TORSDOF 9
ENDMDL
MODEL 5
REMARK VINA RESULT: -8.993748217      1.343      1.749
REMARK  9 active torsions:
REMARK  status: ('A' for Active; 'I' for Inactive)
REMARK    1  A    between atoms: N1_1  and  C1_4 
REMARK    2  A    between atoms: C2_7  and  C3_8 
REMARK    3  A    between atoms: C3_8  and  C4_9 
REMARK    4  A    between atoms: C5_10  and  C6_11 
REMARK    5  A    between atoms: C6_11  and  O1_13 
REMARK    6  A    between atoms: C7_15  and  C8_16 
REMARK       I    between atoms: C8_16  and  N4_18 
REMARK    7  A    between atoms: N4_18  and  N5_19 
REMARK       I    between atoms: N5_19  and  C9_21 
REMARK       I    between atoms: C9_21  and  N6_23 
REMARK    8  A    between atoms: N6_23  and  N7_25 
REMARK    9  A    between atoms: N7_25  and  N8_26 
ROOT
HETATM    1  C4  UNL     1      31.097  52.142   9.324  1.00  0.00     0.071 A 
HETATM    2  C5  UNL     1      32.240  53.227   9.401  1.00  0.00     0.012 A 
HETATM    3  C7  UNL     1      32.176  52.223   8.501  1.00  0.00     0.046 A 
ENDROOT
BRANCH   1   4
HETATM    4  C3  UNL     1      31.244  51.332  10.641  1.00  0.00     0.091 C 
BRANCH   4   5
HETATM    5  C2  UNL     1      30.324  51.731  11.682  1.00  0.00     0.102 A 
HETATM    6  N2  UNL     1      29.413  52.577  11.719  1.00  0.00    -0.181 N 
HETATM    7  C1  UNL     1      28.546  52.770  12.720  1.00  0.00     0.681 A 
ATOM      8  H2  UNL     1      29.317  53.184  10.906  1.00  0.00     0.185 HD
HETATM    9  N10 UNL     1      28.602  52.076  13.754  1.00  0.00    -0.141 N 
HETATM   10  C10 UNL     1      29.580  51.068  13.859  1.00  0.00     0.339 A 
ATOM     11  H10 UNL     1      27.945  52.236  14.517  1.00  0.00     0.189 HD
HETATM   12  N9  UNL     1      30.461  50.810  12.919  1.00  0.00    -0.297 N 
HETATM   13  O4  UNL     1      29.581  50.391  14.905  1.00  0.00    -0.246 OA
ATOM     14  H9  UNL     1      31.166  50.076  12.996  1.00  0.00     0.172 HD
BRANCH   7  15
HETATM   15  N1  UNL     1      27.378  53.471  12.563  1.00  0.00    -0.234 N 
ATOM     16  H12 UNL     1      26.563  53.046  13.007  1.00  0.00     0.174 HD
ATOM     17  H11 UNL     1      27.267  54.207  11.866  1.00  0.00     0.174 HD
ENDBRANCH   7  15
ENDBRANCH   4   5
ENDBRANCH   1   4
BRANCH   2  18
HETATM   18  C6  UNL     1      32.602  54.271  10.367  1.00  0.00     0.157 C 
HETATM   19  N3  UNL     1      31.779  54.849  11.349  1.00  0.00    -0.074 NA
BRANCH  18  20
HETATM   20  O1  UNL     1      33.819  54.719  10.266  1.00  0.00    -0.348 OA
ATOM     21  H1  UNL     1      34.433  54.367  10.900  1.00  0.00     0.219 HD
ENDBRANCH  18  20
ENDBRANCH   2  18
BRANCH   3  22
HETATM   22  C8  UNL     1      32.847  51.566   7.265  1.00  0.00     0.343 C 
HETATM   23  O2  UNL     1      34.089  51.603   7.301  1.00  0.00    -0.249 OA
HETATM   24  N4  UNL     1      31.879  51.130   6.454  1.00  0.00    -0.277 NA
BRANCH  24  25
HETATM   25  N5  UNL     1      30.922  50.695   5.643  1.00  0.00    -0.180 N 
HETATM   26  C9  UNL     1      30.453  49.309   5.418  1.00  0.00     0.362 C 
HETATM   27  O3  UNL     1      30.607  48.305   5.727  1.00  0.00    -0.243 OA
HETATM   28  N6  UNL     1      29.337  49.494   4.306  1.00  0.00    -0.234 N 
ATOM     29  H6  UNL     1      29.085  50.418   3.955  1.00  0.00     0.189 HD
ATOM     30  H5  UNL     1      30.444  51.414   5.100  1.00  0.00     0.207 HD
BRANCH  28  31
HETATM   31  N7  UNL     1      28.736  48.387   3.846  1.00  0.00    -0.026 NA
BRANCH  31  32
HETATM   32  N8  UNL     1      28.322  48.491   2.571  1.00  0.00    -0.329 N 
ATOM     33  H82 UNL     1      28.970  48.629   1.796  1.00  0.00     0.174 HD
ATOM     34  H81 UNL     1      27.310  48.419   2.465  1.00  0.00     0.174 HD
ENDBRANCH  31  32
ENDBRANCH  28  31
ENDBRANCH  24  25
ENDBRANCH   3  22
TORSDOF 9
ENDMDL
