MODEL 1
REMARK VINA RESULT: -9.838643776      0.000      0.000
REMARK  6 active torsions:
REMARK  status: ('A' for Active; 'I' for Inactive)
REMARK    1  A    between atoms: C4_13  and  C5_14 
REMARK    2  A    between atoms: C5_14  and  C6_15 
REMARK    3  A    between atoms: C6_15  and  N5_16 
REMARK    4  A    between atoms: C6_15  and  C7_20 
REMARK    5  A    between atoms: C7_20  and  C8_21 
REMARK    6  A    between atoms: C10_26  and  C11_27 
ROOT
HETATM    1  C6  UNL     1      32.959  52.802  10.061  1.00  0.00     0.213 C 
ENDROOT
BRANCH   1   2
HETATM    2  C5  UNL     1      31.831  52.045  10.683  1.00  0.00     0.082 C 
BRANCH   2   3
HETATM    3  C4  UNL     1      30.604  52.792  10.961  1.00  0.00     0.029 A 
HETATM    4  C1  UNL     1      29.543  52.827  10.098  1.00  0.00     0.112 A 
HETATM    5  N1  UNL     1      29.516  52.175   8.982  1.00  0.00    -0.385 N 
HETATM    6  N2  UNL     1      28.453  53.574  10.451  1.00  0.00    -0.294 N 
ATOM      7  H12 UNL     1      28.725  52.202   8.339  1.00  0.00     0.157 HD
ATOM      8  H11 UNL     1      30.329  51.618   8.718  1.00  0.00     0.157 HD
HETATM    9  C2  UNL     1      28.401  54.258  11.602  1.00  0.00     0.327 A 
ATOM     10  H2  UNL     1      27.655  53.611   9.818  1.00  0.00     0.172 HD
HETATM   11  O1  UNL     1      27.345  54.933  11.862  1.00  0.00    -0.247 OA
HETATM   12  N3  UNL     1      29.420  54.242  12.463  1.00  0.00    -0.296 N 
HETATM   13  C3  UNL     1      30.503  53.515  12.137  1.00  0.00     0.130 A 
ATOM     14  H3  UNL     1      29.379  54.764  13.338  1.00  0.00     0.171 HD
HETATM   15  N4  UNL     1      31.569  53.524  13.090  1.00  0.00    -0.082 NA
ENDBRANCH   2   3
ENDBRANCH   1   2
BRANCH   1  16
HETATM   16  N5  UNL     1      32.655  54.136   9.614  1.00  0.00    -0.071 N 
ATOM     17  H53 UNL     1      31.661  54.325   9.741  1.00  0.00     0.275 HD
ATOM     18  H52 UNL     1      33.055  54.817  10.259  1.00  0.00     0.275 HD
ATOM     19  H51 UNL     1      32.930  54.361   8.657  1.00  0.00     0.275 HD
ENDBRANCH   1  16
BRANCH   1  20
HETATM   20  C7  UNL     1      33.348  52.033   8.841  1.00  0.00     0.041 C 
BRANCH  20  21
HETATM   21  C8  UNL     1      32.578  51.327   8.075  1.00  0.00     0.102 A 
HETATM   22  N6  UNL     1      32.105  50.125   8.375  1.00  0.00    -0.317 N 
HETATM   23  C9  UNL     1      31.300  49.424   7.534  1.00  0.00     0.280 A 
ATOM     24  H6  UNL     1      32.357  49.709   9.273  1.00  0.00     0.169 HD
HETATM   25  O2  UNL     1      30.867  48.270   7.859  1.00  0.00    -0.265 OA
HETATM   26  C10 UNL     1      30.955  49.972   6.327  1.00  0.00     0.181 A 
HETATM   27  N7  UNL     1      31.434  51.192   6.023  1.00  0.00    -0.311 N 
HETATM   28  C12 UNL     1      32.228  51.888   6.847  1.00  0.00     0.272 A 
ATOM     29  H7  UNL     1      31.181  51.605   5.125  1.00  0.00     0.169 HD
HETATM   30  O5  UNL     1      32.658  53.035   6.522  1.00  0.00    -0.266 OA
BRANCH  26  31
HETATM   31  C11 UNL     1      30.176  49.294   5.512  1.00  0.00     0.232 C 
HETATM   32  O3  UNL     1      28.855  49.671   5.367  1.00  0.00    -0.643 OA
HETATM   33  O4  UNL     1      30.651  48.224   4.806  1.00  0.00    -0.643 OA
ENDBRANCH  26  31
ENDBRANCH  20  21
ENDBRANCH   1  20
TORSDOF 6
ENDMDL
MODEL 2
REMARK VINA RESULT: -9.794512949      1.859      2.567
REMARK  6 active torsions:
REMARK  status: ('A' for Active; 'I' for Inactive)
REMARK    1  A    between atoms: C4_13  and  C5_14 
REMARK    2  A    between atoms: C5_14  and  C6_15 
REMARK    3  A    between atoms: C6_15  and  N5_16 
REMARK    4  A    between atoms: C6_15  and  C7_20 
REMARK    5  A    between atoms: C7_20  and  C8_21 
REMARK    6  A    between atoms: C10_26  and  C11_27 
ROOT
HETATM    1  C6  UNL     1      32.067  53.400  11.147  1.00  0.00     0.213 C 
ENDROOT
BRANCH   1   2
HETATM    2  C5  UNL     1      31.253  52.188  11.463  1.00  0.00     0.082 C 
BRANCH   2   3
HETATM    3  C4  UNL     1      30.121  52.368  12.374  1.00  0.00     0.029 A 
HETATM    4  C1  UNL     1      30.212  52.162  13.723  1.00  0.00     0.112 A 
HETATM    5  N1  UNL     1      31.312  51.828  14.315  1.00  0.00    -0.385 N 
HETATM    6  N2  UNL     1      29.086  52.340  14.476  1.00  0.00    -0.294 N 
ATOM      7  H12 UNL     1      31.380  51.675  15.322  1.00  0.00     0.157 HD
ATOM      8  H11 UNL     1      32.153  51.695  13.753  1.00  0.00     0.157 HD
HETATM    9  C2  UNL     1      27.916  52.707  13.935  1.00  0.00     0.327 A 
ATOM     10  H2  UNL     1      29.137  52.190  15.484  1.00  0.00     0.172 HD
HETATM   11  O1  UNL     1      26.907  52.854  14.707  1.00  0.00    -0.247 OA
HETATM   12  N3  UNL     1      27.798  52.915  12.622  1.00  0.00    -0.296 N 
HETATM   13  C3  UNL     1      28.893  52.745  11.860  1.00  0.00     0.130 A 
ATOM     14  H3  UNL     1      26.907  53.192  12.210  1.00  0.00     0.171 HD
HETATM   15  N4  UNL     1      28.720  52.982  10.460  1.00  0.00    -0.082 NA
ENDBRANCH   2   3
ENDBRANCH   1   2
BRANCH   1  16
HETATM   16  N5  UNL     1      31.374  54.659  11.201  1.00  0.00    -0.071 N 
ATOM     17  H53 UNL     1      31.484  55.152  10.315  1.00  0.00     0.275 HD
ATOM     18  H52 UNL     1      30.366  54.500  11.199  1.00  0.00     0.275 HD
ATOM     19  H51 UNL     1      31.626  55.276  11.974  1.00  0.00     0.275 HD
ENDBRANCH   1  16
BRANCH   1  20
HETATM   20  C7  UNL     1      32.521  53.235   9.733  1.00  0.00     0.041 C 
BRANCH  20  21
HETATM   21  C8  UNL     1      32.122  52.351   8.875  1.00  0.00     0.102 A 
HETATM   22  N6  UNL     1      30.879  51.898   8.774  1.00  0.00    -0.317 N 
HETATM   23  C9  UNL     1      30.512  50.967   7.854  1.00  0.00     0.280 A 
ATOM     24  H6  UNL     1      30.171  52.262   9.412  1.00  0.00     0.169 HD
HETATM   25  O2  UNL     1      29.308  50.556   7.789  1.00  0.00    -0.265 OA
HETATM   26  C10 UNL     1      31.455  50.472   6.991  1.00  0.00     0.181 A 
HETATM   27  N7  UNL     1      32.715  50.932   7.093  1.00  0.00    -0.311 N 
HETATM   28  C12 UNL     1      33.083  51.849   7.998  1.00  0.00     0.272 A 
ATOM     29  H7  UNL     1      33.421  50.567   6.454  1.00  0.00     0.169 HD
HETATM   30  O5  UNL     1      34.281  52.257   8.061  1.00  0.00    -0.266 OA
BRANCH  26  31
HETATM   31  C11 UNL     1      31.100  49.571   6.101  1.00  0.00     0.232 C 
HETATM   32  O3  UNL     1      30.854  49.963   4.799  1.00  0.00    -0.643 OA
HETATM   33  O4  UNL     1      30.972  48.253   6.440  1.00  0.00    -0.643 OA
ENDBRANCH  26  31
ENDBRANCH  20  21
ENDBRANCH   1  20
TORSDOF 6
ENDMDL
MODEL 3
REMARK VINA RESULT: -9.364450633      0.719      1.820
REMARK  6 active torsions:
REMARK  status: ('A' for Active; 'I' for Inactive)
REMARK    1  A    between atoms: C4_13  and  C5_14 
REMARK    2  A    between atoms: C5_14  and  C6_15 
REMARK    3  A    between atoms: C6_15  and  N5_16 
REMARK    4  A    between atoms: C6_15  and  C7_20 
REMARK    5  A    between atoms: C7_20  and  C8_21 
REMARK    6  A    between atoms: C10_26  and  C11_27 
ROOT
HETATM    1  C6  UNL     1      32.794  52.816  10.267  1.00  0.00     0.213 C 
ENDROOT
BRANCH   1   2
HETATM    2  C5  UNL     1      31.876  51.872  10.972  1.00  0.00     0.082 C 
BRANCH   2   3
HETATM    3  C4  UNL     1      30.710  52.453  11.639  1.00  0.00     0.029 A 
HETATM    4  C1  UNL     1      30.743  52.919  12.924  1.00  0.00     0.112 A 
HETATM    5  N1  UNL     1      31.814  52.921  13.649  1.00  0.00    -0.385 N 
HETATM    6  N2  UNL     1      29.588  53.424  13.454  1.00  0.00    -0.294 N 
ATOM      7  H12 UNL     1      31.838  53.268  14.608  1.00  0.00     0.157 HD
ATOM      8  H11 UNL     1      32.676  52.544  13.254  1.00  0.00     0.157 HD
HETATM    9  C2  UNL     1      28.446  53.474  12.755  1.00  0.00     0.327 A 
ATOM     10  H2  UNL     1      29.596  53.774  14.411  1.00  0.00     0.172 HD
HETATM   11  O1  UNL     1      27.407  53.962  13.320  1.00  0.00    -0.247 OA
HETATM   12  N3  UNL     1      28.384  53.028  11.499  1.00  0.00    -0.296 N 
HETATM   13  C3  UNL     1      29.507  52.526  10.956  1.00  0.00     0.130 A 
ATOM     14  H3  UNL     1      27.514  53.065  10.969  1.00  0.00     0.171 HD
HETATM   15  N4  UNL     1      29.395  52.063   9.609  1.00  0.00    -0.082 NA
ENDBRANCH   2   3
ENDBRANCH   1   2
BRANCH   1  16
HETATM   16  N5  UNL     1      32.217  54.067   9.851  1.00  0.00    -0.071 N 
ATOM     17  H53 UNL     1      31.207  54.042   9.982  1.00  0.00     0.275 HD
ATOM     18  H52 UNL     1      32.470  54.802  10.513  1.00  0.00     0.275 HD
ATOM     19  H51 UNL     1      32.435  54.367   8.900  1.00  0.00     0.275 HD
ENDBRANCH   1  16
BRANCH   1  20
HETATM   20  C7  UNL     1      33.222  52.120   9.017  1.00  0.00     0.041 C 
BRANCH  20  21
HETATM   21  C8  UNL     1      32.492  51.400   8.226  1.00  0.00     0.102 A 
HETATM   22  N6  UNL     1      32.036  50.186   8.508  1.00  0.00    -0.317 N 
HETATM   23  C9  UNL     1      31.272  49.471   7.641  1.00  0.00     0.280 A 
ATOM     24  H6  UNL     1      32.269  49.773   9.411  1.00  0.00     0.169 HD
HETATM   25  O2  UNL     1      30.854  48.307   7.948  1.00  0.00    -0.265 OA
HETATM   26  C10 UNL     1      30.952  50.017   6.425  1.00  0.00     0.181 A 
HETATM   27  N7  UNL     1      31.413  51.247   6.139  1.00  0.00    -0.311 N 
HETATM   28  C12 UNL     1      32.167  51.957   6.989  1.00  0.00     0.272 A 
ATOM     29  H7  UNL     1      31.179  51.659   5.236  1.00  0.00     0.169 HD
HETATM   30  O5  UNL     1      32.581  53.115   6.681  1.00  0.00    -0.266 OA
BRANCH  26  31
HETATM   31  C11 UNL     1      30.213  49.325   5.585  1.00  0.00     0.232 C 
HETATM   32  O3  UNL     1      28.888  49.670   5.404  1.00  0.00    -0.643 OA
HETATM   33  O4  UNL     1      30.734  48.271   4.886  1.00  0.00    -0.643 OA
ENDBRANCH  26  31
ENDBRANCH  20  21
ENDBRANCH   1  20
TORSDOF 6
ENDMDL
MODEL 4
REMARK VINA RESULT: -9.133123472      1.861      2.912
REMARK  6 active torsions:
REMARK  status: ('A' for Active; 'I' for Inactive)
REMARK    1  A    between atoms: C4_13  and  C5_14 
REMARK    2  A    between atoms: C5_14  and  C6_15 
REMARK    3  A    between atoms: C6_15  and  N5_16 
REMARK    4  A    between atoms: C6_15  and  C7_20 
REMARK    5  A    between atoms: C7_20  and  C8_21 
REMARK    6  A    between atoms: C10_26  and  C11_27 
ROOT
HETATM    1  C6  UNL     1      32.094  53.907  10.980  1.00  0.00     0.213 C 
ENDROOT
BRANCH   1   2
HETATM    2  C5  UNL     1      31.068  54.790  11.612  1.00  0.00     0.082 C 
BRANCH   2   3
HETATM    3  C4  UNL     1      30.073  54.144  12.469  1.00  0.00     0.029 A 
HETATM    4  C1  UNL     1      30.406  53.412  13.575  1.00  0.00     0.112 A 
HETATM    5  N1  UNL     1      31.624  53.258  13.982  1.00  0.00    -0.385 N 
HETATM    6  N2  UNL     1      29.395  52.836  14.292  1.00  0.00    -0.294 N 
ATOM      7  H12 UNL     1      31.872  52.712  14.806  1.00  0.00     0.157 HD
ATOM      8  H11 UNL     1      32.379  53.688  13.447  1.00  0.00     0.157 HD
HETATM    9  C2  UNL     1      28.108  52.971  13.944  1.00  0.00     0.327 A 
ATOM     10  H2  UNL     1      29.627  52.286  15.119  1.00  0.00     0.172 HD
HETATM   11  O1  UNL     1      27.218  52.402  14.666  1.00  0.00    -0.247 OA
HETATM   12  N3  UNL     1      27.753  53.679  12.870  1.00  0.00    -0.296 N 
HETATM   13  C3  UNL     1      28.731  54.255  12.148  1.00  0.00     0.130 A 
ATOM     14  H3  UNL     1      26.774  53.780  12.605  1.00  0.00     0.171 HD
HETATM   15  N4  UNL     1      28.304  55.006  11.009  1.00  0.00    -0.082 NA
ENDBRANCH   2   3
ENDBRANCH   1   2
BRANCH   1  16
HETATM   16  N5  UNL     1      32.609  54.345   9.709  1.00  0.00    -0.071 N 
ATOM     17  H53 UNL     1      31.853  54.733   9.145  1.00  0.00     0.275 HD
ATOM     18  H52 UNL     1      33.186  55.177   9.838  1.00  0.00     0.275 HD
ATOM     19  H51 UNL     1      33.122  53.648   9.169  1.00  0.00     0.275 HD
ENDBRANCH   1  16
BRANCH   1  20
HETATM   20  C7  UNL     1      31.414  52.602  10.725  1.00  0.00     0.041 C 
BRANCH  20  21
HETATM   21  C8  UNL     1      31.343  51.956   9.605  1.00  0.00     0.102 A 
HETATM   22  N6  UNL     1      32.387  51.531   8.906  1.00  0.00    -0.317 N 
HETATM   23  C9  UNL     1      32.258  50.856   7.733  1.00  0.00     0.280 A 
ATOM     24  H6  UNL     1      33.325  51.718   9.262  1.00  0.00     0.169 HD
HETATM   25  O2  UNL     1      33.287  50.465   7.090  1.00  0.00    -0.265 OA
HETATM   26  C10 UNL     1      31.004  50.597   7.246  1.00  0.00     0.181 A 
HETATM   27  N7  UNL     1      29.945  51.027   7.955  1.00  0.00    -0.311 N 
HETATM   28  C12 UNL     1      30.065  51.693   9.111  1.00  0.00     0.272 A 
ATOM     29  H7  UNL     1      29.008  50.838   7.597  1.00  0.00     0.169 HD
HETATM   30  O5  UNL     1      29.041  52.081   9.749  1.00  0.00    -0.266 OA
BRANCH  26  31
HETATM   31  C11 UNL     1      30.878  49.944   6.111  1.00  0.00     0.232 C 
HETATM   32  O3  UNL     1      30.586  48.593   6.134  1.00  0.00    -0.643 OA
HETATM   33  O4  UNL     1      31.029  50.578   4.909  1.00  0.00    -0.643 OA
ENDBRANCH  26  31
ENDBRANCH  20  21
ENDBRANCH   1  20
TORSDOF 6
ENDMDL
MODEL 5
REMARK VINA RESULT: -8.993353909      1.802      2.422
REMARK  6 active torsions:
REMARK  status: ('A' for Active; 'I' for Inactive)
REMARK    1  A    between atoms: C4_13  and  C5_14 
REMARK    2  A    between atoms: C5_14  and  C6_15 
REMARK    3  A    between atoms: C6_15  and  N5_16 
REMARK    4  A    between atoms: C6_15  and  C7_20 
REMARK    5  A    between atoms: C7_20  and  C8_21 
REMARK    6  A    between atoms: C10_26  and  C11_27 
ROOT
HETATM    1  C6  UNL     1      32.325  53.957  10.874  1.00  0.00     0.213 C 
ENDROOT
BRANCH   1   2
HETATM    2  C5  UNL     1      31.405  54.869  11.616  1.00  0.00     0.082 C 
BRANCH   2   3
HETATM    3  C4  UNL     1      30.293  54.248  12.337  1.00  0.00     0.029 A 
HETATM    4  C1  UNL     1      29.006  54.257  11.872  1.00  0.00     0.112 A 
HETATM    5  N1  UNL     1      28.667  54.780  10.739  1.00  0.00    -0.385 N 
HETATM    6  N2  UNL     1      28.043  53.663  12.638  1.00  0.00    -0.294 N 
ATOM      7  H12 UNL     1      27.707  54.787  10.393  1.00  0.00     0.157 HD
ATOM      8  H11 UNL     1      29.386  55.224  10.168  1.00  0.00     0.157 HD
HETATM    9  C2  UNL     1      28.324  53.081  13.812  1.00  0.00     0.327 A 
ATOM     10  H2  UNL     1      27.079  53.662  12.306  1.00  0.00     0.172 HD
HETATM   11  O1  UNL     1      27.367  52.545  14.471  1.00  0.00    -0.247 OA
HETATM   12  N3  UNL     1      29.569  53.057  14.291  1.00  0.00    -0.296 N 
HETATM   13  C3  UNL     1      30.535  53.635  13.555  1.00  0.00     0.130 A 
ATOM     14  H3  UNL     1      29.782  52.614  15.185  1.00  0.00     0.171 HD
HETATM   15  N4  UNL     1      31.853  53.582  14.104  1.00  0.00    -0.082 NA
ENDBRANCH   2   3
ENDBRANCH   1   2
BRANCH   1  16
HETATM   16  N5  UNL     1      32.716  54.388   9.558  1.00  0.00    -0.071 N 
ATOM     17  H53 UNL     1      33.287  55.230   9.625  1.00  0.00     0.275 HD
ATOM     18  H52 UNL     1      33.398  53.736   9.168  1.00  0.00     0.275 HD
ATOM     19  H51 UNL     1      31.958  54.535   8.891  1.00  0.00     0.275 HD
ENDBRANCH   1  16
BRANCH   1  20
HETATM   20  C7  UNL     1      31.577  52.678  10.687  1.00  0.00     0.041 C 
BRANCH  20  21
HETATM   21  C8  UNL     1      31.459  51.985   9.600  1.00  0.00     0.102 A 
HETATM   22  N6  UNL     1      32.472  51.553   8.860  1.00  0.00    -0.317 N 
HETATM   23  C9  UNL     1      32.293  50.829   7.724  1.00  0.00     0.280 A 
ATOM     24  H6  UNL     1      33.423  51.774   9.156  1.00  0.00     0.169 HD
HETATM   25  O2  UNL     1      33.293  50.433   7.040  1.00  0.00    -0.265 OA
HETATM   26  C10 UNL     1      31.020  50.525   7.319  1.00  0.00     0.181 A 
HETATM   27  N7  UNL     1      29.992  50.962   8.069  1.00  0.00    -0.311 N 
HETATM   28  C12 UNL     1      30.162  51.676   9.189  1.00  0.00     0.272 A 
ATOM     29  H7  UNL     1      29.042  50.739   7.772  1.00  0.00     0.169 HD
HETATM   30  O5  UNL     1      29.166  52.069   9.867  1.00  0.00    -0.266 OA
BRANCH  26  31
HETATM   31  C11 UNL     1      30.846  49.824   6.220  1.00  0.00     0.232 C 
HETATM   32  O3  UNL     1      30.848  50.468   4.997  1.00  0.00    -0.643 OA
HETATM   33  O4  UNL     1      30.665  48.469   6.264  1.00  0.00    -0.643 OA
ENDBRANCH  26  31
ENDBRANCH  20  21
ENDBRANCH   1  20
TORSDOF 6
ENDMDL
