MODEL 1
REMARK VINA RESULT: -7.581212845      0.000      0.000
REMARK  4 active torsions:
REMARK  status: ('A' for Active; 'I' for Inactive)
REMARK    1  A    between atoms: N2_4  and  N3_6 
REMARK       I    between atoms: N3_6  and  C1_8 
REMARK       I    between atoms: C1_8  and  N5_12 
REMARK    2  A    between atoms: N5_12  and  C2_14 
REMARK    3  A    between atoms: C4_23  and  C5_24 
REMARK    4  A    between atoms: C5_24  and  C6_25 
ROOT
HETATM    1  C2  UNL     1      31.416  51.599   9.450  1.00  0.00     0.156 A 
HETATM    2  N6  UNL     1      32.068  52.372   8.596  1.00  0.00    -0.175 N 
ATOM      3  H6  UNL     1      32.118  52.077   7.621  1.00  0.00     0.186 HD
HETATM    4  C3  UNL     1      32.666  53.523   8.942  1.00  0.00     0.677 A 
HETATM    5  N7  UNL     1      33.303  54.278   8.115  1.00  0.00    -0.234 N 
ATOM      6  H71 UNL     1      33.758  55.152   8.378  1.00  0.00     0.174 HD
ATOM      7  H72 UNL     1      33.372  54.012   7.133  1.00  0.00     0.174 HD
HETATM    8  N8  UNL     1      32.574  53.879  10.259  1.00  0.00    -0.194 N 
ATOM      9  H8  UNL     1      33.016  54.748  10.560  1.00  0.00     0.184 HD
HETATM   10  C4  UNL     1      31.932  53.144  11.170  1.00  0.00     0.051 A 
HETATM   11  C9  UNL     1      31.317  51.946  10.772  1.00  0.00     0.080 A 
HETATM   12  S1  UNL     1      30.439  50.912  11.953  1.00  0.00    -0.046 SA
ENDROOT
BRANCH   1  13
HETATM   13  N5  UNL     1      30.827  50.480   9.105  1.00  0.00    -0.174 N 
HETATM   14  C1  UNL     1      31.112  49.818   7.889  1.00  0.00     0.693 C 
HETATM   15  N3  UNL     1      30.563  50.204   6.641  1.00  0.00    -0.118 N 
HETATM   16  N4  UNL     1      31.920  48.803   7.926  1.00  0.00    -0.233 N 
ATOM     17  H3  UNL     1      31.006  49.865   5.787  1.00  0.00     0.207 HD
ATOM     18  H42 UNL     1      32.126  48.326   7.048  1.00  0.00     0.174 HD
ATOM     19  H41 UNL     1      32.315  48.526   8.825  1.00  0.00     0.174 HD
ATOM     20  H5  UNL     1      30.139  50.072   9.737  1.00  0.00     0.186 HD
BRANCH  15  21
HETATM   21  N2  UNL     1      29.439  51.030   6.530  1.00  0.00    -0.235 N 
HETATM   22  N1  UNL     1      29.562  52.261   6.196  1.00  0.00    -0.330 N 
ATOM     23  H12 UNL     1      30.496  52.627   6.012  1.00  0.00     0.178 HD
ATOM     24  H11 UNL     1      28.742  52.863   6.115  1.00  0.00     0.178 HD
ATOM     25  H2  UNL     1      28.512  50.648   6.717  1.00  0.00     0.208 HD
ENDBRANCH  15  21
ENDBRANCH   1  13
BRANCH  10  26
HETATM   26  C5  UNL     1      31.794  53.480  12.595  1.00  0.00     0.106 C 
BRANCH  26  27
HETATM   27  C6  UNL     1      30.527  54.195  12.967  1.00  0.00     0.192 A 
HETATM   28  N9  UNL     1      29.650  53.478  13.822  1.00  0.00    -0.343 N 
HETATM   29  C7  UNL     1      28.404  53.241  13.618  1.00  0.00     0.192 A 
ATOM     30  H9  UNL     1      30.050  53.114  14.686  1.00  0.00     0.164 HD
HETATM   31  N10 UNL     1      27.719  52.500  14.613  1.00  0.00    -0.063 NA
HETATM   32  N11 UNL     1      27.734  53.704  12.443  1.00  0.00    -0.305 N 
HETATM   33  C8  UNL     1      28.451  54.376  11.597  1.00  0.00     0.192 A 
ATOM     34  H11 UNL     1      26.745  53.516  12.279  1.00  0.00     0.171 HD
HETATM   35  N12 UNL     1      27.846  54.877  10.385  1.00  0.00    -0.063 NA
HETATM   36  N13 UNL     1      29.817  54.662  11.798  1.00  0.00    -0.343 N 
ATOM     37  H13 UNL     1      30.317  55.212  11.099  1.00  0.00     0.164 HD
ENDBRANCH  26  27
ENDBRANCH  10  26
TORSDOF 4
ENDMDL
MODEL 2
REMARK VINA RESULT: -7.016465115      1.692      2.724
REMARK  4 active torsions:
REMARK  status: ('A' for Active; 'I' for Inactive)
REMARK    1  A    between atoms: N2_4  and  N3_6 
REMARK       I    between atoms: N3_6  and  C1_8 
REMARK       I    between atoms: C1_8  and  N5_12 
REMARK    2  A    between atoms: N5_12  and  C2_14 
REMARK    3  A    between atoms: C4_23  and  C5_24 
REMARK    4  A    between atoms: C5_24  and  C6_25 
ROOT
HETATM    1  C2  UNL     1      32.676  52.173   8.623  1.00  0.00     0.156 A 
HETATM    2  N6  UNL     1      33.069  53.413   8.867  1.00  0.00    -0.175 N 
ATOM      3  H6  UNL     1      33.634  53.886   8.162  1.00  0.00     0.186 HD
HETATM    4  C3  UNL     1      32.764  54.082   9.990  1.00  0.00     0.677 A 
HETATM    5  N7  UNL     1      33.145  55.288  10.233  1.00  0.00    -0.234 N 
ATOM      6  H71 UNL     1      32.913  55.797  11.086  1.00  0.00     0.174 HD
ATOM      7  H72 UNL     1      33.712  55.790   9.549  1.00  0.00     0.174 HD
HETATM    8  N8  UNL     1      32.004  53.409  10.906  1.00  0.00    -0.194 N 
ATOM      9  H8  UNL     1      31.752  53.886  11.772  1.00  0.00     0.184 HD
HETATM   10  C4  UNL     1      31.576  52.158  10.721  1.00  0.00     0.051 A 
HETATM   11  C9  UNL     1      31.914  51.489   9.535  1.00  0.00     0.080 A 
HETATM   12  S1  UNL     1      31.370  49.802   9.228  1.00  0.00    -0.046 SA
ENDROOT
BRANCH   1  13
HETATM   13  N5  UNL     1      32.971  51.526   7.521  1.00  0.00    -0.174 N 
HETATM   14  C1  UNL     1      32.578  51.988   6.245  1.00  0.00     0.693 C 
HETATM   15  N3  UNL     1      31.278  51.805   5.712  1.00  0.00    -0.118 N 
HETATM   16  N4  UNL     1      33.462  52.613   5.528  1.00  0.00    -0.233 N 
ATOM     17  H3  UNL     1      30.988  52.381   4.922  1.00  0.00     0.207 HD
ATOM     18  H42 UNL     1      33.178  52.946   4.606  1.00  0.00     0.174 HD
ATOM     19  H41 UNL     1      34.398  52.744   5.912  1.00  0.00     0.174 HD
ATOM     20  H5  UNL     1      33.503  50.659   7.588  1.00  0.00     0.186 HD
BRANCH  15  21
HETATM   21  N2  UNL     1      30.374  50.867   6.224  1.00  0.00    -0.235 N 
HETATM   22  N1  UNL     1      29.966  49.890   5.502  1.00  0.00    -0.330 N 
ATOM     23  H12 UNL     1      30.314  49.809   4.547  1.00  0.00     0.178 HD
ATOM     24  H11 UNL     1      29.307  49.207   5.875  1.00  0.00     0.178 HD
ATOM     25  H2  UNL     1      30.036  50.962   7.181  1.00  0.00     0.208 HD
ENDBRANCH  15  21
ENDBRANCH   1  13
BRANCH  10  26
HETATM   26  C5  UNL     1      30.753  51.389  11.666  1.00  0.00     0.106 C 
BRANCH  26  27
HETATM   27  C6  UNL     1      29.302  51.770  11.711  1.00  0.00     0.192 A 
HETATM   28  N9  UNL     1      28.975  53.001  11.084  1.00  0.00    -0.343 N 
HETATM   29  C7  UNL     1      28.331  53.982  11.608  1.00  0.00     0.192 A 
ATOM     30  H9  UNL     1      29.283  53.119  10.119  1.00  0.00     0.164 HD
HETATM   31  N10 UNL     1      28.118  55.121  10.792  1.00  0.00    -0.063 NA
HETATM   32  N11 UNL     1      27.846  53.930  12.953  1.00  0.00    -0.305 N 
HETATM   33  C8  UNL     1      28.092  52.840  13.612  1.00  0.00     0.192 A 
ATOM     34  H11 UNL     1      27.336  54.707  13.370  1.00  0.00     0.171 HD
HETATM   35  N12 UNL     1      27.636  52.711  14.976  1.00  0.00    -0.063 NA
HETATM   36  N13 UNL     1      28.786  51.743  13.061  1.00  0.00    -0.343 N 
ATOM     37  H13 UNL     1      28.928  50.909  13.631  1.00  0.00     0.164 HD
ENDBRANCH  26  27
ENDBRANCH  10  26
TORSDOF 4
ENDMDL
MODEL 3
REMARK VINA RESULT: -6.994140263      1.722      5.998
REMARK  4 active torsions:
REMARK  status: ('A' for Active; 'I' for Inactive)
REMARK    1  A    between atoms: N2_4  and  N3_6 
REMARK       I    between atoms: N3_6  and  C1_8 
REMARK       I    between atoms: C1_8  and  N5_12 
REMARK    2  A    between atoms: N5_12  and  C2_14 
REMARK    3  A    between atoms: C4_23  and  C5_24 
REMARK    4  A    between atoms: C5_24  and  C6_25 
ROOT
HETATM    1  C2  UNL     1      30.827  53.132  10.974  1.00  0.00     0.156 A 
HETATM    2  N6  UNL     1      31.313  54.358  11.079  1.00  0.00    -0.175 N 
ATOM      3  H6  UNL     1      30.846  55.009  11.709  1.00  0.00     0.186 HD
HETATM    4  C3  UNL     1      32.388  54.793  10.401  1.00  0.00     0.677 A 
HETATM    5  N7  UNL     1      32.864  55.985  10.497  1.00  0.00    -0.234 N 
ATOM      6  H71 UNL     1      33.680  56.316   9.982  1.00  0.00     0.174 HD
ATOM      7  H72 UNL     1      32.420  56.662  11.119  1.00  0.00     0.174 HD
HETATM    8  N8  UNL     1      32.982  53.886   9.567  1.00  0.00    -0.194 N 
ATOM      9  H8  UNL     1      33.802  54.180   9.035  1.00  0.00     0.184 HD
HETATM   10  C4  UNL     1      32.541  52.635   9.416  1.00  0.00     0.051 A 
HETATM   11  C9  UNL     1      31.415  52.216  10.142  1.00  0.00     0.080 A 
HETATM   12  S1  UNL     1      30.772  50.543   9.981  1.00  0.00    -0.046 SA
ENDROOT
BRANCH   1  13
HETATM   13  N5  UNL     1      29.782  52.711  11.644  1.00  0.00    -0.174 N 
HETATM   14  C1  UNL     1      29.425  53.245  12.903  1.00  0.00     0.693 C 
HETATM   15  N3  UNL     1      30.049  52.868  14.119  1.00  0.00    -0.118 N 
HETATM   16  N4  UNL     1      28.474  54.128  12.940  1.00  0.00    -0.233 N 
ATOM     17  H3  UNL     1      29.933  53.470  14.934  1.00  0.00     0.207 HD
ATOM     18  H42 UNL     1      28.216  54.514  13.848  1.00  0.00     0.174 HD
ATOM     19  H41 UNL     1      28.026  54.399  12.064  1.00  0.00     0.174 HD
ATOM     20  H5  UNL     1      29.206  51.972  11.243  1.00  0.00     0.186 HD
BRANCH  15  21
HETATM   21  N2  UNL     1      30.815  51.704  14.249  1.00  0.00    -0.235 N 
HETATM   22  N1  UNL     1      30.252  50.557  14.340  1.00  0.00    -0.330 N 
ATOM     23  H12 UNL     1      29.233  50.509  14.315  1.00  0.00     0.178 HD
ATOM     24  H11 UNL     1      30.810  49.709  14.434  1.00  0.00     0.178 HD
ATOM     25  H2  UNL     1      31.832  51.770  14.271  1.00  0.00     0.208 HD
ENDBRANCH  15  21
ENDBRANCH   1  13
BRANCH  10  26
HETATM   26  C5  UNL     1      33.143  51.617   8.542  1.00  0.00     0.106 C 
BRANCH  26  27
HETATM   27  C6  UNL     1      32.515  51.482   7.186  1.00  0.00     0.192 A 
HETATM   28  N9  UNL     1      31.311  52.210   6.996  1.00  0.00    -0.343 N 
HETATM   29  C7  UNL     1      30.189  51.742   6.580  1.00  0.00     0.192 A 
ATOM     30  H9  UNL     1      31.340  53.206   7.213  1.00  0.00     0.164 HD
HETATM   31  N10 UNL     1      29.113  52.657   6.466  1.00  0.00    -0.063 NA
HETATM   32  N11 UNL     1      30.030  50.362   6.242  1.00  0.00    -0.305 N 
HETATM   33  C8  UNL     1      31.078  49.610   6.379  1.00  0.00     0.192 A 
ATOM     34  H11 UNL     1      29.140  49.988   5.913  1.00  0.00     0.171 HD
HETATM   35  N12 UNL     1      30.997  48.205   6.059  1.00  0.00    -0.063 NA
HETATM   36  N13 UNL     1      32.325  50.097   6.822  1.00  0.00    -0.343 N 
ATOM     37  H13 UNL     1      33.114  49.453   6.889  1.00  0.00     0.164 HD
ENDBRANCH  26  27
ENDBRANCH  10  26
TORSDOF 4
ENDMDL
MODEL 4
REMARK VINA RESULT: -6.944582071      1.638      6.369
REMARK  4 active torsions:
REMARK  status: ('A' for Active; 'I' for Inactive)
REMARK    1  A    between atoms: N2_4  and  N3_6 
REMARK       I    between atoms: N3_6  and  C1_8 
REMARK       I    between atoms: C1_8  and  N5_12 
REMARK    2  A    between atoms: N5_12  and  C2_14 
REMARK    3  A    between atoms: C4_23  and  C5_24 
REMARK    4  A    between atoms: C5_24  and  C6_25 
ROOT
HETATM    1  C2  UNL     1      30.694  53.688  11.123  1.00  0.00     0.156 A 
HETATM    2  N6  UNL     1      31.767  54.371  10.760  1.00  0.00    -0.175 N 
ATOM      3  H6  UNL     1      31.857  55.334  11.082  1.00  0.00     0.186 HD
HETATM    4  C3  UNL     1      32.744  53.867   9.989  1.00  0.00     0.677 A 
HETATM    5  N7  UNL     1      33.789  54.528   9.630  1.00  0.00    -0.234 N 
ATOM      6  H71 UNL     1      34.532  54.145   9.045  1.00  0.00     0.174 HD
ATOM      7  H72 UNL     1      33.910  55.493   9.935  1.00  0.00     0.174 HD
HETATM    8  N8  UNL     1      32.582  52.572   9.579  1.00  0.00    -0.194 N 
ATOM      9  H8  UNL     1      33.304  52.154   8.993  1.00  0.00     0.184 HD
HETATM   10  C4  UNL     1      31.523  51.829   9.912  1.00  0.00     0.051 A 
HETATM   11  C9  UNL     1      30.521  52.390  10.719  1.00  0.00     0.080 A 
HETATM   12  S1  UNL     1      29.071  51.440  11.199  1.00  0.00    -0.046 SA
ENDROOT
BRANCH   1  13
HETATM   13  N5  UNL     1      29.747  54.183  11.882  1.00  0.00    -0.174 N 
HETATM   14  C1  UNL     1      30.006  54.714  13.166  1.00  0.00     0.693 C 
HETATM   15  N3  UNL     1      30.175  53.915  14.324  1.00  0.00    -0.118 N 
HETATM   16  N4  UNL     1      30.091  56.005  13.283  1.00  0.00    -0.233 N 
ATOM     17  H3  UNL     1      30.614  54.332  15.145  1.00  0.00     0.207 HD
ATOM     18  H42 UNL     1      30.278  56.388  14.209  1.00  0.00     0.174 HD
ATOM     19  H41 UNL     1      29.969  56.579  12.449  1.00  0.00     0.174 HD
ATOM     20  H5  UNL     1      28.789  54.186  11.533  1.00  0.00     0.186 HD
BRANCH  15  21
HETATM   21  N2  UNL     1      29.765  52.579  14.390  1.00  0.00    -0.235 N 
HETATM   22  N1  UNL     1      30.625  51.629  14.398  1.00  0.00    -0.330 N 
ATOM     23  H12 UNL     1      31.616  51.867  14.355  1.00  0.00     0.178 HD
ATOM     24  H11 UNL     1      30.325  50.656  14.445  1.00  0.00     0.178 HD
ATOM     25  H2  UNL     1      28.770  52.358  14.431  1.00  0.00     0.208 HD
ENDBRANCH  15  21
ENDBRANCH   1  13
BRANCH  10  26
HETATM   26  C5  UNL     1      31.299  50.433   9.508  1.00  0.00     0.106 C 
BRANCH  26  27
HETATM   27  C6  UNL     1      31.928  50.033   8.204  1.00  0.00     0.192 A 
HETATM   28  N9  UNL     1      32.620  51.065   7.519  1.00  0.00    -0.343 N 
HETATM   29  C7  UNL     1      32.443  51.428   6.299  1.00  0.00     0.192 A 
ATOM     30  H9  UNL     1      33.331  51.569   8.049  1.00  0.00     0.164 HD
HETATM   31  N10 UNL     1      33.252  52.490   5.821  1.00  0.00    -0.063 NA
HETATM   32  N11 UNL     1      31.478  50.792   5.458  1.00  0.00    -0.305 N 
HETATM   33  C8  UNL     1      30.793  49.829   5.993  1.00  0.00     0.192 A 
ATOM     34  H11 UNL     1      31.335  51.079   4.490  1.00  0.00     0.171 HD
HETATM   35  N12 UNL     1      29.798  49.137   5.208  1.00  0.00    -0.063 NA
HETATM   36  N13 UNL     1      30.972  49.400   7.325  1.00  0.00    -0.343 N 
ATOM     37  H13 UNL     1      30.411  48.623   7.676  1.00  0.00     0.164 HD
ENDBRANCH  26  27
ENDBRANCH  10  26
TORSDOF 4
ENDMDL
MODEL 5
REMARK VINA RESULT: -6.831668855      1.738      2.313
REMARK  4 active torsions:
REMARK  status: ('A' for Active; 'I' for Inactive)
REMARK    1  A    between atoms: N2_4  and  N3_6 
REMARK       I    between atoms: N3_6  and  C1_8 
REMARK       I    between atoms: C1_8  and  N5_12 
REMARK    2  A    between atoms: N5_12  and  C2_14 
REMARK    3  A    between atoms: C4_23  and  C5_24 
REMARK    4  A    between atoms: C5_24  and  C6_25 
ROOT
HETATM    1  C2  UNL     1      30.761  51.623   9.063  1.00  0.00     0.156 A 
HETATM    2  N6  UNL     1      32.046  51.376   8.862  1.00  0.00    -0.175 N 
ATOM      3  H6  UNL     1      32.299  50.687   8.155  1.00  0.00     0.186 HD
HETATM    4  C3  UNL     1      33.034  51.984   9.538  1.00  0.00     0.677 A 
HETATM    5  N7  UNL     1      34.285  51.746   9.348  1.00  0.00    -0.234 N 
ATOM      6  H71 UNL     1      35.036  52.207   9.862  1.00  0.00     0.174 HD
ATOM      7  H72 UNL     1      34.573  51.062   8.649  1.00  0.00     0.174 HD
HETATM    8  N8  UNL     1      32.648  52.900  10.477  1.00  0.00    -0.194 N 
ATOM      9  H8  UNL     1      33.371  53.383  11.011  1.00  0.00     0.184 HD
HETATM   10  C4  UNL     1      31.370  53.194  10.728  1.00  0.00     0.051 A 
HETATM   11  C9  UNL     1      30.363  52.539  10.001  1.00  0.00     0.080 A 
HETATM   12  S1  UNL     1      28.624  52.890  10.293  1.00  0.00    -0.046 SA
ENDROOT
BRANCH   1  13
HETATM   13  N5  UNL     1      29.801  51.032   8.394  1.00  0.00    -0.174 N 
HETATM   14  C1  UNL     1      29.780  50.984   6.982  1.00  0.00     0.693 C 
HETATM   15  N3  UNL     1      29.348  52.061   6.168  1.00  0.00    -0.118 N 
HETATM   16  N4  UNL     1      30.179  49.891   6.406  1.00  0.00    -0.233 N 
ATOM     17  H3  UNL     1      29.605  52.062   5.181  1.00  0.00     0.207 HD
ATOM     18  H42 UNL     1      30.165  49.857   5.387  1.00  0.00     0.174 HD
ATOM     19  H41 UNL     1      30.490  49.116   6.992  1.00  0.00     0.174 HD
ATOM     20  H5  UNL     1      29.041  50.591   8.912  1.00  0.00     0.186 HD
BRANCH  15  21
HETATM   21  N2  UNL     1      28.584  53.125   6.662  1.00  0.00    -0.235 N 
HETATM   22  N1  UNL     1      27.850  53.823   5.877  1.00  0.00    -0.330 N 
ATOM     23  H12 UNL     1      27.835  53.588   4.885  1.00  0.00     0.178 HD
ATOM     24  H11 UNL     1      27.293  54.598   6.237  1.00  0.00     0.178 HD
ATOM     25  H2  UNL     1      28.611  53.346   7.657  1.00  0.00     0.208 HD
ENDBRANCH  15  21
ENDBRANCH   1  13
BRANCH  10  26
HETATM   26  C5  UNL     1      30.897  54.173  11.717  1.00  0.00     0.106 C 
BRANCH  26  27
HETATM   27  C6  UNL     1      30.644  53.626  13.092  1.00  0.00     0.192 A 
HETATM   28  N9  UNL     1      30.958  52.254  13.270  1.00  0.00    -0.343 N 
HETATM   29  C7  UNL     1      30.180  51.342  13.734  1.00  0.00     0.192 A 
ATOM     30  H9  UNL     1      31.897  51.961  13.002  1.00  0.00     0.164 HD
HETATM   31  N10 UNL     1      30.708  50.030  13.823  1.00  0.00    -0.063 NA
HETATM   32  N11 UNL     1      28.842  51.635  14.144  1.00  0.00    -0.305 N 
HETATM   33  C8  UNL     1      28.458  52.868  14.024  1.00  0.00     0.192 A 
ATOM     34  H11 UNL     1      28.222  50.913  14.512  1.00  0.00     0.171 HD
HETATM   35  N12 UNL     1      27.120  53.242  14.418  1.00  0.00    -0.063 NA
HETATM   36  N13 UNL     1      29.292  53.892  13.530  1.00  0.00    -0.343 N 
ATOM     37  H13 UNL     1      28.932  54.845  13.480  1.00  0.00     0.164 HD
ENDBRANCH  26  27
ENDBRANCH  10  26
TORSDOF 4
ENDMDL
