MODEL 1
REMARK VINA RESULT: -6.452324851      0.000      0.000
REMARK  6 active torsions:
REMARK  status: ('A' for Active; 'I' for Inactive)
REMARK    1  A    between atoms: C2_2  and  C3_3 
REMARK    2  A    between atoms: C3_3  and  C4_4 
REMARK    3  A    between atoms: C4_4  and  O2_6 
REMARK    4  A    between atoms: O2_6  and  C5_7 
REMARK    5  A    between atoms: C6_8  and  S1_9 
REMARK    6  A    between atoms: S1_9  and  S2_10 
ROOT
HETATM    1  C5  UNL     1       6.828  66.693  42.951  1.00  0.00     0.162 C 
HETATM    2  C6  UNL     1       8.298  66.677  42.710  1.00  0.00     0.120 C 
HETATM    3  C8  UNL     1       8.596  67.568  41.479  1.00  0.00     0.178 C 
HETATM    4  O3  UNL     1       8.342  66.857  40.299  1.00  0.00    -0.346 OA
HETATM    5  C9  UNL     1       7.723  65.591  40.238  1.00  0.00     0.062 C 
HETATM    6  C10 UNL     1       6.658  65.238  40.985  1.00  0.00     0.057 C 
HETATM    7  C11 UNL     1       6.168  63.898  40.793  1.00  0.00     0.292 C 
HETATM    8  O4  UNL     1       5.193  63.541  41.460  1.00  0.00    -0.259 OA
HETATM    9  O5  UNL     1       6.777  63.034  39.883  1.00  0.00    -0.317 OA
HETATM   10  C12 UNL     1       8.141  63.232  39.502  1.00  0.00     0.185 C 
HETATM   11  C13 UNL     1       8.364  64.683  39.258  1.00  0.00     0.092 C 
HETATM   12  C14 UNL     1       5.951  66.135  41.888  1.00  0.00     0.019 C 
HETATM   13  C15 UNL     1       4.751  65.594  42.599  1.00  0.00     0.023 C 
HETATM   14  C16 UNL     1       5.326  67.156  40.932  1.00  0.00     0.017 C 
HETATM   15  C17 UNL     1       5.074  68.514  41.379  1.00  0.00     0.007 C 
HETATM   16  C18 UNL     1       5.926  69.564  40.639  1.00  0.00     0.014 C 
HETATM   17  C19 UNL     1       5.949  69.271  39.141  1.00  0.00     0.012 C 
HETATM   18  C20 UNL     1       7.252  69.801  41.227  1.00  0.00     0.223 A 
HETATM   19  N1  UNL     1       8.486  69.733  40.494  1.00  0.00    -0.060 N 
ATOM     20  H11 UNL     1       9.224  70.368  40.189  1.00  0.00     0.278 HD
ATOM     21  H12 UNL     1       8.790  69.582  39.532  1.00  0.00     0.278 HD
HETATM   22  C21 UNL     1       8.143  68.887  41.733  1.00  0.00     0.247 A 
ENDROOT
BRANCH   1  23
HETATM   23  O2  UNL     1       6.456  66.173  44.241  1.00  0.00    -0.314 OA
BRANCH  23  24
HETATM   24  C4  UNL     1       5.786  66.892  45.199  1.00  0.00     0.259 C 
HETATM   25  O1  UNL     1       5.118  66.289  46.040  1.00  0.00    -0.265 OA
BRANCH  24  26
HETATM   26  C3  UNL     1       5.857  68.365  45.234  1.00  0.00     0.111 C 
BRANCH  26  27
HETATM   27  C2  UNL     1       4.501  68.993  45.042  1.00  0.00     0.005 C 
HETATM   28  C1  UNL     1       4.744  70.392  44.467  1.00  0.00     0.005 C 
ENDBRANCH  26  27
ENDBRANCH  24  26
ENDBRANCH  23  24
ENDBRANCH   1  23
BRANCH   2  29
HETATM   29  S1  UNL     1       9.319  67.283  44.016  1.00  0.00    -0.088 SA
BRANCH  29  30
HETATM   30  S2  UNL     1      11.372  67.376  43.617  1.00  0.00    -0.102 SA
HETATM   31  C7  UNL     1      11.866  68.860  42.713  1.00  0.00     0.102 C 
ENDBRANCH  29  30
ENDBRANCH   2  29
TORSDOF 6
ENDMDL
MODEL 2
REMARK VINA RESULT: -6.160585895      1.478      1.745
REMARK  6 active torsions:
REMARK  status: ('A' for Active; 'I' for Inactive)
REMARK    1  A    between atoms: C2_2  and  C3_3 
REMARK    2  A    between atoms: C3_3  and  C4_4 
REMARK    3  A    between atoms: C4_4  and  O2_6 
REMARK    4  A    between atoms: O2_6  and  C5_7 
REMARK    5  A    between atoms: C6_8  and  S1_9 
REMARK    6  A    between atoms: S1_9  and  S2_10 
ROOT
HETATM    1  C5  UNL     1       6.062  66.124  42.075  1.00  0.00     0.162 C 
HETATM    2  C6  UNL     1       7.462  66.568  41.827  1.00  0.00     0.120 C 
HETATM    3  C8  UNL     1       7.515  67.239  40.432  1.00  0.00     0.178 C 
HETATM    4  O3  UNL     1       7.593  66.261  39.432  1.00  0.00    -0.346 OA
HETATM    5  C9  UNL     1       7.448  64.875  39.647  1.00  0.00     0.062 C 
HETATM    6  C10 UNL     1       6.521  64.333  40.463  1.00  0.00     0.057 C 
HETATM    7  C11 UNL     1       6.530  62.898  40.564  1.00  0.00     0.292 C 
HETATM    8  O4  UNL     1       5.695  62.368  41.302  1.00  0.00    -0.259 OA
HETATM    9  O5  UNL     1       7.452  62.133  39.850  1.00  0.00    -0.317 OA
HETATM   10  C12 UNL     1       8.689  62.709  39.421  1.00  0.00     0.185 C 
HETATM   11  C13 UNL     1       8.420  64.067  38.873  1.00  0.00     0.092 C 
HETATM   12  C14 UNL     1       5.496  65.094  41.164  1.00  0.00     0.019 C 
HETATM   13  C15 UNL     1       4.510  64.327  41.987  1.00  0.00     0.023 C 
HETATM   14  C16 UNL     1       4.623  65.620  40.021  1.00  0.00     0.017 C 
HETATM   15  C17 UNL     1       3.896  66.867  40.174  1.00  0.00     0.007 C 
HETATM   16  C18 UNL     1       4.384  67.974  39.219  1.00  0.00     0.014 C 
HETATM   17  C19 UNL     1       4.600  67.412  37.817  1.00  0.00     0.012 C 
HETATM   18  C20 UNL     1       5.511  68.769  39.729  1.00  0.00     0.223 A 
HETATM   19  N1  UNL     1       6.738  68.985  39.013  1.00  0.00    -0.060 N 
ATOM     20  H11 UNL     1       7.233  69.761  38.572  1.00  0.00     0.278 HD
ATOM     21  H12 UNL     1       7.134  68.758  38.102  1.00  0.00     0.278 HD
HETATM   22  C21 UNL     1       6.626  68.342  40.406  1.00  0.00     0.247 A 
ENDROOT
BRANCH   1  23
HETATM   23  O2  UNL     1       5.809  65.778  43.450  1.00  0.00    -0.314 OA
BRANCH  23  24
HETATM   24  C4  UNL     1       5.087  66.557  44.321  1.00  0.00     0.259 C 
HETATM   25  O1  UNL     1       5.062  66.251  45.513  1.00  0.00    -0.265 OA
BRANCH  24  26
HETATM   26  C3  UNL     1       4.351  67.745  43.849  1.00  0.00     0.111 C 
BRANCH  26  27
HETATM   27  C2  UNL     1       4.861  69.008  44.493  1.00  0.00     0.005 C 
HETATM   28  C1  UNL     1       5.043  70.031  43.367  1.00  0.00     0.005 C 
ENDBRANCH  26  27
ENDBRANCH  24  26
ENDBRANCH  23  24
ENDBRANCH   1  23
BRANCH   2  29
HETATM   29  S1  UNL     1       8.132  67.740  42.964  1.00  0.00    -0.088 SA
BRANCH  29  30
HETATM   30  S2  UNL     1       8.796  66.974  44.795  1.00  0.00    -0.102 SA
HETATM   31  C7  UNL     1      10.480  67.475  45.221  1.00  0.00     0.102 C 
ENDBRANCH  29  30
ENDBRANCH   2  29
TORSDOF 6
ENDMDL
MODEL 3
REMARK VINA RESULT: -5.986956104      2.694      5.616
REMARK  6 active torsions:
REMARK  status: ('A' for Active; 'I' for Inactive)
REMARK    1  A    between atoms: C2_2  and  C3_3 
REMARK    2  A    between atoms: C3_3  and  C4_4 
REMARK    3  A    between atoms: C4_4  and  O2_6 
REMARK    4  A    between atoms: O2_6  and  C5_7 
REMARK    5  A    between atoms: C6_8  and  S1_9 
REMARK    6  A    between atoms: S1_9  and  S2_10 
ROOT
HETATM    1  C5  UNL     1       6.910  67.272  40.846  1.00  0.00     0.162 C 
HETATM    2  C6  UNL     1       7.096  65.931  41.469  1.00  0.00     0.120 C 
HETATM    3  C8  UNL     1       6.234  65.872  42.754  1.00  0.00     0.178 C 
HETATM    4  O3  UNL     1       6.899  66.512  43.808  1.00  0.00    -0.346 OA
HETATM    5  C9  UNL     1       8.083  67.265  43.674  1.00  0.00     0.062 C 
HETATM    6  C10 UNL     1       8.317  68.127  42.664  1.00  0.00     0.057 C 
HETATM    7  C11 UNL     1       9.588  68.801  42.689  1.00  0.00     0.292 C 
HETATM    8  O4  UNL     1       9.835  69.597  41.779  1.00  0.00    -0.259 OA
HETATM    9  O5  UNL     1      10.508  68.560  43.709  1.00  0.00    -0.317 OA
HETATM   10  C12 UNL     1      10.468  67.334  44.443  1.00  0.00     0.185 C 
HETATM   11  C13 UNL     1       9.050  67.018  44.770  1.00  0.00     0.092 C 
HETATM   12  C14 UNL     1       7.352  68.459  41.625  1.00  0.00     0.019 C 
HETATM   13  C15 UNL     1       7.756  69.480  40.609  1.00  0.00     0.023 C 
HETATM   14  C16 UNL     1       6.256  69.194  42.402  1.00  0.00     0.017 C 
HETATM   15  C17 UNL     1       4.882  69.159  41.934  1.00  0.00     0.007 C 
HETATM   16  C18 UNL     1       3.932  68.421  42.897  1.00  0.00     0.014 C 
HETATM   17  C19 UNL     1       4.210  68.832  44.340  1.00  0.00     0.012 C 
HETATM   18  C20 UNL     1       3.857  66.967  42.688  1.00  0.00     0.223 A 
HETATM   19  N1  UNL     1       4.062  65.990  43.721  1.00  0.00    -0.060 N 
ATOM     20  H11 UNL     1       3.514  65.293  44.226  1.00  0.00     0.278 HD
ATOM     21  H12 UNL     1       4.238  65.973  44.726  1.00  0.00     0.278 HD
HETATM   22  C21 UNL     1       4.874  66.085  42.418  1.00  0.00     0.247 A 
ENDROOT
BRANCH   1  23
HETATM   23  O2  UNL     1       7.397  67.344  39.493  1.00  0.00    -0.314 OA
BRANCH  23  24
HETATM   24  C4  UNL     1       6.604  67.206  38.380  1.00  0.00     0.259 C 
HETATM   25  O1  UNL     1       7.126  66.884  37.312  1.00  0.00    -0.265 OA
BRANCH  24  26
HETATM   26  C3  UNL     1       5.149  67.436  38.448  1.00  0.00     0.111 C 
BRANCH  26  27
HETATM   27  C2  UNL     1       4.803  68.886  38.233  1.00  0.00     0.005 C 
HETATM   28  C1  UNL     1       4.036  68.962  36.909  1.00  0.00     0.005 C 
ENDBRANCH  26  27
ENDBRANCH  24  26
ENDBRANCH  23  24
ENDBRANCH   1  23
BRANCH   2  29
HETATM   29  S1  UNL     1       6.627  64.536  40.495  1.00  0.00    -0.088 SA
BRANCH  29  30
HETATM   30  S2  UNL     1       8.112  63.732  39.258  1.00  0.00    -0.102 SA
HETATM   31  C7  UNL     1       8.481  61.997  39.604  1.00  0.00     0.102 C 
ENDBRANCH  29  30
ENDBRANCH   2  29
TORSDOF 6
ENDMDL
MODEL 4
REMARK VINA RESULT: -5.837004907      1.679      1.941
REMARK  6 active torsions:
REMARK  status: ('A' for Active; 'I' for Inactive)
REMARK    1  A    between atoms: C2_2  and  C3_3 
REMARK    2  A    between atoms: C3_3  and  C4_4 
REMARK    3  A    between atoms: C4_4  and  O2_6 
REMARK    4  A    between atoms: O2_6  and  C5_7 
REMARK    5  A    between atoms: C6_8  and  S1_9 
REMARK    6  A    between atoms: S1_9  and  S2_10 
ROOT
HETATM    1  C5  UNL     1       6.128  66.044  42.087  1.00  0.00     0.162 C 
HETATM    2  C6  UNL     1       7.484  65.922  41.482  1.00  0.00     0.120 C 
HETATM    3  C8  UNL     1       7.390  66.347  39.996  1.00  0.00     0.178 C 
HETATM    4  O3  UNL     1       6.893  65.289  39.224  1.00  0.00    -0.346 OA
HETATM    5  C9  UNL     1       6.373  64.087  39.746  1.00  0.00     0.062 C 
HETATM    6  C10 UNL     1       5.564  64.021  40.822  1.00  0.00     0.057 C 
HETATM    7  C11 UNL     1       5.139  62.703  41.214  1.00  0.00     0.292 C 
HETATM    8  O4  UNL     1       4.397  62.606  42.195  1.00  0.00    -0.259 OA
HETATM    9  O5  UNL     1       5.554  61.575  40.506  1.00  0.00    -0.317 OA
HETATM   10  C12 UNL     1       6.757  61.610  39.733  1.00  0.00     0.185 C 
HETATM   11  C13 UNL     1       6.804  62.893  38.980  1.00  0.00     0.092 C 
HETATM   12  C14 UNL     1       5.050  65.180  41.538  1.00  0.00     0.019 C 
HETATM   13  C15 UNL     1       4.116  64.928  42.679  1.00  0.00     0.023 C 
HETATM   14  C16 UNL     1       4.129  65.836  40.506  1.00  0.00     0.017 C 
HETATM   15  C17 UNL     1       3.903  67.270  40.537  1.00  0.00     0.007 C 
HETATM   16  C18 UNL     1       4.457  67.998  39.297  1.00  0.00     0.014 C 
HETATM   17  C19 UNL     1       4.115  67.224  38.027  1.00  0.00     0.012 C 
HETATM   18  C20 UNL     1       5.869  68.394  39.401  1.00  0.00     0.223 A 
HETATM   19  N1  UNL     1       6.875  68.063  38.428  1.00  0.00    -0.060 N 
ATOM     20  H11 UNL     1       7.461  68.548  37.748  1.00  0.00     0.278 HD
ATOM     21  H12 UNL     1       6.931  67.596  37.524  1.00  0.00     0.278 HD
HETATM   22  C21 UNL     1       6.924  67.684  39.918  1.00  0.00     0.247 A 
ENDROOT
BRANCH   1  23
HETATM   23  O2  UNL     1       6.139  65.989  43.526  1.00  0.00    -0.314 OA
BRANCH  23  24
HETATM   24  C4  UNL     1       5.792  67.038  44.341  1.00  0.00     0.259 C 
HETATM   25  O1  UNL     1       5.546  66.815  45.528  1.00  0.00    -0.265 OA
BRANCH  24  26
HETATM   26  C3  UNL     1       5.712  68.415  43.819  1.00  0.00     0.111 C 
BRANCH  26  27
HETATM   27  C2  UNL     1       4.298  68.933  43.829  1.00  0.00     0.005 C 
HETATM   28  C1  UNL     1       4.369  70.391  44.297  1.00  0.00     0.005 C 
ENDBRANCH  26  27
ENDBRANCH  24  26
ENDBRANCH  23  24
ENDBRANCH   1  23
BRANCH   2  29
HETATM   29  S1  UNL     1       8.760  66.909  42.198  1.00  0.00    -0.088 SA
BRANCH  29  30
HETATM   30  S2  UNL     1      10.609  66.882  41.217  1.00  0.00    -0.102 SA
HETATM   31  C7  UNL     1      12.024  66.955  42.339  1.00  0.00     0.102 C 
ENDBRANCH  29  30
ENDBRANCH   2  29
TORSDOF 6
ENDMDL
MODEL 5
REMARK VINA RESULT: -5.684437826      2.854      5.628
REMARK  6 active torsions:
REMARK  status: ('A' for Active; 'I' for Inactive)
REMARK    1  A    between atoms: C2_2  and  C3_3 
REMARK    2  A    between atoms: C3_3  and  C4_4 
REMARK    3  A    between atoms: C4_4  and  O2_6 
REMARK    4  A    between atoms: O2_6  and  C5_7 
REMARK    5  A    between atoms: C6_8  and  S1_9 
REMARK    6  A    between atoms: S1_9  and  S2_10 
ROOT
HETATM    1  C5  UNL     1       5.880  67.534  41.388  1.00  0.00     0.162 C 
HETATM    2  C6  UNL     1       6.259  66.154  41.801  1.00  0.00     0.120 C 
HETATM    3  C8  UNL     1       5.918  65.988  43.302  1.00  0.00     0.178 C 
HETATM    4  O3  UNL     1       6.928  66.557  44.090  1.00  0.00    -0.346 OA
HETATM    5  C9  UNL     1       7.994  67.335  43.594  1.00  0.00     0.062 C 
HETATM    6  C10 UNL     1       7.859  68.272  42.634  1.00  0.00     0.057 C 
HETATM    7  C11 UNL     1       9.063  68.961  42.249  1.00  0.00     0.292 C 
HETATM    8  O4  UNL     1       8.976  69.825  41.373  1.00  0.00    -0.259 OA
HETATM    9  O5  UNL     1      10.285  68.658  42.848  1.00  0.00    -0.317 OA
HETATM   10  C12 UNL     1      10.496  67.380  43.454  1.00  0.00     0.185 C 
HETATM   11  C13 UNL     1       9.288  67.021  44.246  1.00  0.00     0.092 C 
HETATM   12  C14 UNL     1       6.589  68.667  42.041  1.00  0.00     0.019 C 
HETATM   13  C15 UNL     1       6.613  69.765  41.026  1.00  0.00     0.023 C 
HETATM   14  C16 UNL     1       5.857  69.326  43.213  1.00  0.00     0.017 C 
HETATM   15  C17 UNL     1       4.406  69.307  43.271  1.00  0.00     0.007 C 
HETATM   16  C18 UNL     1       3.858  68.486  44.455  1.00  0.00     0.014 C 
HETATM   17  C19 UNL     1       4.643  68.793  45.726  1.00  0.00     0.012 C 
HETATM   18  C20 UNL     1       3.693  67.051  44.179  1.00  0.00     0.223 A 
HETATM   19  N1  UNL     1       4.243  66.003  44.994  1.00  0.00    -0.060 N 
ATOM     20  H11 UNL     1       3.905  65.263  45.608  1.00  0.00     0.278 HD
ATOM     21  H12 UNL     1       4.769  65.915  45.863  1.00  0.00     0.278 HD
HETATM   22  C21 UNL     1       4.532  66.206  43.496  1.00  0.00     0.247 A 
ENDROOT
BRANCH   1  23
HETATM   23  O2  UNL     1       5.846  67.713  39.960  1.00  0.00    -0.314 OA
BRANCH  23  24
HETATM   24  C4  UNL     1       4.710  68.004  39.245  1.00  0.00     0.259 C 
HETATM   25  O1  UNL     1       3.639  67.514  39.603  1.00  0.00    -0.265 OA
BRANCH  24  26
HETATM   26  C3  UNL     1       4.758  68.890  38.067  1.00  0.00     0.111 C 
BRANCH  26  27
HETATM   27  C2  UNL     1       3.992  68.312  36.905  1.00  0.00     0.005 C 
HETATM   28  C1  UNL     1       3.630  69.488  35.991  1.00  0.00     0.005 C 
ENDBRANCH  26  27
ENDBRANCH  24  26
ENDBRANCH  23  24
ENDBRANCH   1  23
BRANCH   2  29
HETATM   29  S1  UNL     1       5.451  64.828  40.961  1.00  0.00    -0.088 SA
BRANCH  29  30
HETATM   30  S2  UNL     1       6.688  63.527  39.884  1.00  0.00    -0.102 SA
HETATM   31  C7  UNL     1       8.178  64.318  39.234  1.00  0.00     0.102 C 
ENDBRANCH  29  30
ENDBRANCH   2  29
TORSDOF 6
ENDMDL
