MODEL 1
REMARK VINA RESULT: -3.284612780      0.000      0.000
REMARK  8 active torsions:
REMARK  status: ('A' for Active; 'I' for Inactive)
REMARK    1  A    between atoms: N1_1  and  C1_4 
REMARK    2  A    between atoms: C3_10  and  N4_11 
REMARK    3  A    between atoms: N5_14  and  C4_15 
REMARK    4  A    between atoms: C7_19  and  C8_20 
REMARK    5  A    between atoms: C8_20  and  N6_21 
REMARK    6  A    between atoms: C8_20  and  C9_25 
REMARK    7  A    between atoms: C10_31  and  O5_32 
REMARK    8  A    between atoms: C11_34  and  O6_35 
ROOT
HETATM    1  C4  UNL     1      17.552  50.025   9.807  1.00  0.00     0.162 C 
HETATM    2  C5  UNL     1      17.628  51.511   9.424  1.00  0.00     0.076 C 
HETATM    3  C6  UNL     1      17.832  51.030   8.006  1.00  0.00     0.144 C 
HETATM    4  O2  UNL     1      18.655  51.778   7.215  1.00  0.00    -0.338 OA
HETATM    5  C7  UNL     1      17.866  52.857   6.856  1.00  0.00     0.366 C 
HETATM    6  N7  UNL     1      16.507  52.351   6.702  1.00  0.00    -0.017 N 
ATOM      7  H71 UNL     1      16.144  52.424   5.752  1.00  0.00     0.283 HD
ATOM      8  H72 UNL     1      15.797  52.935   7.144  1.00  0.00     0.283 HD
HETATM    9  C10 UNL     1      16.550  50.974   7.218  1.00  0.00     0.359 C 
HETATM   10  C11 UNL     1      18.342  49.743   8.546  1.00  0.00     0.182 C 
ENDROOT
BRANCH   1  11
HETATM   11  N5  UNL     1      18.216  49.732  11.038  1.00  0.00    -0.101 N 
HETATM   12  C3  UNL     1      18.202  48.569  11.684  1.00  0.00     0.719 A 
HETATM   13  N3  UNL     1      18.938  48.650  12.818  1.00  0.00     0.080 N 
HETATM   14  C2  UNL     1      19.272  47.829  13.822  1.00  0.00     0.376 A 
HETATM   15  C12 UNL     1      19.401  49.910  12.834  1.00  0.00     0.737 A 
HETATM   16  N2  UNL     1      20.040  48.237  14.819  1.00  0.00    -0.140 N 
HETATM   17  O1  UNL     1      18.834  46.648  13.800  1.00  0.00    -0.244 OA
HETATM   18  C1  UNL     1      20.508  49.495  14.846  1.00  0.00     0.694 A 
ATOM     19  H2  UNL     1      20.278  47.591  15.572  1.00  0.00     0.189 HD
HETATM   20  N9  UNL     1      20.189  50.339  13.848  1.00  0.00    -0.020 N 
ATOM     21  H9  UNL     1      20.538  51.298  13.856  1.00  0.00     0.203 HD
HETATM   22  N8  UNL     1      18.954  50.573  11.738  1.00  0.00    -0.113 N 
ATOM     23  H8  UNL     1      19.152  51.544  11.499  1.00  0.00     0.206 HD
BRANCH  12  24
HETATM   24  N4  UNL     1      17.600  47.478  11.346  1.00  0.00    -0.232 N 
ATOM     25  H42 UNL     1      17.638  46.569  11.809  1.00  0.00     0.174 HD
ATOM     26  H41 UNL     1      16.992  47.435  10.528  1.00  0.00     0.174 HD
ENDBRANCH  12  24
BRANCH  18  27
HETATM   27  N1  UNL     1      21.253  49.838  15.842  1.00  0.00    -0.234 N 
ATOM     28  H12 UNL     1      21.199  49.387  16.755  1.00  0.00     0.174 HD
ATOM     29  H11 UNL     1      21.921  50.596  15.698  1.00  0.00     0.174 HD
ENDBRANCH  18  27
ENDBRANCH   1  11
BRANCH  10  30
HETATM   30  O6  UNL     1      19.722  49.710   8.711  1.00  0.00    -0.390 OA
ATOM     31  H6  UNL     1      20.152  48.941   8.355  1.00  0.00     0.210 HD
ENDBRANCH  10  30
BRANCH   9  32
HETATM   32  O5  UNL     1      16.621  50.132   6.134  1.00  0.00    -0.367 OA
ATOM     33  H5  UNL     1      15.937  49.473   6.129  1.00  0.00     0.212 HD
ENDBRANCH   9  32
BRANCH   5  34
HETATM   34  C8  UNL     1      18.344  53.491   5.556  1.00  0.00     0.339 C 
BRANCH  34  35
HETATM   35  N6  UNL     1      18.315  54.921   5.716  1.00  0.00    -0.061 N 
ATOM     36  H63 UNL     1      17.624  55.226   6.401  1.00  0.00     0.275 HD
ATOM     37  H62 UNL     1      19.145  55.281   6.186  1.00  0.00     0.275 HD
ATOM     38  H61 UNL     1      18.170  55.342   4.798  1.00  0.00     0.275 HD
ENDBRANCH  34  35
BRANCH  34  39
HETATM   39  C9  UNL     1      19.710  53.014   5.236  1.00  0.00     0.209 C 
HETATM   40  O3  UNL     1      20.321  52.182   5.946  1.00  0.00    -0.646 OA
HETATM   41  O4  UNL     1      20.339  53.506   4.104  1.00  0.00    -0.646 OA
ENDBRANCH  34  39
ENDBRANCH   5  34
TORSDOF 8
ENDMDL
MODEL 2
REMARK VINA RESULT: -2.705733850      2.447      7.929
REMARK  8 active torsions:
REMARK  status: ('A' for Active; 'I' for Inactive)
REMARK    1  A    between atoms: N1_1  and  C1_4 
REMARK    2  A    between atoms: C3_10  and  N4_11 
REMARK    3  A    between atoms: N5_14  and  C4_15 
REMARK    4  A    between atoms: C7_19  and  C8_20 
REMARK    5  A    between atoms: C8_20  and  N6_21 
REMARK    6  A    between atoms: C8_20  and  C9_25 
REMARK    7  A    between atoms: C10_31  and  O5_32 
REMARK    8  A    between atoms: C11_34  and  O6_35 
ROOT
HETATM    1  C4  UNL     1      18.062  50.199   8.568  1.00  0.00     0.162 C 
HETATM    2  C5  UNL     1      19.133  49.848   9.613  1.00  0.00     0.076 C 
HETATM    3  C6  UNL     1      18.024  49.948  10.635  1.00  0.00     0.144 C 
HETATM    4  O2  UNL     1      18.363  50.433  11.864  1.00  0.00    -0.338 OA
HETATM    5  C7  UNL     1      18.984  49.358  12.476  1.00  0.00     0.366 C 
HETATM    6  N7  UNL     1      18.290  48.158  12.022  1.00  0.00    -0.017 N 
ATOM      7  H71 UNL     1      17.814  47.650  12.767  1.00  0.00     0.283 HD
ATOM      8  H72 UNL     1      18.915  47.400  11.744  1.00  0.00     0.283 HD
HETATM    9  C10 UNL     1      17.396  48.616  10.948  1.00  0.00     0.359 C 
HETATM   10  C11 UNL     1      17.283  50.835   9.701  1.00  0.00     0.182 C 
ENDROOT
BRANCH   1  11
HETATM   11  N5  UNL     1      18.538  51.092   7.559  1.00  0.00    -0.101 N 
HETATM   12  C3  UNL     1      17.999  52.259   7.220  1.00  0.00     0.719 A 
HETATM   13  N3  UNL     1      18.712  52.837   6.225  1.00  0.00     0.080 N 
HETATM   14  C2  UNL     1      18.645  53.969   5.511  1.00  0.00     0.376 A 
HETATM   15  C12 UNL     1      19.707  51.974   5.973  1.00  0.00     0.737 A 
HETATM   16  N2  UNL     1      19.535  54.244   4.573  1.00  0.00    -0.140 N 
HETATM   17  O1  UNL     1      17.707  54.775   5.754  1.00  0.00    -0.244 OA
HETATM   18  C1  UNL     1      20.536  53.388   4.311  1.00  0.00     0.694 A 
ATOM     19  H2  UNL     1      19.461  55.114   4.044  1.00  0.00     0.189 HD
HETATM   20  N9  UNL     1      20.625  52.244   5.015  1.00  0.00    -0.020 N 
ATOM     21  H9  UNL     1      21.381  51.585   4.827  1.00  0.00     0.203 HD
HETATM   22  N8  UNL     1      19.598  50.900   6.795  1.00  0.00    -0.113 N 
ATOM     23  H8  UNL     1      20.221  50.093   6.819  1.00  0.00     0.206 HD
BRANCH  12  24
HETATM   24  N4  UNL     1      16.951  52.826   7.719  1.00  0.00    -0.232 N 
ATOM     25  H42 UNL     1      16.771  53.823   7.834  1.00  0.00     0.174 HD
ATOM     26  H41 UNL     1      16.161  52.280   8.062  1.00  0.00     0.174 HD
ENDBRANCH  12  24
BRANCH  18  27
HETATM   27  N1  UNL     1      21.375  53.708   3.386  1.00  0.00    -0.234 N 
ATOM     28  H12 UNL     1      21.636  53.073   2.631  1.00  0.00     0.174 HD
ATOM     29  H11 UNL     1      21.791  54.639   3.421  1.00  0.00     0.174 HD
ENDBRANCH  18  27
ENDBRANCH   1  11
BRANCH  10  30
HETATM   30  O6  UNL     1      17.529  52.189   9.897  1.00  0.00    -0.390 OA
ATOM     31  H6  UNL     1      18.444  52.443   9.848  1.00  0.00     0.210 HD
ENDBRANCH  10  30
BRANCH   9  32
HETATM   32  O5  UNL     1      16.135  48.728  11.483  1.00  0.00    -0.367 OA
ATOM     33  H5  UNL     1      15.586  47.976  11.302  1.00  0.00     0.212 HD
ENDBRANCH   9  32
BRANCH   5  34
HETATM   34  C8  UNL     1      18.917  49.463  13.995  1.00  0.00     0.339 C 
BRANCH  34  35
HETATM   35  N6  UNL     1      18.897  48.131  14.538  1.00  0.00    -0.061 N 
ATOM     36  H63 UNL     1      19.831  47.775  14.742  1.00  0.00     0.275 HD
ATOM     37  H62 UNL     1      18.527  48.099  15.487  1.00  0.00     0.275 HD
ATOM     38  H61 UNL     1      18.381  47.532  13.894  1.00  0.00     0.275 HD
ENDBRANCH  34  35
BRANCH  34  39
HETATM   39  C9  UNL     1      20.081  50.231  14.497  1.00  0.00     0.209 C 
HETATM   40  O3  UNL     1      20.005  51.438  14.829  1.00  0.00    -0.646 OA
HETATM   41  O4  UNL     1      21.305  49.591  14.605  1.00  0.00    -0.646 OA
ENDBRANCH  34  39
ENDBRANCH   5  34
TORSDOF 8
ENDMDL
MODEL 3
REMARK VINA RESULT: -2.528578437      1.114      1.226
REMARK  8 active torsions:
REMARK  status: ('A' for Active; 'I' for Inactive)
REMARK    1  A    between atoms: N1_1  and  C1_4 
REMARK    2  A    between atoms: C3_10  and  N4_11 
REMARK    3  A    between atoms: N5_14  and  C4_15 
REMARK    4  A    between atoms: C7_19  and  C8_20 
REMARK    5  A    between atoms: C8_20  and  N6_21 
REMARK    6  A    between atoms: C8_20  and  C9_25 
REMARK    7  A    between atoms: C10_31  and  O5_32 
REMARK    8  A    between atoms: C11_34  and  O6_35 
ROOT
HETATM    1  C4  UNL     1      17.903  49.829  10.305  1.00  0.00     0.162 C 
HETATM    2  C5  UNL     1      17.549  51.276   9.929  1.00  0.00     0.076 C 
HETATM    3  C6  UNL     1      17.910  50.889   8.513  1.00  0.00     0.144 C 
HETATM    4  O2  UNL     1      18.494  51.853   7.743  1.00  0.00    -0.338 OA
HETATM    5  C7  UNL     1      17.431  52.658   7.372  1.00  0.00     0.366 C 
HETATM    6  N7  UNL     1      16.282  51.779   7.188  1.00  0.00    -0.017 N 
ATOM      7  H71 UNL     1      15.931  51.753   6.231  1.00  0.00     0.283 HD
ATOM      8  H72 UNL     1      15.424  52.126   7.618  1.00  0.00     0.283 HD
HETATM    9  C10 UNL     1      16.716  50.470   7.699  1.00  0.00     0.359 C 
HETATM   10  C11 UNL     1      18.765  49.802   9.059  1.00  0.00     0.182 C 
ENDROOT
BRANCH   1  11
HETATM   11  N5  UNL     1      18.600  49.730  11.548  1.00  0.00    -0.101 N 
HETATM   12  C3  UNL     1      19.413  48.745  11.921  1.00  0.00     0.719 A 
HETATM   13  N3  UNL     1      19.899  48.979  13.163  1.00  0.00     0.080 N 
HETATM   14  C2  UNL     1      20.726  48.360  14.017  1.00  0.00     0.376 A 
HETATM   15  C12 UNL     1      19.349  50.147  13.530  1.00  0.00     0.737 A 
HETATM   16  N2  UNL     1      21.004  48.877  15.202  1.00  0.00    -0.140 N 
HETATM   17  O1  UNL     1      21.238  47.264  13.665  1.00  0.00    -0.244 OA
HETATM   18  C1  UNL     1      20.460  50.045  15.580  1.00  0.00     0.694 A 
ATOM     19  H2  UNL     1      21.637  48.385  15.833  1.00  0.00     0.189 HD
HETATM   20  N9  UNL     1      19.627  50.686  14.741  1.00  0.00    -0.020 N 
ATOM     21  H9  UNL     1      19.206  51.574  15.015  1.00  0.00     0.203 HD
HETATM   22  N8  UNL     1      18.550  50.606  12.534  1.00  0.00    -0.113 N 
ATOM     23  H8  UNL     1      18.010  51.471  12.546  1.00  0.00     0.206 HD
BRANCH  12  24
HETATM   24  N4  UNL     1      19.740  47.689  11.255  1.00  0.00    -0.232 N 
ATOM     25  H42 UNL     1      19.130  47.062  10.730  1.00  0.00     0.174 HD
ATOM     26  H41 UNL     1      20.708  47.373  11.196  1.00  0.00     0.174 HD
ENDBRANCH  12  24
BRANCH  18  27
HETATM   27  N1  UNL     1      20.767  50.502  16.747  1.00  0.00    -0.234 N 
ATOM     28  H12 UNL     1      21.146  49.914  17.489  1.00  0.00     0.174 HD
ATOM     29  H11 UNL     1      20.618  51.496  16.923  1.00  0.00     0.174 HD
ENDBRANCH  18  27
ENDBRANCH   1  11
BRANCH  10  30
HETATM   30  O6  UNL     1      20.090  50.173   9.252  1.00  0.00    -0.390 OA
ATOM     31  H6  UNL     1      20.271  50.607  10.078  1.00  0.00     0.210 HD
ENDBRANCH  10  30
BRANCH   9  32
HETATM   32  O5  UNL     1      17.050  49.696   6.613  1.00  0.00    -0.367 OA
ATOM     33  H5  UNL     1      16.552  48.889   6.565  1.00  0.00     0.212 HD
ENDBRANCH   9  32
BRANCH   5  34
HETATM   34  C8  UNL     1      17.727  53.417   6.085  1.00  0.00     0.339 C 
BRANCH  34  35
HETATM   35  N6  UNL     1      18.123  54.756   6.433  1.00  0.00    -0.061 N 
ATOM     36  H63 UNL     1      19.103  54.944   6.221  1.00  0.00     0.275 HD
ATOM     37  H62 UNL     1      17.712  55.459   5.819  1.00  0.00     0.275 HD
ATOM     38  H61 UNL     1      17.896  54.911   7.415  1.00  0.00     0.275 HD
ENDBRANCH  34  35
BRANCH  34  39
HETATM   39  C9  UNL     1      18.792  52.722   5.324  1.00  0.00     0.209 C 
HETATM   40  O3  UNL     1      19.812  53.311   4.894  1.00  0.00    -0.646 OA
HETATM   41  O4  UNL     1      18.658  51.366   5.078  1.00  0.00    -0.646 OA
ENDBRANCH  34  39
ENDBRANCH   5  34
TORSDOF 8
ENDMDL
MODEL 4
REMARK VINA RESULT: -2.189905991      2.111      8.059
REMARK  8 active torsions:
REMARK  status: ('A' for Active; 'I' for Inactive)
REMARK    1  A    between atoms: N1_1  and  C1_4 
REMARK    2  A    between atoms: C3_10  and  N4_11 
REMARK    3  A    between atoms: N5_14  and  C4_15 
REMARK    4  A    between atoms: C7_19  and  C8_20 
REMARK    5  A    between atoms: C8_20  and  N6_21 
REMARK    6  A    between atoms: C8_20  and  C9_25 
REMARK    7  A    between atoms: C10_31  and  O5_32 
REMARK    8  A    between atoms: C11_34  and  O6_35 
ROOT
HETATM    1  C4  UNL     1      18.027  50.379   8.338  1.00  0.00     0.162 C 
HETATM    2  C5  UNL     1      19.134  49.818   9.244  1.00  0.00     0.076 C 
HETATM    3  C6  UNL     1      18.144  49.969  10.376  1.00  0.00     0.144 C 
HETATM    4  O2  UNL     1      18.652  50.309  11.596  1.00  0.00    -0.338 OA
HETATM    5  C7  UNL     1      19.183  49.121  12.067  1.00  0.00     0.366 C 
HETATM    6  N7  UNL     1      18.304  48.053  11.603  1.00  0.00    -0.017 N 
ATOM      7  H71 UNL     1      17.836  47.548  12.355  1.00  0.00     0.283 HD
ATOM      8  H72 UNL     1      18.799  47.252  11.213  1.00  0.00     0.283 HD
HETATM    9  C10 UNL     1      17.382  48.702  10.658  1.00  0.00     0.359 C 
HETATM   10  C11 UNL     1      17.441  51.011   9.584  1.00  0.00     0.182 C 
ENDROOT
BRANCH   1  11
HETATM   11  N5  UNL     1      18.520  51.287   7.351  1.00  0.00    -0.101 N 
HETATM   12  C3  UNL     1      18.011  52.478   7.050  1.00  0.00     0.719 A 
HETATM   13  N3  UNL     1      18.732  53.064   6.064  1.00  0.00     0.080 N 
HETATM   14  C2  UNL     1      18.692  54.218   5.384  1.00  0.00     0.376 A 
HETATM   15  C12 UNL     1      19.700  52.180   5.778  1.00  0.00     0.737 A 
HETATM   16  N2  UNL     1      19.581  54.494   4.446  1.00  0.00    -0.140 N 
HETATM   17  O1  UNL     1      17.780  55.043   5.658  1.00  0.00    -0.244 OA
HETATM   18  C1  UNL     1      20.555  53.617   4.151  1.00  0.00     0.694 A 
ATOM     19  H2  UNL     1      19.528  55.380   3.942  1.00  0.00     0.189 HD
HETATM   20  N9  UNL     1      20.617  52.452   4.820  1.00  0.00    -0.020 N 
ATOM     21  H9  UNL     1      21.351  51.777   4.607  1.00  0.00     0.203 HD
HETATM   22  N8  UNL     1      19.567  51.087   6.571  1.00  0.00    -0.113 N 
ATOM     23  H8  UNL     1      20.166  50.262   6.566  1.00  0.00     0.206 HD
BRANCH  12  24
HETATM   24  N4  UNL     1      16.984  53.060   7.574  1.00  0.00    -0.232 N 
ATOM     25  H42 UNL     1      16.278  53.629   7.107  1.00  0.00     0.174 HD
ATOM     26  H41 UNL     1      16.784  52.992   8.572  1.00  0.00     0.174 HD
ENDBRANCH  12  24
BRANCH  18  27
HETATM   27  N1  UNL     1      21.395  53.939   3.226  1.00  0.00    -0.234 N 
ATOM     28  H12 UNL     1      21.363  54.833   2.737  1.00  0.00     0.174 HD
ATOM     29  H11 UNL     1      22.118  53.262   2.983  1.00  0.00     0.174 HD
ENDBRANCH  18  27
ENDBRANCH   1  11
BRANCH  10  30
HETATM   30  O6  UNL     1      17.874  52.305   9.847  1.00  0.00    -0.390 OA
ATOM     31  H6  UNL     1      17.591  52.663  10.681  1.00  0.00     0.210 HD
ENDBRANCH  10  30
BRANCH   9  32
HETATM   32  O5  UNL     1      16.199  48.921  11.323  1.00  0.00    -0.367 OA
ATOM     33  H5  UNL     1      15.539  48.266  11.134  1.00  0.00     0.212 HD
ENDBRANCH   9  32
BRANCH   5  34
HETATM   34  C8  UNL     1      19.268  49.111  13.589  1.00  0.00     0.339 C 
BRANCH  34  35
HETATM   35  N6  UNL     1      18.527  50.239  14.088  1.00  0.00    -0.061 N 
ATOM     36  H63 UNL     1      18.620  50.355  15.097  1.00  0.00     0.275 HD
ATOM     37  H62 UNL     1      18.934  51.131  13.809  1.00  0.00     0.275 HD
ATOM     38  H61 UNL     1      17.557  50.139  13.792  1.00  0.00     0.275 HD
ENDBRANCH  34  35
BRANCH  34  39
HETATM   39  C9  UNL     1      18.726  47.836  14.114  1.00  0.00     0.209 C 
HETATM   40  O3  UNL     1      17.628  47.763  14.715  1.00  0.00    -0.646 OA
HETATM   41  O4  UNL     1      19.461  46.675  13.936  1.00  0.00    -0.646 OA
ENDBRANCH  34  39
ENDBRANCH   5  34
TORSDOF 8
ENDMDL
MODEL 5
REMARK VINA RESULT: -1.922104332      2.298      7.942
REMARK  8 active torsions:
REMARK  status: ('A' for Active; 'I' for Inactive)
REMARK    1  A    between atoms: N1_1  and  C1_4 
REMARK    2  A    between atoms: C3_10  and  N4_11 
REMARK    3  A    between atoms: N5_14  and  C4_15 
REMARK    4  A    between atoms: C7_19  and  C8_20 
REMARK    5  A    between atoms: C8_20  and  N6_21 
REMARK    6  A    between atoms: C8_20  and  C9_25 
REMARK    7  A    between atoms: C10_31  and  O5_32 
REMARK    8  A    between atoms: C11_34  and  O6_35 
ROOT
HETATM    1  C4  UNL     1      18.654  49.616   8.978  1.00  0.00     0.162 C 
HETATM    2  C5  UNL     1      19.985  49.321   9.685  1.00  0.00     0.076 C 
HETATM    3  C6  UNL     1      19.163  49.140  10.940  1.00  0.00     0.144 C 
HETATM    4  O2  UNL     1      19.737  49.535  12.114  1.00  0.00    -0.338 OA
HETATM    5  C7  UNL     1      20.616  48.507  12.405  1.00  0.00     0.366 C 
HETATM    6  N7  UNL     1      19.982  47.271  11.959  1.00  0.00    -0.017 N 
ATOM      7  H71 UNL     1      19.771  46.619  12.714  1.00  0.00     0.283 HD
ATOM      8  H72 UNL     1      20.604  46.653  11.439  1.00  0.00     0.283 HD
HETATM    9  C10 UNL     1      18.799  47.702  11.198  1.00  0.00     0.359 C 
HETATM   10  C11 UNL     1      18.110  50.000  10.339  1.00  0.00     0.182 C 
ENDROOT
BRANCH   1  11
HETATM   11  N5  UNL     1      18.751  50.674   8.023  1.00  0.00    -0.101 N 
HETATM   12  C3  UNL     1      17.987  51.761   7.970  1.00  0.00     0.719 A 
HETATM   13  N3  UNL     1      18.360  52.551   6.935  1.00  0.00     0.080 N 
HETATM   14  C2  UNL     1      17.969  53.722   6.415  1.00  0.00     0.376 A 
HETATM   15  C12 UNL     1      19.383  51.899   6.361  1.00  0.00     0.737 A 
HETATM   16  N2  UNL     1      18.569  54.238   5.355  1.00  0.00    -0.140 N 
HETATM   17  O1  UNL     1      17.008  54.328   6.959  1.00  0.00    -0.244 OA
HETATM   18  C1  UNL     1      19.594  53.595   4.772  1.00  0.00     0.694 A 
ATOM     19  H2  UNL     1      18.252  55.131   4.978  1.00  0.00     0.189 HD
HETATM   20  N9  UNL     1      20.006  52.417   5.276  1.00  0.00    -0.020 N 
ATOM     21  H9  UNL     1      20.783  51.918   4.844  1.00  0.00     0.203 HD
HETATM   22  N8  UNL     1      19.620  50.744   7.033  1.00  0.00    -0.113 N 
ATOM     23  H8  UNL     1      20.340  50.056   6.813  1.00  0.00     0.206 HD
BRANCH  12  24
HETATM   24  N4  UNL     1      17.013  52.089   8.753  1.00  0.00    -0.232 N 
ATOM     25  H42 UNL     1      16.014  51.937   8.612  1.00  0.00     0.174 HD
ATOM     26  H41 UNL     1      17.178  52.561   9.642  1.00  0.00     0.174 HD
ENDBRANCH  12  24
BRANCH  18  27
HETATM   27  N1  UNL     1      20.142  54.145   3.742  1.00  0.00    -0.234 N 
ATOM     28  H12 UNL     1      21.070  54.567   3.768  1.00  0.00     0.174 HD
ATOM     29  H11 UNL     1      19.614  54.152   2.869  1.00  0.00     0.174 HD
ENDBRANCH  18  27
ENDBRANCH   1  11
BRANCH  10  30
HETATM   30  O6  UNL     1      18.231  51.346  10.663  1.00  0.00    -0.390 OA
ATOM     31  H6  UNL     1      17.505  51.893  10.387  1.00  0.00     0.210 HD
ENDBRANCH  10  30
BRANCH   9  32
HETATM   32  O5  UNL     1      17.708  47.563  12.022  1.00  0.00    -0.367 OA
ATOM     33  H5  UNL     1      17.873  46.995  12.765  1.00  0.00     0.212 HD
ENDBRANCH   9  32
BRANCH   5  34
HETATM   34  C8  UNL     1      20.918  48.436  13.897  1.00  0.00     0.339 C 
BRANCH  34  35
HETATM   35  N6  UNL     1      22.018  49.321  14.176  1.00  0.00    -0.061 N 
ATOM     36  H63 UNL     1      22.466  49.671  13.329  1.00  0.00     0.275 HD
ATOM     37  H62 UNL     1      21.715  50.218  14.553  1.00  0.00     0.275 HD
ATOM     38  H61 UNL     1      22.669  48.836  14.793  1.00  0.00     0.275 HD
ENDBRANCH  34  35
BRANCH  34  39
HETATM   39  C9  UNL     1      19.714  48.815  14.673  1.00  0.00     0.209 C 
HETATM   40  O3  UNL     1      19.605  49.917  15.261  1.00  0.00    -0.646 OA
HETATM   41  O4  UNL     1      18.663  47.916  14.753  1.00  0.00    -0.646 OA
ENDBRANCH  34  39
ENDBRANCH   5  34
TORSDOF 8
ENDMDL
