MODEL 1
REMARK VINA RESULT: -3.532997026      0.000      0.000
REMARK  7 active torsions:
REMARK  status: ('A' for Active; 'I' for Inactive)
REMARK    1  A    between atoms: C3_9  and  O2_10 
REMARK    2  A    between atoms: C3_9  and  C4_12 
REMARK    3  A    between atoms: C4_12  and  O3_13 
REMARK    4  A    between atoms: C5_15  and  O4_16 
REMARK    5  A    between atoms: C5_15  and  C6_18 
REMARK    6  A    between atoms: C7_22  and  C8_23 
REMARK    7  A    between atoms: C8_23  and  O8_24 
ROOT
HETATM    1  C4  UNL     1      18.988  48.859  11.275  1.00  0.00     0.214 C 
HETATM    2  C5  UNL     1      18.237  47.870  12.095  1.00  0.00     0.294 C 
HETATM    3  O7  UNL     1      17.229  47.488  11.191  1.00  0.00    -0.333 OA
HETATM    4  C7  UNL     1      16.784  48.645  10.599  1.00  0.00     0.195 C 
HETATM    5  C9  UNL     1      18.058  49.511  10.415  1.00  0.00     0.198 C 
HETATM    6  O9  UNL     1      18.477  49.334   9.029  1.00  0.00    -0.278 OA
HETATM    7  C10 UNL     1      19.122  50.465   8.591  1.00  0.00     0.367 C 
HETATM    8  O10 UNL     1      19.937  50.532   7.646  1.00  0.00    -0.238 OA
HETATM    9  N3  UNL     1      18.652  51.504   9.446  1.00  0.00    -0.289 N 
ATOM     10  H3  UNL     1      18.926  52.486   9.407  1.00  0.00     0.172 HD
HETATM   11  C11 UNL     1      17.722  50.916  10.374  1.00  0.00     0.121 C 
HETATM   12  N4  UNL     1      16.835  51.658  10.924  1.00  0.00    -0.386 N 
ATOM     13  H41 UNL     1      16.598  52.649  10.895  1.00  0.00     0.157 HD
ATOM     14  H42 UNL     1      16.175  51.241  11.581  1.00  0.00     0.157 HD
ENDROOT
BRANCH   1  15
HETATM   15  C3  UNL     1      20.160  49.500  11.894  1.00  0.00     0.247 C 
HETATM   16  C2  UNL     1      21.238  48.461  12.184  1.00  0.00     0.269 C 
HETATM   17  N2  UNL     1      21.454  48.377  13.568  1.00  0.00    -0.307 N 
HETATM   18  O1  UNL     1      21.838  47.788  11.339  1.00  0.00    -0.269 OA
HETATM   19  C1  UNL     1      20.733  49.430  14.191  1.00  0.00     0.152 C 
ATOM     20  H2  UNL     1      22.028  47.681  14.045  1.00  0.00     0.170 HD
HETATM   21  N1  UNL     1      20.719  49.636  15.461  1.00  0.00    -0.382 N 
HETATM   22  C12 UNL     1      20.023  50.225  13.156  1.00  0.00     0.239 C 
ATOM     23  H12 UNL     1      21.206  49.091  16.172  1.00  0.00     0.157 HD
ATOM     24  H11 UNL     1      20.201  50.393  15.909  1.00  0.00     0.157 HD
HETATM   25  O11 UNL     1      19.468  51.294  13.480  1.00  0.00    -0.285 OA
BRANCH  15  26
HETATM   26  O2  UNL     1      20.818  50.354  11.012  1.00  0.00    -0.370 OA
ATOM     27  H2  UNL     1      20.336  51.164  11.131  1.00  0.00     0.212 HD
ENDBRANCH  15  26
ENDBRANCH   1  15
BRANCH   1  28
HETATM   28  O3  UNL     1      19.654  47.901  10.383  1.00  0.00    -0.377 OA
ATOM     29  H3  UNL     1      20.517  47.873  10.779  1.00  0.00     0.211 HD
ENDBRANCH   1  28
BRANCH   2  30
HETATM   30  O4  UNL     1      18.942  46.647  12.282  1.00  0.00    -0.354 OA
ATOM     31  H4  UNL     1      19.008  46.128  11.490  1.00  0.00     0.213 HD
ENDBRANCH   2  30
BRANCH   2  32
HETATM   32  C6  UNL     1      17.643  48.212  13.344  1.00  0.00     0.242 C 
HETATM   33  O5  UNL     1      17.834  47.552  14.428  1.00  0.00    -0.644 OA
HETATM   34  O6  UNL     1      16.795  49.292  13.524  1.00  0.00    -0.644 OA
ENDBRANCH   2  32
BRANCH   4  35
HETATM   35  C8  UNL     1      16.234  48.271   9.231  1.00  0.00     0.199 C 
BRANCH  35  36
HETATM   36  O8  UNL     1      15.544  49.344   8.658  1.00  0.00    -0.398 OA
ATOM     37  H8  UNL     1      15.286  49.145   7.765  1.00  0.00     0.209 HD
ENDBRANCH  35  36
ENDBRANCH   4  35
TORSDOF 7
ENDMDL
MODEL 2
REMARK VINA RESULT: -1.971567851      1.955      5.327
REMARK  7 active torsions:
REMARK  status: ('A' for Active; 'I' for Inactive)
REMARK    1  A    between atoms: C3_9  and  O2_10 
REMARK    2  A    between atoms: C3_9  and  C4_12 
REMARK    3  A    between atoms: C4_12  and  O3_13 
REMARK    4  A    between atoms: C5_15  and  O4_16 
REMARK    5  A    between atoms: C5_15  and  C6_18 
REMARK    6  A    between atoms: C7_22  and  C8_23 
REMARK    7  A    between atoms: C8_23  and  O8_24 
ROOT
HETATM    1  C4  UNL     1      18.595  49.160  11.163  1.00  0.00     0.214 C 
HETATM    2  C5  UNL     1      19.487  49.701  10.102  1.00  0.00     0.294 C 
HETATM    3  O7  UNL     1      20.741  49.594  10.729  1.00  0.00    -0.333 OA
HETATM    4  C7  UNL     1      20.563  50.027  12.020  1.00  0.00     0.195 C 
HETATM    5  C9  UNL     1      19.161  49.501  12.425  1.00  0.00     0.198 C 
HETATM    6  O9  UNL     1      19.386  48.283  13.197  1.00  0.00    -0.278 OA
HETATM    7  C10 UNL     1      18.370  48.114  14.105  1.00  0.00     0.367 C 
HETATM    8  O10 UNL     1      18.020  47.036  14.630  1.00  0.00    -0.238 OA
HETATM    9  N3  UNL     1      17.831  49.420  14.293  1.00  0.00    -0.289 N 
ATOM     10  H3  UNL     1      17.054  49.669  14.906  1.00  0.00     0.172 HD
HETATM   11  C11 UNL     1      18.583  50.325  13.462  1.00  0.00     0.121 C 
HETATM   12  N4  UNL     1      18.626  51.567  13.770  1.00  0.00    -0.386 N 
ATOM     13  H41 UNL     1      18.218  52.148  14.502  1.00  0.00     0.157 HD
ATOM     14  H42 UNL     1      19.158  52.208  13.182  1.00  0.00     0.157 HD
ENDROOT
BRANCH   1  15
HETATM   15  C3  UNL     1      17.153  49.102  10.870  1.00  0.00     0.247 C 
HETATM   16  C2  UNL     1      16.761  47.696  10.426  1.00  0.00     0.269 C 
HETATM   17  N2  UNL     1      16.296  47.731   9.102  1.00  0.00    -0.307 N 
HETATM   18  O1  UNL     1      16.836  46.675  11.117  1.00  0.00    -0.269 OA
HETATM   19  C1  UNL     1      16.169  49.091   8.715  1.00  0.00     0.152 C 
ATOM     20  H2  UNL     1      16.085  46.920   8.520  1.00  0.00     0.170 HD
HETATM   21  N1  UNL     1      15.764  49.472   7.554  1.00  0.00    -0.382 N 
HETATM   22  C12 UNL     1      16.574  49.968   9.845  1.00  0.00     0.239 C 
ATOM     23  H12 UNL     1      15.487  48.870   6.779  1.00  0.00     0.157 HD
ATOM     24  H11 UNL     1      15.674  50.449   7.276  1.00  0.00     0.157 HD
HETATM   25  O11 UNL     1      16.377  51.197   9.765  1.00  0.00    -0.285 OA
BRANCH  15  26
HETATM   26  O2  UNL     1      16.379  49.265  12.016  1.00  0.00    -0.370 OA
ATOM     27  H2  UNL     1      16.725  50.076  12.369  1.00  0.00     0.212 HD
ENDBRANCH  15  26
ENDBRANCH   1  15
BRANCH   1  28
HETATM   28  O3  UNL     1      18.951  47.744  11.008  1.00  0.00    -0.377 OA
ATOM     29  H3  UNL     1      19.399  47.591  11.832  1.00  0.00     0.211 HD
ENDBRANCH   1  28
BRANCH   2  30
HETATM   30  O4  UNL     1      19.638  48.820   8.993  1.00  0.00    -0.354 OA
ATOM     31  H4  UNL     1      18.935  48.185   8.921  1.00  0.00     0.213 HD
ENDBRANCH   2  30
BRANCH   2  32
HETATM   32  C6  UNL     1      19.334  51.017   9.577  1.00  0.00     0.242 C 
HETATM   33  O5  UNL     1      18.635  51.933  10.140  1.00  0.00    -0.644 OA
HETATM   34  O6  UNL     1      19.925  51.450   8.400  1.00  0.00    -0.644 OA
ENDBRANCH   2  32
BRANCH   4  35
HETATM   35  C8  UNL     1      21.617  49.342  12.877  1.00  0.00     0.199 C 
BRANCH  35  36
HETATM   36  O8  UNL     1      21.653  49.892  14.162  1.00  0.00    -0.398 OA
ATOM     37  H8  UNL     1      22.486  50.318  14.328  1.00  0.00     0.209 HD
ENDBRANCH  35  36
ENDBRANCH   4  35
TORSDOF 7
ENDMDL
MODEL 3
REMARK VINA RESULT: -1.099333374      1.793      4.963
REMARK  7 active torsions:
REMARK  status: ('A' for Active; 'I' for Inactive)
REMARK    1  A    between atoms: C3_9  and  O2_10 
REMARK    2  A    between atoms: C3_9  and  C4_12 
REMARK    3  A    between atoms: C4_12  and  O3_13 
REMARK    4  A    between atoms: C5_15  and  O4_16 
REMARK    5  A    between atoms: C5_15  and  C6_18 
REMARK    6  A    between atoms: C7_22  and  C8_23 
REMARK    7  A    between atoms: C8_23  and  O8_24 
ROOT
HETATM    1  C4  UNL     1      18.320  49.897  10.753  1.00  0.00     0.214 C 
HETATM    2  C5  UNL     1      16.930  49.495  10.408  1.00  0.00     0.294 C 
HETATM    3  O7  UNL     1      16.568  48.778  11.563  1.00  0.00    -0.333 OA
HETATM    4  C7  UNL     1      17.648  47.991  11.881  1.00  0.00     0.195 C 
HETATM    5  C9  UNL     1      18.885  48.869  11.560  1.00  0.00     0.198 C 
HETATM    6  O9  UNL     1      19.325  49.440  12.829  1.00  0.00    -0.278 OA
HETATM    7  C10 UNL     1      20.680  49.660  12.796  1.00  0.00     0.367 C 
HETATM    8  O10 UNL     1      21.315  50.470  13.504  1.00  0.00    -0.238 OA
HETATM    9  N3  UNL     1      21.166  48.771  11.793  1.00  0.00    -0.289 N 
ATOM     10  H3  UNL     1      22.138  48.667  11.499  1.00  0.00     0.172 HD
HETATM   11  C11 UNL     1      20.038  48.046  11.269  1.00  0.00     0.121 C 
HETATM   12  N4  UNL     1      20.228  46.905  10.720  1.00  0.00    -0.386 N 
ATOM     13  H41 UNL     1      21.041  46.325  10.515  1.00  0.00     0.157 HD
ATOM     14  H42 UNL     1      19.428  46.392  10.349  1.00  0.00     0.157 HD
ENDROOT
BRANCH   1  15
HETATM   15  C3  UNL     1      19.059  50.696   9.760  1.00  0.00     0.247 C 
HETATM   16  C2  UNL     1      18.143  51.747   9.141  1.00  0.00     0.269 C 
HETATM   17  N2  UNL     1      17.997  51.497   7.767  1.00  0.00    -0.307 N 
HETATM   18  O1  UNL     1      17.605  52.680   9.745  1.00  0.00    -0.269 OA
HETATM   19  C1  UNL     1      18.912  50.473   7.406  1.00  0.00     0.152 C 
ATOM     20  H2  UNL     1      17.347  51.969   7.138  1.00  0.00     0.170 HD
HETATM   21  N1  UNL     1      19.033  50.007   6.213  1.00  0.00    -0.382 N 
HETATM   22  C12 UNL     1      19.679  50.047   8.606  1.00  0.00     0.239 C 
ATOM     23  H12 UNL     1      18.506  50.299   5.389  1.00  0.00     0.157 HD
ATOM     24  H11 UNL     1      19.690  49.271   5.953  1.00  0.00     0.157 HD
HETATM   25  O11 UNL     1      20.649  49.275   8.470  1.00  0.00    -0.285 OA
BRANCH  15  26
HETATM   26  O2  UNL     1      20.042  51.487  10.350  1.00  0.00    -0.370 OA
ATOM     27  H2  UNL     1      20.362  51.984   9.606  1.00  0.00     0.212 HD
ENDBRANCH  15  26
ENDBRANCH   1  15
BRANCH   1  28
HETATM   28  O3  UNL     1      17.981  50.941  11.728  1.00  0.00    -0.377 OA
ATOM     29  H3  UNL     1      18.176  50.485  12.539  1.00  0.00     0.211 HD
ENDBRANCH   1  28
BRANCH   2  30
HETATM   30  O4  UNL     1      16.008  50.581  10.437  1.00  0.00    -0.354 OA
ATOM     31  H4  UNL     1      15.194  50.392   9.987  1.00  0.00     0.213 HD
ENDBRANCH   2  30
BRANCH   2  32
HETATM   32  C6  UNL     1      16.626  48.715   9.256  1.00  0.00     0.242 C 
HETATM   33  O5  UNL     1      16.574  47.433   9.256  1.00  0.00    -0.644 OA
HETATM   34  O6  UNL     1      16.355  49.256   8.009  1.00  0.00    -0.644 OA
ENDBRANCH   2  32
BRANCH   4  35
HETATM   35  C8  UNL     1      17.595  47.735  13.380  1.00  0.00     0.199 C 
BRANCH  35  36
HETATM   36  O8  UNL     1      18.524  46.760  13.755  1.00  0.00    -0.398 OA
ATOM     37  H8  UNL     1      18.509  46.617  14.694  1.00  0.00     0.209 HD
ENDBRANCH  35  36
ENDBRANCH   4  35
TORSDOF 7
ENDMDL
MODEL 4
REMARK VINA RESULT: -1.061774566      2.106      4.485
REMARK  7 active torsions:
REMARK  status: ('A' for Active; 'I' for Inactive)
REMARK    1  A    between atoms: C3_9  and  O2_10 
REMARK    2  A    between atoms: C3_9  and  C4_12 
REMARK    3  A    between atoms: C4_12  and  O3_13 
REMARK    4  A    between atoms: C5_15  and  O4_16 
REMARK    5  A    between atoms: C5_15  and  C6_18 
REMARK    6  A    between atoms: C7_22  and  C8_23 
REMARK    7  A    between atoms: C8_23  and  O8_24 
ROOT
HETATM    1  C4  UNL     1      18.487  49.455  12.261  1.00  0.00     0.214 C 
HETATM    2  C5  UNL     1      18.453  49.161  13.719  1.00  0.00     0.294 C 
HETATM    3  O7  UNL     1      19.784  49.441  14.076  1.00  0.00    -0.333 OA
HETATM    4  C7  UNL     1      20.570  48.888  13.095  1.00  0.00     0.195 C 
HETATM    5  C9  UNL     1      19.786  49.126  11.779  1.00  0.00     0.198 C 
HETATM    6  O9  UNL     1      20.380  50.303  11.154  1.00  0.00    -0.278 OA
HETATM    7  C10 UNL     1      20.248  50.222   9.789  1.00  0.00     0.367 C 
HETATM    8  O10 UNL     1      20.267  51.179   8.986  1.00  0.00    -0.238 OA
HETATM    9  N3  UNL     1      20.089  48.831   9.523  1.00  0.00    -0.289 N 
ATOM     10  H3  UNL     1      19.963  48.403   8.605  1.00  0.00     0.172 HD
HETATM   11  C11 UNL     1      20.139  48.138  10.784  1.00  0.00     0.121 C 
HETATM   12  N4  UNL     1      20.479  46.904  10.807  1.00  0.00    -0.386 N 
ATOM     13  H41 UNL     1      20.729  46.207  10.105  1.00  0.00     0.157 HD
ATOM     14  H42 UNL     1      20.515  46.413  11.700  1.00  0.00     0.157 HD
ENDROOT
BRANCH   1  15
HETATM   15  C3  UNL     1      17.234  49.278  11.506  1.00  0.00     0.247 C 
HETATM   16  C2  UNL     1      17.180  47.883  10.893  1.00  0.00     0.269 C 
HETATM   17  N2  UNL     1      17.166  47.983   9.492  1.00  0.00    -0.307 N 
HETATM   18  O1  UNL     1      17.153  46.819  11.520  1.00  0.00    -0.269 OA
HETATM   19  C1  UNL     1      17.006  49.352   9.150  1.00  0.00     0.152 C 
ATOM     20  H2  UNL     1      17.254  47.208   8.835  1.00  0.00     0.170 HD
HETATM   21  N1  UNL     1      16.953  49.787   7.940  1.00  0.00    -0.382 N 
HETATM   22  C12 UNL     1      16.915  50.166  10.390  1.00  0.00     0.239 C 
ATOM     23  H12 UNL     1      17.017  49.229   7.089  1.00  0.00     0.157 HD
ATOM     24  H11 UNL     1      16.839  50.770   7.694  1.00  0.00     0.157 HD
HETATM   25  O11 UNL     1      16.606  51.372  10.309  1.00  0.00    -0.285 OA
BRANCH  15  26
HETATM   26  O2  UNL     1      16.118  49.266  12.339  1.00  0.00    -0.370 OA
ATOM     27  H2  UNL     1      16.459  48.833  13.113  1.00  0.00     0.212 HD
ENDBRANCH  15  26
ENDBRANCH   1  15
BRANCH   1  28
HETATM   28  O3  UNL     1      18.527  50.919  12.362  1.00  0.00    -0.377 OA
ATOM     29  H3  UNL     1      19.067  51.126  11.608  1.00  0.00     0.211 HD
ENDBRANCH   1  28
BRANCH   2  30
HETATM   30  O4  UNL     1      17.736  50.135  14.471  1.00  0.00    -0.354 OA
ATOM     31  H4  UNL     1      18.245  50.508  15.182  1.00  0.00     0.213 HD
ENDBRANCH   2  30
BRANCH   2  32
HETATM   32  C6  UNL     1      18.088  47.881  14.230  1.00  0.00     0.242 C 
HETATM   33  O5  UNL     1      17.051  47.672  14.955  1.00  0.00    -0.644 OA
HETATM   34  O6  UNL     1      18.815  46.724  13.998  1.00  0.00    -0.644 OA
ENDBRANCH   2  32
BRANCH   4  35
HETATM   35  C8  UNL     1      21.867  49.683  13.053  1.00  0.00     0.199 C 
BRANCH  35  36
HETATM   36  O8  UNL     1      21.848  50.724  13.985  1.00  0.00    -0.398 OA
ATOM     37  H8  UNL     1      22.263  51.503  13.635  1.00  0.00     0.209 HD
ENDBRANCH  35  36
ENDBRANCH   4  35
TORSDOF 7
ENDMDL
MODEL 5
REMARK VINA RESULT: -0.516506946      2.478      5.692
REMARK  7 active torsions:
REMARK  status: ('A' for Active; 'I' for Inactive)
REMARK    1  A    between atoms: C3_9  and  O2_10 
REMARK    2  A    between atoms: C3_9  and  C4_12 
REMARK    3  A    between atoms: C4_12  and  O3_13 
REMARK    4  A    between atoms: C5_15  and  O4_16 
REMARK    5  A    between atoms: C5_15  and  C6_18 
REMARK    6  A    between atoms: C7_22  and  C8_23 
REMARK    7  A    between atoms: C8_23  and  O8_24 
ROOT
HETATM    1  C4  UNL     1      17.585  50.680   9.088  1.00  0.00     0.214 C 
HETATM    2  C5  UNL     1      16.644  50.101   8.093  1.00  0.00     0.294 C 
HETATM    3  O7  UNL     1      15.983  49.141   8.880  1.00  0.00    -0.333 OA
HETATM    4  C7  UNL     1      16.956  48.518   9.623  1.00  0.00     0.195 C 
HETATM    5  C9  UNL     1      17.953  49.645   9.996  1.00  0.00     0.198 C 
HETATM    6  O9  UNL     1      17.619  50.056  11.356  1.00  0.00    -0.278 OA
HETATM    7  C10 UNL     1      18.745  50.518  11.992  1.00  0.00     0.367 C 
HETATM    8  O10 UNL     1      18.775  51.293  12.971  1.00  0.00    -0.238 OA
HETATM    9  N3  UNL     1      19.830  49.919  11.287  1.00  0.00    -0.289 N 
ATOM     10  H3  UNL     1      20.822  50.044  11.490  1.00  0.00     0.172 HD
HETATM   11  C11 UNL     1      19.272  49.105  10.238  1.00  0.00     0.121 C 
HETATM   12  N4  UNL     1      19.958  48.131   9.771  1.00  0.00    -0.386 N 
ATOM     13  H41 UNL     1      20.888  47.751   9.942  1.00  0.00     0.157 HD
ATOM     14  H42 UNL     1      19.563  47.555   9.028  1.00  0.00     0.157 HD
ENDROOT
BRANCH   1  15
HETATM   15  C3  UNL     1      18.477  51.759   8.629  1.00  0.00     0.247 C 
HETATM   16  C2  UNL     1      17.698  53.063   8.490  1.00  0.00     0.269 C 
HETATM   17  N2  UNL     1      17.697  53.472   7.147  1.00  0.00    -0.307 N 
HETATM   18  O1  UNL     1      17.148  53.676   9.410  1.00  0.00    -0.269 OA
HETATM   19  C1  UNL     1      18.589  52.630   6.429  1.00  0.00     0.152 C 
ATOM     20  H2  UNL     1      17.152  54.239   6.754  1.00  0.00     0.170 HD
HETATM   21  N1  UNL     1      18.818  52.739   5.168  1.00  0.00    -0.382 N 
HETATM   22  C12 UNL     1      19.188  51.636   7.358  1.00  0.00     0.239 C 
ATOM     23  H12 UNL     1      18.407  53.421   4.531  1.00  0.00     0.157 HD
ATOM     24  H11 UNL     1      19.458  52.134   4.652  1.00  0.00     0.157 HD
HETATM   25  O11 UNL     1      20.121  50.912   6.959  1.00  0.00    -0.285 OA
BRANCH  15  26
HETATM   26  O2  UNL     1      19.429  52.096   9.588  1.00  0.00    -0.370 OA
ATOM     27  H2  UNL     1      18.900  52.550  10.234  1.00  0.00     0.212 HD
ENDBRANCH  15  26
ENDBRANCH   1  15
BRANCH   1  28
HETATM   28  O3  UNL     1      16.602  51.460   9.850  1.00  0.00    -0.377 OA
ATOM     29  H3  UNL     1      16.313  50.805  10.475  1.00  0.00     0.211 HD
ENDBRANCH   1  28
BRANCH   2  30
HETATM   30  O4  UNL     1      15.578  50.982   7.750  1.00  0.00    -0.354 OA
ATOM     31  H4  UNL     1      15.129  51.338   8.507  1.00  0.00     0.213 HD
ENDBRANCH   2  30
BRANCH   2  32
HETATM   32  C6  UNL     1      17.092  49.491   6.885  1.00  0.00     0.242 C 
HETATM   33  O5  UNL     1      18.320  49.209   6.643  1.00  0.00    -0.644 OA
HETATM   34  O6  UNL     1      16.251  49.138   5.843  1.00  0.00    -0.644 OA
ENDBRANCH   2  32
BRANCH   4  35
HETATM   35  C8  UNL     1      16.294  47.999  10.891  1.00  0.00     0.199 C 
BRANCH  35  36
HETATM   36  O8  UNL     1      16.633  46.662  11.122  1.00  0.00    -0.398 OA
ATOM     37  H8  UNL     1      16.499  46.137  10.342  1.00  0.00     0.209 HD
ENDBRANCH  35  36
ENDBRANCH   4  35
TORSDOF 7
ENDMDL
