MODEL 1
REMARK VINA RESULT: -9.356497345      0.000      0.000
REMARK  13 active torsions:
REMARK  status: ('A' for Active; 'I' for Inactive)
REMARK       I    between atoms: C2_2  and  N1_4 
REMARK    1  A    between atoms: N1_4  and  O2_5 
REMARK    2  A    between atoms: N1_4  and  C3_7 
REMARK    3  A    between atoms: C3_7  and  C5_9 
REMARK    4  A    between atoms: C5_9  and  C7_11 
REMARK       I    between atoms: C7_11  and  N2_13 
REMARK    5  A    between atoms: N2_13  and  N3_15 
REMARK       I    between atoms: N3_15  and  C8_17 
REMARK    6  A    between atoms: C8_17  and  C9_19 
REMARK    7  A    between atoms: N4_21  and  C11_22 
REMARK    8  A    between atoms: C11_22  and  C12_23 
REMARK    9  A    between atoms: C12_23  and  O5_24 
REMARK   10  A    between atoms: C12_23  and  C13_26 
REMARK   11  A    between atoms: C16_29  and  O6_30 
REMARK   12  A    between atoms: C18_34  and  C19_35 
REMARK   13  A    between atoms: C21_37  and  C22_38 
ROOT
HETATM    1  C9  UNL     1     -17.536  11.215  18.733  1.00  0.00     0.136 A 
HETATM    2  C10 UNL     1     -17.216  12.376  18.091  1.00  0.00     0.148 A 
HETATM    3  N4  UNL     1     -17.070  13.386  18.997  1.00  0.00    -0.284 N 
HETATM    4  N8  UNL     1     -17.309  12.810  20.176  1.00  0.00    -0.240 N 
ATOM      5  H8  UNL     1     -17.281  13.300  21.071  1.00  0.00     0.208 HD
HETATM    6  N9  UNL     1     -17.585  11.528  20.040  1.00  0.00    -0.280 N 
ATOM      7  H9  UNL     1     -17.800  10.882  20.799  1.00  0.00     0.189 HD
ENDROOT
BRANCH   3   8
HETATM    8  C11 UNL     1     -16.732  14.764  18.732  1.00  0.00     0.184 C 
BRANCH   8   9
HETATM    9  C12 UNL     1     -17.140  15.121  17.324  1.00  0.00     0.177 C 
BRANCH   9  10
HETATM   10  O5  UNL     1     -18.244  15.987  17.466  1.00  0.00    -0.390 OA
ATOM     11  H5  UNL     1     -17.919  16.847  17.228  1.00  0.00     0.210 HD
ENDBRANCH   9  10
BRANCH   9  12
HETATM   12  C13 UNL     1     -16.087  15.840  16.622  1.00  0.00     0.121 C 
HETATM   13  C14 UNL     1     -16.465  16.679  15.416  1.00  0.00     0.051 C 
HETATM   14  C15 UNL     1     -15.060  17.259  15.147  1.00  0.00     0.077 C 
HETATM   15  C16 UNL     1     -14.346  16.475  16.270  1.00  0.00     0.191 C 
HETATM   16  O7  UNL     1     -15.217  16.644  17.371  1.00  0.00    -0.333 OA
HETATM   17  C17 UNL     1     -14.884  15.139  16.123  1.00  0.00     0.021 C 
HETATM   18  C18 UNL     1     -14.682  13.903  15.765  1.00  0.00     0.043 C 
BRANCH  15  19
HETATM   19  O6  UNL     1     -13.057  16.751  16.461  1.00  0.00    -0.362 OA
ATOM     20  H6  UNL     1     -12.653  16.374  17.234  1.00  0.00     0.213 HD
ENDBRANCH  15  19
BRANCH  18  21
HETATM   21  C19 UNL     1     -13.365  13.477  15.303  1.00  0.00     0.058 A 
HETATM   22  C20 UNL     1     -12.920  12.196  15.089  1.00  0.00     0.074 A 
HETATM   23  C21 UNL     1     -11.587  12.304  14.694  1.00  0.00     0.141 A 
HETATM   24  O8  UNL     1     -11.303  13.568  14.688  1.00  0.00    -0.234 OA
HETATM   25  N7  UNL     1     -12.312  14.289  15.036  1.00  0.00    -0.261 N 
ATOM     26  H7  UNL     1     -12.318  15.307  15.100  1.00  0.00     0.195 HD
BRANCH  23  27
HETATM   27  C22 UNL     1     -10.706  11.186  14.359  1.00  0.00     0.146 C 
HETATM   28  N5  UNL     1      -9.451  11.318  14.523  1.00  0.00    -0.385 N 
ATOM     29  H52 UNL     1      -9.059  12.189  14.882  1.00  0.00     0.157 HD
ATOM     30  H51 UNL     1      -8.837  10.538  14.289  1.00  0.00     0.157 HD
HETATM   31  N6  UNL     1     -11.252   9.976  13.859  1.00  0.00    -0.080 NA
ENDBRANCH  23  27
ENDBRANCH  18  21
ENDBRANCH   9  12
ENDBRANCH   8   9
ENDBRANCH   3   8
BRANCH   1  32
HETATM   32  C8  UNL     1     -17.760   9.899  18.153  1.00  0.00     0.289 C 
HETATM   33  N3  UNL     1     -17.777   9.723  16.754  1.00  0.00    -0.262 N 
ATOM     34  H3  UNL     1     -17.637  10.526  16.141  1.00  0.00     0.190 HD
HETATM   35  O4  UNL     1     -17.937   8.923  18.910  1.00  0.00    -0.264 OA
BRANCH  33  36
HETATM   36  N2  UNL     1     -17.984   8.461  16.202  1.00  0.00    -0.267 N 
HETATM   37  C7  UNL     1     -18.697   8.342  14.986  1.00  0.00     0.241 C 
HETATM   38  O3  UNL     1     -19.142   9.353  14.409  1.00  0.00    -0.271 OA
ATOM     39  H2  UNL     1     -17.624   7.629  16.670  1.00  0.00     0.190 HD
BRANCH  37  40
HETATM   40  C5  UNL     1     -18.911   7.004  14.402  1.00  0.00     0.100 C 
HETATM   41  C6  UNL     1     -20.380   6.971  13.958  1.00  0.00     0.022 C 
BRANCH  40  42
HETATM   42  C3  UNL     1     -17.999   6.662  13.266  1.00  0.00     0.126 C 
HETATM   43  C4  UNL     1     -18.056   5.130  13.066  1.00  0.00     0.036 C 
BRANCH  42  44
HETATM   44  N1  UNL     1     -16.618   6.945  13.554  1.00  0.00    -0.224 N 
HETATM   45  C2  UNL     1     -15.896   7.872  12.789  1.00  0.00     0.239 C 
HETATM   46  C1  UNL     1     -14.462   8.163  13.144  1.00  0.00     0.119 C 
HETATM   47  O1  UNL     1     -16.403   8.459  11.827  1.00  0.00    -0.272 OA
BRANCH  44  48
HETATM   48  O2  UNL     1     -16.025   6.314  14.583  1.00  0.00    -0.284 OA
ATOM     49  H2  UNL     1     -16.548   5.990  15.307  1.00  0.00     0.245 HD
ENDBRANCH  44  48
ENDBRANCH  42  44
ENDBRANCH  40  42
ENDBRANCH  37  40
ENDBRANCH  33  36
ENDBRANCH   1  32
TORSDOF 13
ENDMDL
MODEL 2
REMARK VINA RESULT: -9.219928289      2.677      9.552
REMARK  13 active torsions:
REMARK  status: ('A' for Active; 'I' for Inactive)
REMARK       I    between atoms: C2_2  and  N1_4 
REMARK    1  A    between atoms: N1_4  and  O2_5 
REMARK    2  A    between atoms: N1_4  and  C3_7 
REMARK    3  A    between atoms: C3_7  and  C5_9 
REMARK    4  A    between atoms: C5_9  and  C7_11 
REMARK       I    between atoms: C7_11  and  N2_13 
REMARK    5  A    between atoms: N2_13  and  N3_15 
REMARK       I    between atoms: N3_15  and  C8_17 
REMARK    6  A    between atoms: C8_17  and  C9_19 
REMARK    7  A    between atoms: N4_21  and  C11_22 
REMARK    8  A    between atoms: C11_22  and  C12_23 
REMARK    9  A    between atoms: C12_23  and  O5_24 
REMARK   10  A    between atoms: C12_23  and  C13_26 
REMARK   11  A    between atoms: C16_29  and  O6_30 
REMARK   12  A    between atoms: C18_34  and  C19_35 
REMARK   13  A    between atoms: C21_37  and  C22_38 
ROOT
HETATM    1  C9  UNL     1     -11.789  10.434  13.894  1.00  0.00     0.136 A 
HETATM    2  C10 UNL     1     -13.056   9.927  13.883  1.00  0.00     0.148 A 
HETATM    3  N4  UNL     1     -13.044   8.645  13.416  1.00  0.00    -0.284 N 
HETATM    4  N8  UNL     1     -11.759   8.401  13.151  1.00  0.00    -0.240 N 
ATOM      5  H8  UNL     1     -11.407   7.518  12.782  1.00  0.00     0.208 HD
HETATM    6  N9  UNL     1     -11.004   9.446  13.428  1.00  0.00    -0.280 N 
ATOM      7  H9  UNL     1      -9.992   9.497  13.308  1.00  0.00     0.189 HD
ENDROOT
BRANCH   3   8
HETATM    8  C11 UNL     1     -14.170   7.757  13.252  1.00  0.00     0.184 C 
BRANCH   8   9
HETATM    9  C12 UNL     1     -15.443   8.564  13.184  1.00  0.00     0.177 C 
BRANCH   9  10
HETATM   10  O5  UNL     1     -16.009   8.261  11.929  1.00  0.00    -0.390 OA
ATOM     11  H5  UNL     1     -16.844   7.853  12.124  1.00  0.00     0.210 HD
ENDBRANCH   9  10
BRANCH   9  12
HETATM   12  C13 UNL     1     -16.389   8.170  14.216  1.00  0.00     0.121 C 
HETATM   13  C14 UNL     1     -17.842   7.969  13.827  1.00  0.00     0.051 C 
HETATM   14  C15 UNL     1     -18.338   7.488  15.208  1.00  0.00     0.077 C 
HETATM   15  C16 UNL     1     -16.984   7.656  15.931  1.00  0.00     0.191 C 
HETATM   16  O7  UNL     1     -16.070   7.071  15.025  1.00  0.00    -0.333 OA
HETATM   17  C17 UNL     1     -16.528   8.949  15.466  1.00  0.00     0.021 C 
HETATM   18  C18 UNL     1     -16.304  10.203  15.739  1.00  0.00     0.043 C 
BRANCH  15  19
HETATM   19  O6  UNL     1     -16.933   7.252  17.199  1.00  0.00    -0.362 OA
ATOM     20  H6  UNL     1     -16.150   7.481  17.686  1.00  0.00     0.213 HD
ENDBRANCH  15  19
BRANCH  18  21
HETATM   21  C19 UNL     1     -16.531  10.714  17.088  1.00  0.00     0.058 A 
HETATM   22  C20 UNL     1     -15.846  11.709  17.738  1.00  0.00     0.074 A 
HETATM   23  C21 UNL     1     -16.406  11.803  19.012  1.00  0.00     0.141 A 
HETATM   24  O8  UNL     1     -17.346  10.914  19.071  1.00  0.00    -0.234 OA
HETATM   25  N7  UNL     1     -17.455  10.255  17.969  1.00  0.00    -0.261 N 
ATOM     26  H7  UNL     1     -18.127   9.510  17.789  1.00  0.00     0.195 HD
BRANCH  23  27
HETATM   27  C22 UNL     1     -15.987  12.736  20.058  1.00  0.00     0.146 C 
HETATM   28  N5  UNL     1     -14.843  12.588  20.594  1.00  0.00    -0.385 N 
ATOM     29  H52 UNL     1     -14.222  11.833  20.304  1.00  0.00     0.157 HD
ATOM     30  H51 UNL     1     -14.551  13.238  21.324  1.00  0.00     0.157 HD
HETATM   31  N6  UNL     1     -16.852  13.785  20.462  1.00  0.00    -0.080 NA
ENDBRANCH  23  27
ENDBRANCH  18  21
ENDBRANCH   9  12
ENDBRANCH   8   9
ENDBRANCH   3   8
BRANCH   1  32
HETATM   32  C8  UNL     1     -11.350  11.750  14.332  1.00  0.00     0.289 C 
HETATM   33  N3  UNL     1     -10.105  12.267  13.918  1.00  0.00    -0.262 N 
ATOM     34  H3  UNL     1      -9.503  11.711  13.311  1.00  0.00     0.190 HD
HETATM   35  O4  UNL     1     -12.090  12.420  15.080  1.00  0.00    -0.264 OA
BRANCH  33  36
HETATM   36  N2  UNL     1      -9.691  13.530  14.332  1.00  0.00    -0.267 N 
HETATM   37  C7  UNL     1      -9.482  14.545  13.369  1.00  0.00     0.241 C 
HETATM   38  O3  UNL     1      -9.664  14.317  12.157  1.00  0.00    -0.271 OA
ATOM     39  H2  UNL     1      -9.539  13.723  15.323  1.00  0.00     0.190 HD
BRANCH  37  40
HETATM   40  C5  UNL     1      -9.046  15.883  13.811  1.00  0.00     0.100 C 
HETATM   41  C6  UNL     1      -7.533  15.934  13.566  1.00  0.00     0.022 C 
BRANCH  40  42
HETATM   42  C3  UNL     1      -9.739  17.025  13.134  1.00  0.00     0.126 C 
HETATM   43  C4  UNL     1      -8.936  18.309  13.443  1.00  0.00     0.036 C 
BRANCH  42  44
HETATM   44  N1  UNL     1     -11.052  17.275  13.665  1.00  0.00    -0.224 N 
HETATM   45  C2  UNL     1     -12.202  16.924  12.943  1.00  0.00     0.239 C 
HETATM   46  C1  UNL     1     -13.557  17.173  13.548  1.00  0.00     0.119 C 
HETATM   47  O1  UNL     1     -12.135  16.413  11.819  1.00  0.00    -0.272 OA
BRANCH  44  48
HETATM   48  O2  UNL     1     -11.167  17.843  14.878  1.00  0.00    -0.284 OA
ATOM     49  H2  UNL     1     -10.636  17.531  15.602  1.00  0.00     0.245 HD
ENDBRANCH  44  48
ENDBRANCH  42  44
ENDBRANCH  40  42
ENDBRANCH  37  40
ENDBRANCH  33  36
ENDBRANCH   1  32
TORSDOF 13
ENDMDL
MODEL 3
REMARK VINA RESULT: -9.083123126      1.826      8.778
REMARK  13 active torsions:
REMARK  status: ('A' for Active; 'I' for Inactive)
REMARK       I    between atoms: C2_2  and  N1_4 
REMARK    1  A    between atoms: N1_4  and  O2_5 
REMARK    2  A    between atoms: N1_4  and  C3_7 
REMARK    3  A    between atoms: C3_7  and  C5_9 
REMARK    4  A    between atoms: C5_9  and  C7_11 
REMARK       I    between atoms: C7_11  and  N2_13 
REMARK    5  A    between atoms: N2_13  and  N3_15 
REMARK       I    between atoms: N3_15  and  C8_17 
REMARK    6  A    between atoms: C8_17  and  C9_19 
REMARK    7  A    between atoms: N4_21  and  C11_22 
REMARK    8  A    between atoms: C11_22  and  C12_23 
REMARK    9  A    between atoms: C12_23  and  O5_24 
REMARK   10  A    between atoms: C12_23  and  C13_26 
REMARK   11  A    between atoms: C16_29  and  O6_30 
REMARK   12  A    between atoms: C18_34  and  C19_35 
REMARK   13  A    between atoms: C21_37  and  C22_38 
ROOT
HETATM    1  C9  UNL     1     -12.463  10.693  14.236  1.00  0.00     0.136 A 
HETATM    2  C10 UNL     1     -13.655  10.067  14.019  1.00  0.00     0.148 A 
HETATM    3  N4  UNL     1     -13.444   8.836  13.468  1.00  0.00    -0.284 N 
HETATM    4  N8  UNL     1     -12.118   8.744  13.362  1.00  0.00    -0.240 N 
ATOM      5  H8  UNL     1     -11.627   7.934  12.981  1.00  0.00     0.208 HD
HETATM    6  N9  UNL     1     -11.522   9.831  13.811  1.00  0.00    -0.280 N 
ATOM      7  H9  UNL     1     -10.514   9.991  13.833  1.00  0.00     0.189 HD
ENDROOT
BRANCH   3   8
HETATM    8  C11 UNL     1     -14.438   7.859  13.091  1.00  0.00     0.184 C 
BRANCH   8   9
HETATM    9  C12 UNL     1     -15.801   8.503  13.083  1.00  0.00     0.177 C 
BRANCH   9  10
HETATM   10  O5  UNL     1     -16.416   8.056  11.896  1.00  0.00    -0.390 OA
ATOM     11  H5  UNL     1     -17.169   7.552  12.179  1.00  0.00     0.210 HD
ENDBRANCH   9  10
BRANCH   9  12
HETATM   12  C13 UNL     1     -16.613   8.064  14.208  1.00  0.00     0.121 C 
HETATM   13  C14 UNL     1     -18.071   7.724  13.958  1.00  0.00     0.051 C 
HETATM   14  C15 UNL     1     -18.397   7.251  15.391  1.00  0.00     0.077 C 
HETATM   15  C16 UNL     1     -17.005   7.562  15.983  1.00  0.00     0.191 C 
HETATM   16  O7  UNL     1     -16.126   7.026  15.014  1.00  0.00    -0.333 OA
HETATM   17  C17 UNL     1     -16.711   8.872  15.443  1.00  0.00     0.021 C 
HETATM   18  C18 UNL     1     -16.577  10.150  15.660  1.00  0.00     0.043 C 
BRANCH  15  19
HETATM   19  O6  UNL     1     -16.807   7.209  17.252  1.00  0.00    -0.362 OA
ATOM     20  H6  UNL     1     -15.974   6.798  17.452  1.00  0.00     0.213 HD
ENDBRANCH  15  19
BRANCH  18  21
HETATM   21  C19 UNL     1     -16.729  10.686  17.009  1.00  0.00     0.058 A 
HETATM   22  C20 UNL     1     -16.116  11.787  17.553  1.00  0.00     0.074 A 
HETATM   23  C21 UNL     1     -16.549  11.865  18.876  1.00  0.00     0.141 A 
HETATM   24  O8  UNL     1     -17.355  10.868  19.062  1.00  0.00    -0.234 OA
HETATM   25  N7  UNL     1     -17.490  10.154  17.998  1.00  0.00    -0.261 N 
ATOM     26  H7  UNL     1     -18.075   9.323  17.914  1.00  0.00     0.195 HD
BRANCH  23  27
HETATM   27  C22 UNL     1     -16.150  12.888  19.842  1.00  0.00     0.146 C 
HETATM   28  N5  UNL     1     -15.147  12.668  20.594  1.00  0.00    -0.385 N 
ATOM     29  H52 UNL     1     -14.625  11.794  20.529  1.00  0.00     0.157 HD
ATOM     30  H51 UNL     1     -14.869  13.381  21.268  1.00  0.00     0.157 HD
HETATM   31  N6  UNL     1     -16.876  14.102  19.933  1.00  0.00    -0.080 NA
ENDBRANCH  23  27
ENDBRANCH  18  21
ENDBRANCH   9  12
ENDBRANCH   8   9
ENDBRANCH   3   8
BRANCH   1  32
HETATM   32  C8  UNL     1     -12.228  12.004  14.821  1.00  0.00     0.289 C 
HETATM   33  N3  UNL     1     -13.291  12.915  14.993  1.00  0.00    -0.262 N 
ATOM     34  H3  UNL     1     -14.232  12.656  14.698  1.00  0.00     0.190 HD
HETATM   35  O4  UNL     1     -11.072  12.316  15.173  1.00  0.00    -0.264 OA
BRANCH  33  36
HETATM   36  N2  UNL     1     -13.065  14.167  15.561  1.00  0.00    -0.267 N 
HETATM   37  C7  UNL     1     -13.583  15.322  14.928  1.00  0.00     0.241 C 
HETATM   38  O3  UNL     1     -14.234  15.228  13.870  1.00  0.00    -0.271 OA
ATOM     39  H2  UNL     1     -12.532  14.251  16.426  1.00  0.00     0.190 HD
BRANCH  37  40
HETATM   40  C5  UNL     1     -13.345  16.646  15.534  1.00  0.00     0.100 C 
HETATM   41  C6  UNL     1     -12.655  17.485  14.451  1.00  0.00     0.022 C 
BRANCH  40  42
HETATM   42  C3  UNL     1     -14.573  17.332  16.045  1.00  0.00     0.126 C 
HETATM   43  C4  UNL     1     -14.145  18.252  17.211  1.00  0.00     0.036 C 
BRANCH  42  44
HETATM   44  N1  UNL     1     -15.523  16.420  16.624  1.00  0.00    -0.224 N 
HETATM   45  C2  UNL     1     -16.809  16.276  16.084  1.00  0.00     0.239 C 
HETATM   46  C1  UNL     1     -17.761  15.287  16.701  1.00  0.00     0.119 C 
HETATM   47  O1  UNL     1     -17.186  16.941  15.113  1.00  0.00    -0.272 OA
BRANCH  44  48
HETATM   48  O2  UNL     1     -15.156  15.690  17.692  1.00  0.00    -0.284 OA
ATOM     49  H2  UNL     1     -15.177  16.074  18.561  1.00  0.00     0.245 HD
ENDBRANCH  44  48
ENDBRANCH  42  44
ENDBRANCH  40  42
ENDBRANCH  37  40
ENDBRANCH  33  36
ENDBRANCH   1  32
TORSDOF 13
ENDMDL
MODEL 4
REMARK VINA RESULT: -8.938452297      2.509      8.781
REMARK  13 active torsions:
REMARK  status: ('A' for Active; 'I' for Inactive)
REMARK       I    between atoms: C2_2  and  N1_4 
REMARK    1  A    between atoms: N1_4  and  O2_5 
REMARK    2  A    between atoms: N1_4  and  C3_7 
REMARK    3  A    between atoms: C3_7  and  C5_9 
REMARK    4  A    between atoms: C5_9  and  C7_11 
REMARK       I    between atoms: C7_11  and  N2_13 
REMARK    5  A    between atoms: N2_13  and  N3_15 
REMARK       I    between atoms: N3_15  and  C8_17 
REMARK    6  A    between atoms: C8_17  and  C9_19 
REMARK    7  A    between atoms: N4_21  and  C11_22 
REMARK    8  A    between atoms: C11_22  and  C12_23 
REMARK    9  A    between atoms: C12_23  and  O5_24 
REMARK   10  A    between atoms: C12_23  and  C13_26 
REMARK   11  A    between atoms: C16_29  and  O6_30 
REMARK   12  A    between atoms: C18_34  and  C19_35 
REMARK   13  A    between atoms: C21_37  and  C22_38 
ROOT
HETATM    1  C9  UNL     1     -16.830   7.166  14.352  1.00  0.00     0.136 A 
HETATM    2  C10 UNL     1     -17.992   7.139  13.638  1.00  0.00     0.148 A 
HETATM    3  N4  UNL     1     -18.762   6.084  14.035  1.00  0.00    -0.284 N 
HETATM    4  N8  UNL     1     -18.043   5.491  14.989  1.00  0.00    -0.240 N 
ATOM      5  H8  UNL     1     -18.340   4.658  15.499  1.00  0.00     0.208 HD
HETATM    6  N9  UNL     1     -16.900   6.116  15.190  1.00  0.00    -0.280 N 
ATOM      7  H9  UNL     1     -16.186   5.848  15.868  1.00  0.00     0.189 HD
ENDROOT
BRANCH   3   8
HETATM    8  C11 UNL     1     -20.062   5.705  13.535  1.00  0.00     0.184 C 
BRANCH   8   9
HETATM    9  C12 UNL     1     -20.662   6.857  12.768  1.00  0.00     0.177 C 
BRANCH   9  10
HETATM   10  O5  UNL     1     -21.318   6.268  11.667  1.00  0.00    -0.390 OA
ATOM     11  H5  UNL     1     -20.653   5.755  11.225  1.00  0.00     0.210 HD
ENDBRANCH   9  10
BRANCH   9  12
HETATM   12  C13 UNL     1     -21.653   7.574  13.556  1.00  0.00     0.121 C 
HETATM   13  C14 UNL     1     -22.686   8.413  12.829  1.00  0.00     0.051 C 
HETATM   14  C15 UNL     1     -23.491   8.837  14.077  1.00  0.00     0.077 C 
HETATM   15  C16 UNL     1     -22.574   8.137  15.103  1.00  0.00     0.191 C 
HETATM   16  O7  UNL     1     -22.372   6.862  14.525  1.00  0.00    -0.333 OA
HETATM   17  C17 UNL     1     -21.247   8.491  14.644  1.00  0.00     0.021 C 
HETATM   18  C18 UNL     1     -20.161   9.184  14.838  1.00  0.00     0.043 C 
BRANCH  15  19
HETATM   19  O6  UNL     1     -22.965   8.178  16.375  1.00  0.00    -0.362 OA
ATOM     20  H6  UNL     1     -23.209   7.349  16.771  1.00  0.00     0.213 HD
ENDBRANCH  15  19
BRANCH  18  21
HETATM   21  C19 UNL     1     -20.028  10.024  16.026  1.00  0.00     0.058 A 
HETATM   22  C20 UNL     1     -18.887  10.600  16.526  1.00  0.00     0.074 A 
HETATM   23  C21 UNL     1     -19.264  11.267  17.692  1.00  0.00     0.141 A 
HETATM   24  O8  UNL     1     -20.536  11.075  17.835  1.00  0.00    -0.234 OA
HETATM   25  N7  UNL     1     -21.024  10.355  16.884  1.00  0.00    -0.261 N 
ATOM     26  H7  UNL     1     -22.001  10.079  16.792  1.00  0.00     0.195 HD
BRANCH  23  27
HETATM   27  C22 UNL     1     -18.368  12.027  18.563  1.00  0.00     0.146 C 
HETATM   28  N5  UNL     1     -17.558  12.858  18.041  1.00  0.00    -0.385 N 
ATOM     29  H52 UNL     1     -17.530  12.998  17.031  1.00  0.00     0.157 HD
ATOM     30  H51 UNL     1     -16.933  13.387  18.648  1.00  0.00     0.157 HD
HETATM   31  N6  UNL     1     -18.407  11.832  19.968  1.00  0.00    -0.080 NA
ENDBRANCH  23  27
ENDBRANCH  18  21
ENDBRANCH   9  12
ENDBRANCH   8   9
ENDBRANCH   3   8
BRANCH   1  32
HETATM   32  C8  UNL     1     -15.741   8.127  14.263  1.00  0.00     0.289 C 
HETATM   33  N3  UNL     1     -15.942   9.475  14.623  1.00  0.00    -0.262 N 
ATOM     34  H3  UNL     1     -16.860   9.783  14.944  1.00  0.00     0.190 HD
HETATM   35  O4  UNL     1     -14.623   7.744  13.864  1.00  0.00    -0.264 OA
BRANCH  33  36
HETATM   36  N2  UNL     1     -14.895  10.392  14.545  1.00  0.00    -0.267 N 
HETATM   37  C7  UNL     1     -14.696  11.312  15.600  1.00  0.00     0.241 C 
HETATM   38  O3  UNL     1     -15.447  11.311  16.595  1.00  0.00    -0.271 OA
ATOM     39  H2  UNL     1     -14.278  10.399  13.733  1.00  0.00     0.190 HD
BRANCH  37  40
HETATM   40  C5  UNL     1     -13.585  12.279  15.516  1.00  0.00     0.100 C 
HETATM   41  C6  UNL     1     -12.480  11.581  14.712  1.00  0.00     0.022 C 
BRANCH  40  42
HETATM   42  C3  UNL     1     -13.945  13.596  14.902  1.00  0.00     0.126 C 
HETATM   43  C4  UNL     1     -12.689  14.496  14.955  1.00  0.00     0.036 C 
BRANCH  42  44
HETATM   44  N1  UNL     1     -14.941  14.310  15.656  1.00  0.00    -0.224 N 
HETATM   45  C2  UNL     1     -15.988  14.986  15.013  1.00  0.00     0.239 C 
HETATM   46  C1  UNL     1     -17.027  15.693  15.840  1.00  0.00     0.119 C 
HETATM   47  O1  UNL     1     -16.081  15.019  13.781  1.00  0.00    -0.272 OA
BRANCH  44  48
HETATM   48  O2  UNL     1     -14.864  14.311  16.999  1.00  0.00    -0.284 OA
ATOM     49  H2  UNL     1     -15.236  13.592  17.497  1.00  0.00     0.245 HD
ENDBRANCH  44  48
ENDBRANCH  42  44
ENDBRANCH  40  42
ENDBRANCH  37  40
ENDBRANCH  33  36
ENDBRANCH   1  32
TORSDOF 13
ENDMDL
MODEL 5
REMARK VINA RESULT: -8.912449181      1.177      2.123
REMARK  13 active torsions:
REMARK  status: ('A' for Active; 'I' for Inactive)
REMARK       I    between atoms: C2_2  and  N1_4 
REMARK    1  A    between atoms: N1_4  and  O2_5 
REMARK    2  A    between atoms: N1_4  and  C3_7 
REMARK    3  A    between atoms: C3_7  and  C5_9 
REMARK    4  A    between atoms: C5_9  and  C7_11 
REMARK       I    between atoms: C7_11  and  N2_13 
REMARK    5  A    between atoms: N2_13  and  N3_15 
REMARK       I    between atoms: N3_15  and  C8_17 
REMARK    6  A    between atoms: C8_17  and  C9_19 
REMARK    7  A    between atoms: N4_21  and  C11_22 
REMARK    8  A    between atoms: C11_22  and  C12_23 
REMARK    9  A    between atoms: C12_23  and  O5_24 
REMARK   10  A    between atoms: C12_23  and  C13_26 
REMARK   11  A    between atoms: C16_29  and  O6_30 
REMARK   12  A    between atoms: C18_34  and  C19_35 
REMARK   13  A    between atoms: C21_37  and  C22_38 
ROOT
HETATM    1  C9  UNL     1     -17.001  11.208  18.112  1.00  0.00     0.136 A 
HETATM    2  C10 UNL     1     -16.786  12.455  17.601  1.00  0.00     0.148 A 
HETATM    3  N4  UNL     1     -16.928  13.393  18.581  1.00  0.00    -0.284 N 
HETATM    4  N8  UNL     1     -17.228  12.689  19.674  1.00  0.00    -0.240 N 
ATOM      5  H8  UNL     1     -17.400  13.098  20.592  1.00  0.00     0.208 HD
HETATM    6  N9  UNL     1     -17.275  11.397  19.416  1.00  0.00    -0.280 N 
ATOM      7  H9  UNL     1     -17.485  10.662  20.092  1.00  0.00     0.189 HD
ENDROOT
BRANCH   3   8
HETATM    8  C11 UNL     1     -16.781  14.824  18.458  1.00  0.00     0.184 C 
BRANCH   8   9
HETATM    9  C12 UNL     1     -17.109  15.245  17.047  1.00  0.00     0.177 C 
BRANCH   9  10
HETATM   10  O5  UNL     1     -18.217  16.109  17.166  1.00  0.00    -0.390 OA
ATOM     11  H5  UNL     1     -18.791  15.694  17.798  1.00  0.00     0.210 HD
ENDBRANCH   9  10
BRANCH   9  12
HETATM   12  C13 UNL     1     -16.018  15.988  16.436  1.00  0.00     0.121 C 
HETATM   13  C14 UNL     1     -16.326  16.882  15.250  1.00  0.00     0.051 C 
HETATM   14  C15 UNL     1     -14.906  17.464  15.084  1.00  0.00     0.077 C 
HETATM   15  C16 UNL     1     -14.257  16.627  16.208  1.00  0.00     0.191 C 
HETATM   16  O7  UNL     1     -15.187  16.752  17.267  1.00  0.00    -0.333 OA
HETATM   17  C17 UNL     1     -14.791  15.303  15.972  1.00  0.00     0.021 C 
HETATM   18  C18 UNL     1     -14.575  14.082  15.571  1.00  0.00     0.043 C 
BRANCH  15  19
HETATM   19  O6  UNL     1     -12.980  16.887  16.481  1.00  0.00    -0.362 OA
ATOM     20  H6  UNL     1     -12.336  16.513  15.892  1.00  0.00     0.213 HD
ENDBRANCH  15  19
BRANCH  18  21
HETATM   21  C19 UNL     1     -13.235  13.669  15.162  1.00  0.00     0.058 A 
HETATM   22  C20 UNL     1     -12.747  12.392  15.040  1.00  0.00     0.074 A 
HETATM   23  C21 UNL     1     -11.410  12.517  14.665  1.00  0.00     0.141 A 
HETATM   24  O8  UNL     1     -11.165  13.786  14.583  1.00  0.00    -0.234 OA
HETATM   25  N7  UNL     1     -12.202  14.496  14.864  1.00  0.00    -0.261 N 
ATOM     26  H7  UNL     1     -12.240  15.515  14.863  1.00  0.00     0.195 HD
BRANCH  23  27
HETATM   27  C22 UNL     1     -10.489  11.408  14.420  1.00  0.00     0.146 C 
HETATM   28  N5  UNL     1      -9.252  11.564  14.675  1.00  0.00    -0.385 N 
ATOM     29  H52 UNL     1      -8.903  12.448  15.047  1.00  0.00     0.157 HD
ATOM     30  H51 UNL     1      -8.610  10.791  14.504  1.00  0.00     0.157 HD
HETATM   31  N6  UNL     1     -10.976  10.180  13.903  1.00  0.00    -0.080 NA
ENDBRANCH  23  27
ENDBRANCH  18  21
ENDBRANCH   9  12
ENDBRANCH   8   9
ENDBRANCH   3   8
BRANCH   1  32
HETATM   32  C8  UNL     1     -16.932   9.929  17.423  1.00  0.00     0.289 C 
HETATM   33  N3  UNL     1     -17.075   9.858  16.022  1.00  0.00    -0.262 N 
ATOM     34  H3  UNL     1     -17.235  10.711  15.486  1.00  0.00     0.190 HD
HETATM   35  O4  UNL     1     -16.742   8.889  18.087  1.00  0.00    -0.264 OA
BRANCH  33  36
HETATM   36  N2  UNL     1     -17.001   8.633  15.363  1.00  0.00    -0.267 N 
HETATM   37  C7  UNL     1     -16.224   8.522  14.187  1.00  0.00     0.241 C 
HETATM   38  O3  UNL     1     -15.610   9.508  13.735  1.00  0.00    -0.271 OA
ATOM     39  H2  UNL     1     -17.502   7.822  15.727  1.00  0.00     0.190 HD
BRANCH  37  40
HETATM   40  C5  UNL     1     -16.144   7.222  13.493  1.00  0.00     0.100 C 
HETATM   41  C6  UNL     1     -14.662   6.828  13.508  1.00  0.00     0.022 C 
BRANCH  40  42
HETATM   42  C3  UNL     1     -16.993   6.141  14.086  1.00  0.00     0.126 C 
HETATM   43  C4  UNL     1     -16.216   4.811  13.955  1.00  0.00     0.036 C 
BRANCH  42  44
HETATM   44  N1  UNL     1     -18.215   5.927  13.357  1.00  0.00    -0.224 N 
HETATM   45  C2  UNL     1     -19.458   6.246  13.922  1.00  0.00     0.239 C 
HETATM   46  C1  UNL     1     -20.710   6.037  13.113  1.00  0.00     0.119 C 
HETATM   47  O1  UNL     1     -19.557   6.694  15.069  1.00  0.00    -0.272 OA
BRANCH  44  48
HETATM   48  O2  UNL     1     -18.151   5.425  12.112  1.00  0.00    -0.284 OA
ATOM     49  H2  UNL     1     -17.373   4.958  11.827  1.00  0.00     0.245 HD
ENDBRANCH  44  48
ENDBRANCH  42  44
ENDBRANCH  40  42
ENDBRANCH  37  40
ENDBRANCH  33  36
ENDBRANCH   1  32
TORSDOF 13
ENDMDL
