MODEL 1
REMARK VINA RESULT: -9.336802623      0.000      0.000
REMARK  12 active torsions:
REMARK  status: ('A' for Active; 'I' for Inactive)
REMARK    1  A    between atoms: N1_1  and  C1_4 
REMARK    2  A    between atoms: C2_7  and  C3_8 
REMARK    3  A    between atoms: C3_8  and  N3_9 
REMARK    4  A    between atoms: C3_8  and  C15_29 
REMARK       I    between atoms: N3_9  and  C4_11 
REMARK    5  A    between atoms: C4_11  and  C5_13 
REMARK    6  A    between atoms: C5_13  and  C6_14 
REMARK    7  A    between atoms: C5_13  and  N4_21 
REMARK    8  A    between atoms: C8_17  and  O2_18 
REMARK       I    between atoms: C15_29  and  N6_31 
REMARK    9  A    between atoms: N6_31  and  C16_33 
REMARK   10  A    between atoms: C18_38  and  C19_39 
REMARK   11  A    between atoms: C19_39  and  O8_40 
REMARK   12  A    between atoms: C19_39  and  O9_42 
ROOT
HETATM    1  C3  UNL     1     -18.271  12.061  15.839  1.00  0.00     0.227 C 
ENDROOT
BRANCH   1   2
HETATM    2  C2  UNL     1     -17.858  12.646  17.179  1.00  0.00     0.050 A 
HETATM    3  N2  UNL     1     -18.030  12.019  18.304  1.00  0.00    -0.338 N 
HETATM    4  C1  UNL     1     -17.638  12.611  19.435  1.00  0.00     0.142 A 
ATOM      5  H2  UNL     1     -18.457  11.092  18.323  1.00  0.00     0.168 HD
HETATM    6  S2  UNL     1     -17.008  14.100  18.895  1.00  0.00    -0.064 SA
HETATM    7  C20 UNL     1     -17.278  13.891  17.223  1.00  0.00     0.081 A 
BRANCH   4   8
HETATM    8  N1  UNL     1     -17.697  12.187  20.667  1.00  0.00    -0.380 N 
ATOM      9  H12 UNL     1     -17.091  11.493  21.105  1.00  0.00     0.158 HD
ATOM     10  H11 UNL     1     -18.338  12.444  21.419  1.00  0.00     0.158 HD
ENDBRANCH   4   8
ENDBRANCH   1   2
BRANCH   1  11
HETATM   11  N3  UNL     1     -17.457  10.890  15.546  1.00  0.00    -0.341 N 
HETATM   12  C4  UNL     1     -17.134  10.494  14.241  1.00  0.00     0.246 C 
HETATM   13  O1  UNL     1     -17.579  11.211  13.296  1.00  0.00    -0.271 OA
ATOM     14  H3  UNL     1     -17.106  10.334  16.325  1.00  0.00     0.163 HD
BRANCH  12  15
HETATM   15  C5  UNL     1     -16.305   9.291  13.920  1.00  0.00     0.218 C 
BRANCH  15  16
HETATM   16  C6  UNL     1     -16.744   8.164  14.785  1.00  0.00    -0.016 A 
HETATM   17  C7  UNL     1     -17.071   6.945  14.262  1.00  0.00     0.062 A 
HETATM   18  S1  UNL     1     -17.475   6.016  15.628  1.00  0.00    -0.077 SA
HETATM   19  C8  UNL     1     -17.227   7.184  16.838  1.00  0.00     0.107 A 
HETATM   20  C9  UNL     1     -16.828   8.285  16.140  1.00  0.00     0.054 A 
BRANCH  19  21
HETATM   21  O2  UNL     1     -17.386   7.070  18.238  1.00  0.00    -0.354 OA
ATOM     22  H2  UNL     1     -16.724   6.965  18.912  1.00  0.00     0.218 HD
ENDBRANCH  19  21
ENDBRANCH  15  16
BRANCH  15  23
HETATM   23  N4  UNL     1     -14.937   9.670  14.009  1.00  0.00    -0.305 N 
HETATM   24  C10 UNL     1     -14.721  10.809  14.757  1.00  0.00     0.096 A 
HETATM   25  C11 UNL     1     -13.475  11.306  14.941  1.00  0.00     0.019 A 
HETATM   26  C12 UNL     1     -12.389  10.683  14.382  1.00  0.00     0.034 A 
HETATM   27  C13 UNL     1     -12.575   9.552  13.636  1.00  0.00     0.114 A 
HETATM   28  N5  UNL     1     -11.534   8.828  13.015  1.00  0.00    -0.097 NA
HETATM   29  C14 UNL     1     -13.875   9.083  13.480  1.00  0.00     0.272 A 
HETATM   30  O3  UNL     1     -14.045   8.041  12.792  1.00  0.00    -0.266 OA
ENDBRANCH  15  23
ENDBRANCH  12  15
ENDBRANCH   1  11
BRANCH   1  31
HETATM   31  C15 UNL     1     -19.669  11.653  15.959  1.00  0.00     0.248 C 
HETATM   32  O4  UNL     1     -20.461  12.275  16.748  1.00  0.00    -0.271 OA
HETATM   33  N6  UNL     1     -20.245  10.561  15.229  1.00  0.00    -0.329 N 
ATOM     34  H6  UNL     1     -19.653  10.034  14.587  1.00  0.00     0.165 HD
BRANCH  33  35
HETATM   35  C16 UNL     1     -21.610  10.184  15.366  1.00  0.00     0.280 C 
HETATM   36  O5  UNL     1     -21.766   8.819  15.674  1.00  0.00    -0.205 OA
HETATM   37  O6  UNL     1     -23.071   8.574  15.458  1.00  0.00    -0.156 OA
HETATM   38  C17 UNL     1     -23.406   9.216  14.275  1.00  0.00     0.302 C 
HETATM   39  O7  UNL     1     -24.387   8.919  13.566  1.00  0.00    -0.262 OA
HETATM   40  C18 UNL     1     -22.375  10.264  14.088  1.00  0.00     0.194 C 
BRANCH  40  41
HETATM   41  C19 UNL     1     -22.922  11.629  13.835  1.00  0.00     0.271 C 
BRANCH  41  42
HETATM   42  O8  UNL     1     -24.250  11.474  13.423  1.00  0.00    -0.370 OA
ATOM     43  H8  UNL     1     -24.309  10.643  12.968  1.00  0.00     0.212 HD
ENDBRANCH  41  42
BRANCH  41  44
HETATM   44  O9  UNL     1     -22.823  12.516  14.876  1.00  0.00    -0.370 OA
ATOM     45  H9  UNL     1     -22.918  13.434  14.649  1.00  0.00     0.212 HD
ENDBRANCH  41  44
ENDBRANCH  40  41
ENDBRANCH  33  35
ENDBRANCH   1  31
TORSDOF 12
ENDMDL
MODEL 2
REMARK VINA RESULT: -9.146707530      2.550      3.295
REMARK  12 active torsions:
REMARK  status: ('A' for Active; 'I' for Inactive)
REMARK    1  A    between atoms: N1_1  and  C1_4 
REMARK    2  A    between atoms: C2_7  and  C3_8 
REMARK    3  A    between atoms: C3_8  and  N3_9 
REMARK    4  A    between atoms: C3_8  and  C15_29 
REMARK       I    between atoms: N3_9  and  C4_11 
REMARK    5  A    between atoms: C4_11  and  C5_13 
REMARK    6  A    between atoms: C5_13  and  C6_14 
REMARK    7  A    between atoms: C5_13  and  N4_21 
REMARK    8  A    between atoms: C8_17  and  O2_18 
REMARK       I    between atoms: C15_29  and  N6_31 
REMARK    9  A    between atoms: N6_31  and  C16_33 
REMARK   10  A    between atoms: C18_38  and  C19_39 
REMARK   11  A    between atoms: C19_39  and  O8_40 
REMARK   12  A    between atoms: C19_39  and  O9_42 
ROOT
HETATM    1  C3  UNL     1     -17.959  11.885  12.917  1.00  0.00     0.227 C 
ENDROOT
BRANCH   1   2
HETATM    2  C2  UNL     1     -17.510  13.304  13.231  1.00  0.00     0.050 A 
HETATM    3  N2  UNL     1     -17.561  14.266  12.360  1.00  0.00    -0.338 N 
HETATM    4  C1  UNL     1     -17.143  15.481  12.723  1.00  0.00     0.142 A 
ATOM      5  H2  UNL     1     -17.913  14.098  11.417  1.00  0.00     0.168 HD
HETATM    6  S2  UNL     1     -16.662  15.259  14.344  1.00  0.00    -0.064 SA
HETATM    7  C20 UNL     1     -17.025  13.597  14.482  1.00  0.00     0.081 A 
BRANCH   4   8
HETATM    8  N1  UNL     1     -17.103  16.593  12.041  1.00  0.00    -0.380 N 
ATOM      9  H12 UNL     1     -17.542  17.479  12.291  1.00  0.00     0.158 HD
ATOM     10  H11 UNL     1     -16.650  16.800  11.151  1.00  0.00     0.158 HD
ENDBRANCH   4   8
ENDBRANCH   1   2
BRANCH   1  11
HETATM   11  N3  UNL     1     -17.209  10.944  13.736  1.00  0.00    -0.341 N 
HETATM   12  C4  UNL     1     -16.889   9.648  13.308  1.00  0.00     0.246 C 
HETATM   13  O1  UNL     1     -17.277   9.313  12.150  1.00  0.00    -0.271 OA
ATOM     14  H3  UNL     1     -16.902  11.241  14.663  1.00  0.00     0.163 HD
BRANCH  12  15
HETATM   15  C5  UNL     1     -16.125   8.666  14.138  1.00  0.00     0.218 C 
BRANCH  15  16
HETATM   16  C6  UNL     1     -16.600   8.758  15.544  1.00  0.00    -0.016 A 
HETATM   17  C7  UNL     1     -16.912   9.959  16.117  1.00  0.00     0.062 A 
HETATM   18  S1  UNL     1     -17.412   9.537  17.687  1.00  0.00    -0.077 SA
HETATM   19  C8  UNL     1     -17.218   7.851  17.594  1.00  0.00     0.107 A 
HETATM   20  C9  UNL     1     -16.762   7.653  16.325  1.00  0.00     0.054 A 
BRANCH  19  21
HETATM   21  O2  UNL     1     -17.462   6.867  18.579  1.00  0.00    -0.354 OA
ATOM     22  H2  UNL     1     -18.180   6.248  18.645  1.00  0.00     0.218 HD
ENDBRANCH  19  21
ENDBRANCH  15  16
BRANCH  15  23
HETATM   23  N4  UNL     1     -14.739   8.893  13.915  1.00  0.00    -0.305 N 
HETATM   24  C10 UNL     1     -14.099   7.852  13.274  1.00  0.00     0.096 A 
HETATM   25  C11 UNL     1     -12.777   7.907  12.986  1.00  0.00     0.019 A 
HETATM   26  C12 UNL     1     -12.037   9.009  13.328  1.00  0.00     0.034 A 
HETATM   27  C13 UNL     1     -12.647  10.055  13.964  1.00  0.00     0.114 A 
HETATM   28  N5  UNL     1     -11.986  11.238  14.363  1.00  0.00    -0.097 NA
HETATM   29  C14 UNL     1     -14.006   9.948  14.236  1.00  0.00     0.272 A 
HETATM   30  O3  UNL     1     -14.566  10.912  14.821  1.00  0.00    -0.266 OA
ENDBRANCH  15  23
ENDBRANCH  12  15
ENDBRANCH   1  11
BRANCH   1  31
HETATM   31  C15 UNL     1     -19.376  11.796  13.262  1.00  0.00     0.248 C 
HETATM   32  O4  UNL     1     -20.129  12.827  13.185  1.00  0.00    -0.271 OA
HETATM   33  N6  UNL     1     -20.013  10.588  13.700  1.00  0.00    -0.329 N 
ATOM     34  H6  UNL     1     -19.454   9.738  13.777  1.00  0.00     0.165 HD
BRANCH  33  35
HETATM   35  C16 UNL     1     -21.395  10.529  14.031  1.00  0.00     0.280 C 
HETATM   36  O5  UNL     1     -21.662   9.630  15.083  1.00  0.00    -0.205 OA
HETATM   37  O6  UNL     1     -22.996   9.464  15.050  1.00  0.00    -0.156 OA
HETATM   38  C17 UNL     1     -23.349   9.329  13.715  1.00  0.00     0.302 C 
HETATM   39  O7  UNL     1     -24.401   8.794  13.315  1.00  0.00    -0.262 OA
HETATM   40  C18 UNL     1     -22.236   9.939  12.949  1.00  0.00     0.194 C 
BRANCH  40  41
HETATM   41  C19 UNL     1     -22.664  10.952  11.942  1.00  0.00     0.271 C 
BRANCH  41  42
HETATM   42  O8  UNL     1     -21.636  11.061  11.000  1.00  0.00    -0.370 OA
ATOM     43  H8  UNL     1     -22.043  11.154  10.147  1.00  0.00     0.212 HD
ENDBRANCH  41  42
BRANCH  41  44
HETATM   44  O9  UNL     1     -23.872  10.721  11.336  1.00  0.00    -0.370 OA
ATOM     45  H9  UNL     1     -23.850  10.621  10.392  1.00  0.00     0.212 HD
ENDBRANCH  41  44
ENDBRANCH  40  41
ENDBRANCH  33  35
ENDBRANCH   1  31
TORSDOF 12
ENDMDL
MODEL 3
REMARK VINA RESULT: -9.100313338      3.134      6.659
REMARK  12 active torsions:
REMARK  status: ('A' for Active; 'I' for Inactive)
REMARK    1  A    between atoms: N1_1  and  C1_4 
REMARK    2  A    between atoms: C2_7  and  C3_8 
REMARK    3  A    between atoms: C3_8  and  N3_9 
REMARK    4  A    between atoms: C3_8  and  C15_29 
REMARK       I    between atoms: N3_9  and  C4_11 
REMARK    5  A    between atoms: C4_11  and  C5_13 
REMARK    6  A    between atoms: C5_13  and  C6_14 
REMARK    7  A    between atoms: C5_13  and  N4_21 
REMARK    8  A    between atoms: C8_17  and  O2_18 
REMARK       I    between atoms: C15_29  and  N6_31 
REMARK    9  A    between atoms: N6_31  and  C16_33 
REMARK   10  A    between atoms: C18_38  and  C19_39 
REMARK   11  A    between atoms: C19_39  and  O8_40 
REMARK   12  A    between atoms: C19_39  and  O9_42 
ROOT
HETATM    1  C3  UNL     1     -18.316  10.267  17.509  1.00  0.00     0.227 C 
ENDROOT
BRANCH   1   2
HETATM    2  C2  UNL     1     -17.064  11.008  17.950  1.00  0.00     0.050 A 
HETATM    3  N2  UNL     1     -16.985  11.647  19.079  1.00  0.00    -0.338 N 
HETATM    4  C1  UNL     1     -15.846  12.272  19.383  1.00  0.00     0.142 A 
ATOM      5  H2  UNL     1     -17.779  11.670  19.720  1.00  0.00     0.168 HD
HETATM    6  S2  UNL     1     -14.854  11.950  18.034  1.00  0.00    -0.064 SA
HETATM    7  C20 UNL     1     -15.960  11.016  17.133  1.00  0.00     0.081 A 
BRANCH   4   8
HETATM    8  N1  UNL     1     -15.525  12.963  20.442  1.00  0.00    -0.380 N 
ATOM      9  H12 UNL     1     -15.517  12.633  21.408  1.00  0.00     0.158 HD
ATOM     10  H11 UNL     1     -15.233  13.937  20.527  1.00  0.00     0.158 HD
ENDBRANCH   4   8
ENDBRANCH   1   2
BRANCH   1  11
HETATM   11  N3  UNL     1     -18.886  10.924  16.343  1.00  0.00    -0.341 N 
HETATM   12  C4  UNL     1     -20.132  10.574  15.804  1.00  0.00     0.246 C 
HETATM   13  O1  UNL     1     -20.769   9.645  16.385  1.00  0.00    -0.271 OA
ATOM     14  H3  UNL     1     -18.356  11.673  15.897  1.00  0.00     0.163 HD
BRANCH  12  15
HETATM   15  C5  UNL     1     -20.732  11.233  14.603  1.00  0.00     0.218 C 
BRANCH  15  16
HETATM   16  C6  UNL     1     -21.260  12.564  15.003  1.00  0.00    -0.016 A 
HETATM   17  C7  UNL     1     -21.345  13.598  14.113  1.00  0.00     0.062 A 
HETATM   18  S1  UNL     1     -22.018  14.863  15.029  1.00  0.00    -0.077 SA
HETATM   19  C8  UNL     1     -22.181  14.065  16.521  1.00  0.00     0.107 A 
HETATM   20  C9  UNL     1     -21.702  12.815  16.267  1.00  0.00     0.054 A 
BRANCH  19  21
HETATM   21  O2  UNL     1     -22.689  14.555  17.746  1.00  0.00    -0.354 OA
ATOM     22  H2  UNL     1     -22.601  14.194  18.621  1.00  0.00     0.218 HD
ENDBRANCH  19  21
ENDBRANCH  15  16
BRANCH  15  23
HETATM   23  N4  UNL     1     -21.660  10.324  14.026  1.00  0.00    -0.305 N 
HETATM   24  C10 UNL     1     -22.976  10.598  14.336  1.00  0.00     0.096 A 
HETATM   25  C11 UNL     1     -23.986   9.827  13.867  1.00  0.00     0.019 A 
HETATM   26  C12 UNL     1     -23.721   8.746  13.067  1.00  0.00     0.034 A 
HETATM   27  C13 UNL     1     -22.425   8.452  12.744  1.00  0.00     0.114 A 
HETATM   28  N5  UNL     1     -22.035   7.367  11.929  1.00  0.00    -0.097 NA
HETATM   29  C14 UNL     1     -21.426   9.276  13.251  1.00  0.00     0.272 A 
HETATM   30  O3  UNL     1     -20.233   9.004  12.953  1.00  0.00    -0.266 OA
ENDBRANCH  15  23
ENDBRANCH  12  15
ENDBRANCH   1  11
BRANCH   1  31
HETATM   31  C15 UNL     1     -17.907   8.912  17.143  1.00  0.00     0.248 C 
HETATM   32  O4  UNL     1     -17.540   8.080  18.042  1.00  0.00    -0.271 OA
HETATM   33  N6  UNL     1     -17.885   8.425  15.793  1.00  0.00    -0.329 N 
ATOM     34  H6  UNL     1     -18.170   9.052  15.041  1.00  0.00     0.165 HD
BRANCH  33  35
HETATM   35  C16 UNL     1     -17.482   7.102  15.464  1.00  0.00     0.280 C 
HETATM   36  O5  UNL     1     -16.138   7.034  15.050  1.00  0.00    -0.205 OA
HETATM   37  O6  UNL     1     -16.022   5.815  14.492  1.00  0.00    -0.156 OA
HETATM   38  C17 UNL     1     -17.155   5.623  13.715  1.00  0.00     0.302 C 
HETATM   39  O7  UNL     1     -17.233   4.810  12.774  1.00  0.00    -0.262 OA
HETATM   40  C18 UNL     1     -18.168   6.560  14.255  1.00  0.00     0.194 C 
BRANCH  40  41
HETATM   41  C19 UNL     1     -19.481   5.930  14.578  1.00  0.00     0.271 C 
BRANCH  41  42
HETATM   42  O8  UNL     1     -20.189   6.832  15.379  1.00  0.00    -0.370 OA
ATOM     43  H8  UNL     1     -20.785   6.324  15.916  1.00  0.00     0.212 HD
ENDBRANCH  41  42
BRANCH  41  44
HETATM   44  O9  UNL     1     -20.230   5.524  13.503  1.00  0.00    -0.370 OA
ATOM     45  H9  UNL     1     -20.304   4.585  13.381  1.00  0.00     0.212 HD
ENDBRANCH  41  44
ENDBRANCH  40  41
ENDBRANCH  33  35
ENDBRANCH   1  31
TORSDOF 12
ENDMDL
MODEL 4
REMARK VINA RESULT: -9.001303962      3.486      6.240
REMARK  12 active torsions:
REMARK  status: ('A' for Active; 'I' for Inactive)
REMARK    1  A    between atoms: N1_1  and  C1_4 
REMARK    2  A    between atoms: C2_7  and  C3_8 
REMARK    3  A    between atoms: C3_8  and  N3_9 
REMARK    4  A    between atoms: C3_8  and  C15_29 
REMARK       I    between atoms: N3_9  and  C4_11 
REMARK    5  A    between atoms: C4_11  and  C5_13 
REMARK    6  A    between atoms: C5_13  and  C6_14 
REMARK    7  A    between atoms: C5_13  and  N4_21 
REMARK    8  A    between atoms: C8_17  and  O2_18 
REMARK       I    between atoms: C15_29  and  N6_31 
REMARK    9  A    between atoms: N6_31  and  C16_33 
REMARK   10  A    between atoms: C18_38  and  C19_39 
REMARK   11  A    between atoms: C19_39  and  O8_40 
REMARK   12  A    between atoms: C19_39  and  O9_42 
ROOT
HETATM    1  C3  UNL     1     -17.798  11.439  13.790  1.00  0.00     0.227 C 
ENDROOT
BRANCH   1   2
HETATM    2  C2  UNL     1     -19.105  11.488  14.565  1.00  0.00     0.050 A 
HETATM    3  N2  UNL     1     -19.152  11.601  15.858  1.00  0.00    -0.338 N 
HETATM    4  C1  UNL     1     -20.345  11.634  16.455  1.00  0.00     0.142 A 
ATOM      5  H2  UNL     1     -18.294  11.663  16.406  1.00  0.00     0.168 HD
HETATM    6  S2  UNL     1     -21.436  11.500  15.152  1.00  0.00    -0.064 SA
HETATM    7  C20 UNL     1     -20.296  11.408  13.886  1.00  0.00     0.081 A 
BRANCH   4   8
HETATM    8  N1  UNL     1     -20.648  11.747  17.719  1.00  0.00    -0.380 N 
ATOM      9  H12 UNL     1     -21.533  12.070  18.110  1.00  0.00     0.158 HD
ATOM     10  H11 UNL     1     -20.086  11.552  18.548  1.00  0.00     0.158 HD
ENDBRANCH   4   8
ENDBRANCH   1   2
BRANCH   1  11
HETATM   11  N3  UNL     1     -16.689  11.736  14.684  1.00  0.00    -0.341 N 
HETATM   12  C4  UNL     1     -16.016  12.965  14.682  1.00  0.00     0.246 C 
HETATM   13  O1  UNL     1     -16.419  13.839  13.858  1.00  0.00    -0.271 OA
ATOM     14  H3  UNL     1     -16.388  11.017  15.342  1.00  0.00     0.163 HD
BRANCH  12  15
HETATM   15  C5  UNL     1     -14.871  13.286  15.589  1.00  0.00     0.218 C 
BRANCH  15  16
HETATM   16  C6  UNL     1     -13.667  12.553  15.115  1.00  0.00    -0.016 A 
HETATM   17  C7  UNL     1     -12.437  13.147  15.072  1.00  0.00     0.062 A 
HETATM   18  S1  UNL     1     -11.415  11.916  14.495  1.00  0.00    -0.077 SA
HETATM   19  C8  UNL     1     -12.559  10.671  14.316  1.00  0.00     0.107 A 
HETATM   20  C9  UNL     1     -13.726  11.251  14.717  1.00  0.00     0.054 A 
BRANCH  19  21
HETATM   21  O2  UNL     1     -12.374   9.344  13.864  1.00  0.00    -0.354 OA
ATOM     22  H2  UNL     1     -12.850   8.557  14.100  1.00  0.00     0.218 HD
ENDBRANCH  19  21
ENDBRANCH  15  16
BRANCH  15  23
HETATM   23  N4  UNL     1     -15.290  13.032  16.924  1.00  0.00    -0.305 N 
HETATM   24  C10 UNL     1     -14.859  11.820  17.423  1.00  0.00     0.096 A 
HETATM   25  C11 UNL     1     -15.172  11.424  18.680  1.00  0.00     0.019 A 
HETATM   26  C12 UNL     1     -15.931  12.226  19.492  1.00  0.00     0.034 A 
HETATM   27  C13 UNL     1     -16.370  13.433  19.022  1.00  0.00     0.114 A 
HETATM   28  N5  UNL     1     -17.155  14.339  19.768  1.00  0.00    -0.097 NA
HETATM   29  C14 UNL     1     -16.020  13.792  17.725  1.00  0.00     0.272 A 
HETATM   30  O3  UNL     1     -16.426  14.904  17.294  1.00  0.00    -0.266 OA
ENDBRANCH  15  23
ENDBRANCH  12  15
ENDBRANCH   1  11
BRANCH   1  31
HETATM   31  C15 UNL     1     -17.650  10.077  13.280  1.00  0.00     0.248 C 
HETATM   32  O4  UNL     1     -17.551   9.862  12.023  1.00  0.00    -0.271 OA
HETATM   33  N6  UNL     1     -17.609   8.914  14.119  1.00  0.00    -0.329 N 
ATOM     34  H6  UNL     1     -17.685   9.035  15.129  1.00  0.00     0.165 HD
BRANCH  33  35
HETATM   35  C16 UNL     1     -17.466   7.599  13.596  1.00  0.00     0.280 C 
HETATM   36  O5  UNL     1     -18.438   6.710  14.095  1.00  0.00    -0.205 OA
HETATM   37  O6  UNL     1     -17.977   5.491  13.762  1.00  0.00    -0.156 OA
HETATM   38  C17 UNL     1     -16.617   5.491  14.033  1.00  0.00     0.302 C 
HETATM   39  O7  UNL     1     -15.935   4.464  14.214  1.00  0.00    -0.262 OA
HETATM   40  C18 UNL     1     -16.217   6.918  14.047  1.00  0.00     0.194 C 
BRANCH  40  41
HETATM   41  C19 UNL     1     -15.046   7.239  13.180  1.00  0.00     0.271 C 
BRANCH  41  42
HETATM   42  O8  UNL     1     -15.025   8.627  13.009  1.00  0.00    -0.370 OA
ATOM     43  H8  UNL     1     -14.589   8.803  12.184  1.00  0.00     0.212 HD
ENDBRANCH  41  42
BRANCH  41  44
HETATM   44  O9  UNL     1     -13.833   6.772  13.616  1.00  0.00    -0.370 OA
ATOM     45  H9  UNL     1     -13.476   6.034  13.136  1.00  0.00     0.212 HD
ENDBRANCH  41  44
ENDBRANCH  40  41
ENDBRANCH  33  35
ENDBRANCH   1  31
TORSDOF 12
ENDMDL
MODEL 5
REMARK VINA RESULT: -8.980263843      2.643      6.018
REMARK  12 active torsions:
REMARK  status: ('A' for Active; 'I' for Inactive)
REMARK    1  A    between atoms: N1_1  and  C1_4 
REMARK    2  A    between atoms: C2_7  and  C3_8 
REMARK    3  A    between atoms: C3_8  and  N3_9 
REMARK    4  A    between atoms: C3_8  and  C15_29 
REMARK       I    between atoms: N3_9  and  C4_11 
REMARK    5  A    between atoms: C4_11  and  C5_13 
REMARK    6  A    between atoms: C5_13  and  C6_14 
REMARK    7  A    between atoms: C5_13  and  N4_21 
REMARK    8  A    between atoms: C8_17  and  O2_18 
REMARK       I    between atoms: C15_29  and  N6_31 
REMARK    9  A    between atoms: N6_31  and  C16_33 
REMARK   10  A    between atoms: C18_38  and  C19_39 
REMARK   11  A    between atoms: C19_39  and  O8_40 
REMARK   12  A    between atoms: C19_39  and  O9_42 
ROOT
HETATM    1  C3  UNL     1     -18.248   9.162  16.111  1.00  0.00     0.227 C 
ENDROOT
BRANCH   1   2
HETATM    2  C2  UNL     1     -16.933   9.142  15.348  1.00  0.00     0.050 A 
HETATM    3  N2  UNL     1     -16.449   8.063  14.809  1.00  0.00    -0.338 N 
HETATM    4  C1  UNL     1     -15.285   8.138  14.159  1.00  0.00     0.142 A 
ATOM      5  H2  UNL     1     -16.949   7.176  14.881  1.00  0.00     0.168 HD
HETATM    6  S2  UNL     1     -14.859   9.782  14.315  1.00  0.00    -0.064 SA
HETATM    7  C20 UNL     1     -16.211  10.302  15.216  1.00  0.00     0.081 A 
BRANCH   4   8
HETATM    8  N1  UNL     1     -14.610   7.211  13.538  1.00  0.00    -0.380 N 
ATOM      9  H12 UNL     1     -13.707   6.825  13.813  1.00  0.00     0.158 HD
ATOM     10  H11 UNL     1     -14.829   6.703  12.681  1.00  0.00     0.158 HD
ENDBRANCH   4   8
ENDBRANCH   1   2
BRANCH   1  11
HETATM   11  N3  UNL     1     -18.618  10.538  16.408  1.00  0.00    -0.341 N 
HETATM   12  C4  UNL     1     -19.744  10.876  17.170  1.00  0.00     0.246 C 
HETATM   13  O1  UNL     1     -20.448   9.920  17.611  1.00  0.00    -0.271 OA
ATOM     14  H3  UNL     1     -18.030  11.289  16.046  1.00  0.00     0.163 HD
BRANCH  12  15
HETATM   15  C5  UNL     1     -20.144  12.284  17.481  1.00  0.00     0.218 C 
BRANCH  15  16
HETATM   16  C6  UNL     1     -20.922  12.824  16.334  1.00  0.00    -0.016 A 
HETATM   17  C7  UNL     1     -21.588  14.013  16.418  1.00  0.00     0.062 A 
HETATM   18  S1  UNL     1     -22.285  14.194  14.877  1.00  0.00    -0.077 SA
HETATM   19  C8  UNL     1     -21.723  12.762  14.152  1.00  0.00     0.107 A 
HETATM   20  C9  UNL     1     -20.995  12.170  15.141  1.00  0.00     0.054 A 
BRANCH  19  21
HETATM   21  O2  UNL     1     -21.941  12.277  12.842  1.00  0.00    -0.354 OA
ATOM     22  H2  UNL     1     -21.312  11.946  12.211  1.00  0.00     0.218 HD
ENDBRANCH  19  21
ENDBRANCH  15  16
BRANCH  15  23
HETATM   23  N4  UNL     1     -18.970  12.998  17.849  1.00  0.00    -0.305 N 
HETATM   24  C10 UNL     1     -18.457  13.787  16.840  1.00  0.00     0.096 A 
HETATM   25  C11 UNL     1     -17.340  14.531  17.025  1.00  0.00     0.019 A 
HETATM   26  C12 UNL     1     -16.688  14.517  18.231  1.00  0.00     0.034 A 
HETATM   27  C13 UNL     1     -17.176  13.743  19.248  1.00  0.00     0.114 A 
HETATM   28  N5  UNL     1     -16.589  13.651  20.529  1.00  0.00    -0.097 NA
HETATM   29  C14 UNL     1     -18.325  12.999  19.005  1.00  0.00     0.272 A 
HETATM   30  O3  UNL     1     -18.773  12.287  19.943  1.00  0.00    -0.266 OA
ENDBRANCH  15  23
ENDBRANCH  12  15
ENDBRANCH   1  11
BRANCH   1  31
HETATM   31  C15 UNL     1     -19.261   8.573  15.238  1.00  0.00     0.248 C 
HETATM   32  O4  UNL     1     -19.522   7.322  15.298  1.00  0.00    -0.271 OA
HETATM   33  N6  UNL     1     -20.016   9.323  14.276  1.00  0.00    -0.329 N 
ATOM     34  H6  UNL     1     -19.844  10.324  14.191  1.00  0.00     0.165 HD
BRANCH  33  35
HETATM   35  C16 UNL     1     -20.997   8.724  13.437  1.00  0.00     0.280 C 
HETATM   36  O5  UNL     1     -21.082   9.345  12.176  1.00  0.00    -0.205 OA
HETATM   37  O6  UNL     1     -22.231   8.881  11.653  1.00  0.00    -0.156 OA
HETATM   38  C17 UNL     1     -23.172   8.906  12.671  1.00  0.00     0.302 C 
HETATM   39  O7  UNL     1     -24.405   8.917  12.490  1.00  0.00    -0.262 OA
HETATM   40  C18 UNL     1     -22.392   8.916  13.931  1.00  0.00     0.194 C 
BRANCH  40  41
HETATM   41  C19 UNL     1     -22.798   7.871  14.916  1.00  0.00     0.271 C 
BRANCH  41  42
HETATM   42  O8  UNL     1     -22.312   6.646  14.446  1.00  0.00    -0.370 OA
ATOM     43  H8  UNL     1     -21.366   6.670  14.523  1.00  0.00     0.212 HD
ENDBRANCH  41  42
BRANCH  41  44
HETATM   44  O9  UNL     1     -22.418   8.093  16.214  1.00  0.00    -0.370 OA
ATOM     45  H9  UNL     1     -21.678   8.676  16.336  1.00  0.00     0.212 HD
ENDBRANCH  41  44
ENDBRANCH  40  41
ENDBRANCH  33  35
ENDBRANCH   1  31
TORSDOF 12
ENDMDL
