MODEL 1
REMARK VINA RESULT: -7.646925527      0.000      0.000
REMARK  16 active torsions:
REMARK  status: ('A' for Active; 'I' for Inactive)
REMARK    1  A    between atoms: O1_2  and  C2_3 
REMARK    2  A    between atoms: C2_3  and  C3_5 
REMARK    3  A    between atoms: C3_5  and  N1_6 
REMARK    4  A    between atoms: C3_5  and  C4_10 
REMARK    5  A    between atoms: C4_10  and  S1_11 
REMARK    6  A    between atoms: S1_11  and  S2_12 
REMARK    7  A    between atoms: S2_12  and  C5_13 
REMARK    8  A    between atoms: C5_13  and  C6_14 
REMARK    9  A    between atoms: C6_14  and  C8_17 
REMARK   10  A    between atoms: C8_17  and  O4_19 
REMARK   11  A    between atoms: O4_19  and  C9_20 
REMARK   12  A    between atoms: C9_20  and  C10_21 
REMARK   13  A    between atoms: C9_20  and  C11_24 
REMARK   14  A    between atoms: C12_28  and  N4_29 
REMARK   15  A    between atoms: C12_28  and  C13_33 
REMARK   16  A    between atoms: C19_42  and  O10_43 
ROOT
HETATM    1  C9  UNL     1     -18.639   8.108  14.828  1.00  0.00     0.269 C 
ENDROOT
BRANCH   1   2
HETATM    2  O4  UNL     1     -18.122   8.570  13.595  1.00  0.00    -0.298 OA
BRANCH   2   3
HETATM    3  C8  UNL     1     -16.932   8.216  13.063  1.00  0.00     0.303 C 
HETATM    4  O3  UNL     1     -16.873   7.362  12.152  1.00  0.00    -0.258 OA
BRANCH   3   5
HETATM    5  C6  UNL     1     -15.641   8.808  13.514  1.00  0.00     0.105 C 
HETATM    6  C7  UNL     1     -14.503   8.236  13.175  1.00  0.00     0.126 C 
HETATM    7  N2  UNL     1     -13.280   8.787  13.592  1.00  0.00    -0.113 NA
BRANCH   5   8
HETATM    8  C5  UNL     1     -15.618   9.976  14.299  1.00  0.00    -0.054 C 
BRANCH   8   9
HETATM    9  S2  UNL     1     -15.632  11.165  15.070  1.00  0.00    -0.013 SA
BRANCH   9  10
HETATM   10  S1  UNL     1     -15.628  12.935  16.118  1.00  0.00    -0.082 SA
BRANCH  10  11
HETATM   11  C4  UNL     1     -16.888  12.779  17.454  1.00  0.00     0.130 C 
BRANCH  11  12
HETATM   12  C3  UNL     1     -16.333  11.795  18.449  1.00  0.00     0.292 C 
BRANCH  12  13
HETATM   13  C2  UNL     1     -17.372  11.041  19.178  1.00  0.00     0.290 C 
HETATM   14  O2  UNL     1     -17.961  11.534  20.195  1.00  0.00    -0.263 OA
BRANCH  13  15
HETATM   15  O1  UNL     1     -17.720   9.771  18.754  1.00  0.00    -0.325 OA
HETATM   16  C1  UNL     1     -16.892   8.968  17.961  1.00  0.00     0.213 C 
ENDBRANCH  13  15
ENDBRANCH  12  13
BRANCH  12  17
HETATM   17  N1  UNL     1     -15.388  12.386  19.351  1.00  0.00    -0.065 N 
ATOM     18  H13 UNL     1     -15.133  13.330  19.060  1.00  0.00     0.275 HD
ATOM     19  H12 UNL     1     -15.816  12.607  20.249  1.00  0.00     0.275 HD
ATOM     20  H11 UNL     1     -14.564  11.794  19.465  1.00  0.00     0.275 HD
ENDBRANCH  12  17
ENDBRANCH  11  12
ENDBRANCH  10  11
ENDBRANCH   9  10
ENDBRANCH   8   9
ENDBRANCH   5   8
ENDBRANCH   3   5
ENDBRANCH   2   3
ENDBRANCH   1   2
BRANCH   1  21
HETATM   21  C10 UNL     1     -18.278   6.687  14.988  1.00  0.00     0.206 C 
HETATM   22  O5  UNL     1     -19.011   5.748  14.534  1.00  0.00    -0.646 OA
HETATM   23  O6  UNL     1     -17.129   6.338  15.638  1.00  0.00    -0.646 OA
ENDBRANCH   1  21
BRANCH   1  24
HETATM   24  C11 UNL     1     -20.102   8.319  15.001  1.00  0.00     0.291 C 
HETATM   25  N3  UNL     1     -20.686   8.300  13.651  1.00  0.00    -0.018 N 
HETATM   26  C12 UNL     1     -22.072   7.891  13.827  1.00  0.00     0.371 C 
ATOM     27  H32 UNL     1     -20.580   9.181  13.148  1.00  0.00     0.281 HD
ATOM     28  H31 UNL     1     -20.169   7.720  12.991  1.00  0.00     0.281 HD
HETATM   29  C14 UNL     1     -22.687   8.479  15.052  1.00  0.00     0.091 C 
HETATM   30  C15 UNL     1     -22.014   9.687  15.591  1.00  0.00     0.057 C 
HETATM   31  C16 UNL     1     -22.259  10.936  14.781  1.00  0.00     0.042 C 
HETATM   32  C19 UNL     1     -20.509   9.601  15.637  1.00  0.00     0.198 C 
HETATM   33  C17 UNL     1     -20.970  11.709  15.044  1.00  0.00     0.121 C 
HETATM   34  C18 UNL     1     -21.079  12.395  16.377  1.00  0.00     0.040 C 
HETATM   35  O9  UNL     1     -19.999  10.726  15.025  1.00  0.00    -0.348 OA
BRANCH  26  36
HETATM   36  N4  UNL     1     -22.048   6.430  14.003  1.00  0.00    -0.034 N 
ATOM     37  H43 UNL     1     -22.667   5.934  13.362  1.00  0.00     0.278 HD
ATOM     38  H42 UNL     1     -21.177   5.998  13.694  1.00  0.00     0.278 HD
ATOM     39  H41 UNL     1     -22.261   6.260  14.986  1.00  0.00     0.278 HD
ENDBRANCH  26  36
BRANCH  26  40
HETATM   40  C13 UNL     1     -22.800   8.193  12.588  1.00  0.00     0.240 C 
HETATM   41  O7  UNL     1     -22.312   7.996  11.434  1.00  0.00    -0.645 OA
HETATM   42  O8  UNL     1     -24.081   8.718  12.628  1.00  0.00    -0.645 OA
ENDBRANCH  26  40
BRANCH  32  43
HETATM   43  O10 UNL     1     -20.092   9.645  16.979  1.00  0.00    -0.363 OA
ATOM     44  H10 UNL     1     -19.159   9.811  17.036  1.00  0.00     0.213 HD
ENDBRANCH  32  43
ENDBRANCH   1  24
TORSDOF 16
ENDMDL
MODEL 2
REMARK VINA RESULT: -7.631792959      0.871      1.180
REMARK  16 active torsions:
REMARK  status: ('A' for Active; 'I' for Inactive)
REMARK    1  A    between atoms: O1_2  and  C2_3 
REMARK    2  A    between atoms: C2_3  and  C3_5 
REMARK    3  A    between atoms: C3_5  and  N1_6 
REMARK    4  A    between atoms: C3_5  and  C4_10 
REMARK    5  A    between atoms: C4_10  and  S1_11 
REMARK    6  A    between atoms: S1_11  and  S2_12 
REMARK    7  A    between atoms: S2_12  and  C5_13 
REMARK    8  A    between atoms: C5_13  and  C6_14 
REMARK    9  A    between atoms: C6_14  and  C8_17 
REMARK   10  A    between atoms: C8_17  and  O4_19 
REMARK   11  A    between atoms: O4_19  and  C9_20 
REMARK   12  A    between atoms: C9_20  and  C10_21 
REMARK   13  A    between atoms: C9_20  and  C11_24 
REMARK   14  A    between atoms: C12_28  and  N4_29 
REMARK   15  A    between atoms: C12_28  and  C13_33 
REMARK   16  A    between atoms: C19_42  and  O10_43 
ROOT
HETATM    1  C9  UNL     1     -18.585   7.884  14.637  1.00  0.00     0.269 C 
ENDROOT
BRANCH   1   2
HETATM    2  O4  UNL     1     -18.224   8.101  13.287  1.00  0.00    -0.298 OA
BRANCH   2   3
HETATM    3  C8  UNL     1     -17.242   8.925  12.860  1.00  0.00     0.303 C 
HETATM    4  O3  UNL     1     -17.483   9.813  12.013  1.00  0.00    -0.258 OA
BRANCH   3   5
HETATM    5  C6  UNL     1     -15.841   8.834  13.359  1.00  0.00     0.105 C 
HETATM    6  C7  UNL     1     -15.102   7.788  13.050  1.00  0.00     0.126 C 
HETATM    7  N2  UNL     1     -13.778   7.693  13.511  1.00  0.00    -0.113 NA
BRANCH   5   8
HETATM    8  C5  UNL     1     -15.292   9.855  14.156  1.00  0.00    -0.054 C 
BRANCH   8   9
HETATM    9  S2  UNL     1     -14.771  10.909  14.947  1.00  0.00    -0.013 SA
BRANCH   9  10
HETATM   10  S1  UNL     1     -14.055  12.496  16.043  1.00  0.00    -0.082 SA
BRANCH  10  11
HETATM   11  C4  UNL     1     -15.336  12.907  17.303  1.00  0.00     0.130 C 
BRANCH  11  12
HETATM   12  C3  UNL     1     -15.357  11.759  18.277  1.00  0.00     0.292 C 
BRANCH  12  13
HETATM   13  C2  UNL     1     -16.657  11.061  18.338  1.00  0.00     0.290 C 
HETATM   14  O2  UNL     1     -16.727   9.789  18.370  1.00  0.00    -0.263 OA
BRANCH  13  15
HETATM   15  O1  UNL     1     -17.829  11.796  18.361  1.00  0.00    -0.325 OA
HETATM   16  C1  UNL     1     -18.372  12.348  19.527  1.00  0.00     0.213 C 
ENDBRANCH  13  15
ENDBRANCH  12  13
BRANCH  12  17
HETATM   17  N1  UNL     1     -14.900  12.126  19.585  1.00  0.00    -0.065 N 
ATOM     18  H13 UNL     1     -15.291  11.515  20.303  1.00  0.00     0.275 HD
ATOM     19  H12 UNL     1     -13.913  11.906  19.711  1.00  0.00     0.275 HD
ATOM     20  H11 UNL     1     -15.093  13.108  19.784  1.00  0.00     0.275 HD
ENDBRANCH  12  17
ENDBRANCH  11  12
ENDBRANCH  10  11
ENDBRANCH   9  10
ENDBRANCH   8   9
ENDBRANCH   5   8
ENDBRANCH   3   5
ENDBRANCH   2   3
ENDBRANCH   1   2
BRANCH   1  21
HETATM   21  C10 UNL     1     -18.290   6.481  14.985  1.00  0.00     0.206 C 
HETATM   22  O5  UNL     1     -19.051   5.523  14.632  1.00  0.00    -0.646 OA
HETATM   23  O6  UNL     1     -17.172   6.173  15.707  1.00  0.00    -0.646 OA
ENDBRANCH   1  21
BRANCH   1  24
HETATM   24  C11 UNL     1     -19.992   8.239  14.964  1.00  0.00     0.291 C 
HETATM   25  N3  UNL     1     -20.723   8.254  13.688  1.00  0.00    -0.018 N 
HETATM   26  C12 UNL     1     -22.113   7.985  14.026  1.00  0.00     0.371 C 
ATOM     27  H32 UNL     1     -20.591   9.112  13.152  1.00  0.00     0.281 HD
ATOM     28  H31 UNL     1     -20.340   7.615  12.991  1.00  0.00     0.281 HD
HETATM   29  C14 UNL     1     -22.529   8.650  15.294  1.00  0.00     0.091 C 
HETATM   30  C15 UNL     1     -21.688   9.797  15.723  1.00  0.00     0.057 C 
HETATM   31  C16 UNL     1     -21.903  11.049  14.910  1.00  0.00     0.042 C 
HETATM   32  C19 UNL     1     -20.202   9.566  15.605  1.00  0.00     0.198 C 
HETATM   33  C17 UNL     1     -20.525  11.697  15.009  1.00  0.00     0.121 C 
HETATM   34  C18 UNL     1     -20.418  12.414  16.326  1.00  0.00     0.040 C 
HETATM   35  O9  UNL     1     -19.660  10.625  14.910  1.00  0.00    -0.348 OA
BRANCH  26  36
HETATM   36  N4  UNL     1     -22.208   6.532  14.238  1.00  0.00    -0.034 N 
ATOM     37  H43 UNL     1     -21.660   5.987  13.573  1.00  0.00     0.278 HD
ATOM     38  H42 UNL     1     -21.732   6.213  15.082  1.00  0.00     0.278 HD
ATOM     39  H41 UNL     1     -23.203   6.308  14.224  1.00  0.00     0.278 HD
ENDBRANCH  26  36
BRANCH  26  40
HETATM   40  C13 UNL     1     -22.943   8.335  12.866  1.00  0.00     0.240 C 
HETATM   41  O7  UNL     1     -22.538   8.230  11.669  1.00  0.00    -0.645 OA
HETATM   42  O8  UNL     1     -24.235   8.806  13.035  1.00  0.00    -0.645 OA
ENDBRANCH  26  40
BRANCH  32  43
HETATM   43  O10 UNL     1     -19.636   9.591  16.892  1.00  0.00    -0.363 OA
ATOM     44  H10 UNL     1     -20.011  10.293  17.410  1.00  0.00     0.213 HD
ENDBRANCH  32  43
ENDBRANCH   1  24
TORSDOF 16
ENDMDL
MODEL 3
REMARK VINA RESULT: -7.522744305      2.729      5.508
REMARK  16 active torsions:
REMARK  status: ('A' for Active; 'I' for Inactive)
REMARK    1  A    between atoms: O1_2  and  C2_3 
REMARK    2  A    between atoms: C2_3  and  C3_5 
REMARK    3  A    between atoms: C3_5  and  N1_6 
REMARK    4  A    between atoms: C3_5  and  C4_10 
REMARK    5  A    between atoms: C4_10  and  S1_11 
REMARK    6  A    between atoms: S1_11  and  S2_12 
REMARK    7  A    between atoms: S2_12  and  C5_13 
REMARK    8  A    between atoms: C5_13  and  C6_14 
REMARK    9  A    between atoms: C6_14  and  C8_17 
REMARK   10  A    between atoms: C8_17  and  O4_19 
REMARK   11  A    between atoms: O4_19  and  C9_20 
REMARK   12  A    between atoms: C9_20  and  C10_21 
REMARK   13  A    between atoms: C9_20  and  C11_24 
REMARK   14  A    between atoms: C12_28  and  N4_29 
REMARK   15  A    between atoms: C12_28  and  C13_33 
REMARK   16  A    between atoms: C19_42  and  O10_43 
ROOT
HETATM    1  C9  UNL     1     -20.423   7.504  14.046  1.00  0.00     0.269 C 
ENDROOT
BRANCH   1   2
HETATM    2  O4  UNL     1     -21.213   7.482  15.219  1.00  0.00    -0.298 OA
BRANCH   2   3
HETATM    3  C8  UNL     1     -22.366   8.163  15.400  1.00  0.00     0.303 C 
HETATM    4  O3  UNL     1     -23.187   7.799  16.270  1.00  0.00    -0.258 OA
BRANCH   3   5
HETATM    5  C6  UNL     1     -22.727   9.364  14.595  1.00  0.00     0.105 C 
HETATM    6  C7  UNL     1     -23.494   9.234  13.532  1.00  0.00     0.126 C 
HETATM    7  N2  UNL     1     -23.843  10.360  12.767  1.00  0.00    -0.113 NA
BRANCH   5   8
HETATM    8  C5  UNL     1     -22.261  10.641  14.957  1.00  0.00    -0.054 C 
BRANCH   8   9
HETATM    9  S2  UNL     1     -21.771  11.910  15.356  1.00  0.00    -0.013 SA
BRANCH   9  10
HETATM   10  S1  UNL     1     -21.084  13.734  16.015  1.00  0.00    -0.082 SA
BRANCH  10  11
HETATM   11  C4  UNL     1     -19.442  13.444  16.800  1.00  0.00     0.130 C 
BRANCH  11  12
HETATM   12  C3  UNL     1     -19.652  13.575  18.285  1.00  0.00     0.292 C 
BRANCH  12  13
HETATM   13  C2  UNL     1     -18.718  12.760  19.088  1.00  0.00     0.290 C 
HETATM   14  O2  UNL     1     -18.640  11.497  18.937  1.00  0.00    -0.263 OA
BRANCH  13  15
HETATM   15  O1  UNL     1     -17.907  13.373  20.027  1.00  0.00    -0.325 OA
HETATM   16  C1  UNL     1     -16.549  13.074  20.186  1.00  0.00     0.213 C 
ENDBRANCH  13  15
ENDBRANCH  12  13
BRANCH  12  17
HETATM   17  N1  UNL     1     -21.011  13.352  18.680  1.00  0.00    -0.065 N 
ATOM     18  H13 UNL     1     -21.194  12.362  18.848  1.00  0.00     0.275 HD
ATOM     19  H12 UNL     1     -21.191  13.707  19.619  1.00  0.00     0.275 HD
ATOM     20  H11 UNL     1     -21.664  13.743  18.001  1.00  0.00     0.275 HD
ENDBRANCH  12  17
ENDBRANCH  11  12
ENDBRANCH  10  11
ENDBRANCH   9  10
ENDBRANCH   8   9
ENDBRANCH   5   8
ENDBRANCH   3   5
ENDBRANCH   2   3
ENDBRANCH   1   2
BRANCH   1  21
HETATM   21  C10 UNL     1     -20.788   6.344  13.210  1.00  0.00     0.206 C 
HETATM   22  O5  UNL     1     -20.313   5.181  13.423  1.00  0.00    -0.646 OA
HETATM   23  O6  UNL     1     -21.660   6.494  12.170  1.00  0.00    -0.646 OA
ENDBRANCH   1  21
BRANCH   1  24
HETATM   24  C11 UNL     1     -18.956   7.555  14.291  1.00  0.00     0.291 C 
HETATM   25  N3  UNL     1     -18.758   7.183  15.700  1.00  0.00    -0.018 N 
HETATM   26  C12 UNL     1     -17.408   6.643  15.780  1.00  0.00     0.371 C 
ATOM     27  H32 UNL     1     -18.932   7.948  16.353  1.00  0.00     0.281 HD
ATOM     28  H31 UNL     1     -19.474   6.551  16.060  1.00  0.00     0.281 HD
HETATM   29  C14 UNL     1     -16.447   7.386  14.915  1.00  0.00     0.091 C 
HETATM   30  C15 UNL     1     -16.863   8.756  14.523  1.00  0.00     0.057 C 
HETATM   31  C16 UNL     1     -16.757   9.769  15.636  1.00  0.00     0.042 C 
HETATM   32  C19 UNL     1     -18.303   8.877  14.091  1.00  0.00     0.198 C 
HETATM   33  C17 UNL     1     -17.869  10.739  15.251  1.00  0.00     0.121 C 
HETATM   34  C18 UNL     1     -17.358  11.666  14.184  1.00  0.00     0.040 C 
HETATM   35  O9  UNL     1     -18.877   9.908  14.803  1.00  0.00    -0.348 OA
BRANCH  26  36
HETATM   36  N4  UNL     1     -17.489   5.265  15.269  1.00  0.00    -0.034 N 
ATOM     37  H43 UNL     1     -16.606   4.920  14.891  1.00  0.00     0.278 HD
ATOM     38  H42 UNL     1     -17.592   4.565  16.003  1.00  0.00     0.278 HD
ATOM     39  H41 UNL     1     -18.251   5.259  14.591  1.00  0.00     0.278 HD
ENDBRANCH  26  36
BRANCH  26  40
HETATM   40  C13 UNL     1     -17.020   6.587  17.195  1.00  0.00     0.240 C 
HETATM   41  O7  UNL     1     -17.339   7.482  18.036  1.00  0.00    -0.645 OA
HETATM   42  O8  UNL     1     -16.271   5.529  17.684  1.00  0.00    -0.645 OA
ENDBRANCH  26  40
BRANCH  32  43
HETATM   43  O10 UNL     1     -18.340   9.249  12.735  1.00  0.00    -0.363 OA
ATOM     44  H10 UNL     1     -18.015  10.134  12.621  1.00  0.00     0.213 HD
ENDBRANCH  32  43
ENDBRANCH   1  24
TORSDOF 16
ENDMDL
MODEL 4
REMARK VINA RESULT: -7.522300773      0.844      1.370
REMARK  16 active torsions:
REMARK  status: ('A' for Active; 'I' for Inactive)
REMARK    1  A    between atoms: O1_2  and  C2_3 
REMARK    2  A    between atoms: C2_3  and  C3_5 
REMARK    3  A    between atoms: C3_5  and  N1_6 
REMARK    4  A    between atoms: C3_5  and  C4_10 
REMARK    5  A    between atoms: C4_10  and  S1_11 
REMARK    6  A    between atoms: S1_11  and  S2_12 
REMARK    7  A    between atoms: S2_12  and  C5_13 
REMARK    8  A    between atoms: C5_13  and  C6_14 
REMARK    9  A    between atoms: C6_14  and  C8_17 
REMARK   10  A    between atoms: C8_17  and  O4_19 
REMARK   11  A    between atoms: O4_19  and  C9_20 
REMARK   12  A    between atoms: C9_20  and  C10_21 
REMARK   13  A    between atoms: C9_20  and  C11_24 
REMARK   14  A    between atoms: C12_28  and  N4_29 
REMARK   15  A    between atoms: C12_28  and  C13_33 
REMARK   16  A    between atoms: C19_42  and  O10_43 
ROOT
HETATM    1  C9  UNL     1     -18.618   8.132  14.856  1.00  0.00     0.269 C 
ENDROOT
BRANCH   1   2
HETATM    2  O4  UNL     1     -18.111   8.592  13.619  1.00  0.00    -0.298 OA
BRANCH   2   3
HETATM    3  C8  UNL     1     -16.914   8.256  13.089  1.00  0.00     0.303 C 
HETATM    4  O3  UNL     1     -16.848   7.456  12.130  1.00  0.00    -0.258 OA
BRANCH   3   5
HETATM    5  C6  UNL     1     -15.625   8.804  13.598  1.00  0.00     0.105 C 
HETATM    6  C7  UNL     1     -14.485   8.308  13.163  1.00  0.00     0.126 C 
HETATM    7  N2  UNL     1     -13.264   8.819  13.633  1.00  0.00    -0.113 NA
BRANCH   5   8
HETATM    8  C5  UNL     1     -15.608   9.851  14.538  1.00  0.00    -0.054 C 
BRANCH   8   9
HETATM    9  S2  UNL     1     -15.628  10.890  15.501  1.00  0.00    -0.013 SA
BRANCH   9  10
HETATM   10  S1  UNL     1     -15.715  12.354  16.944  1.00  0.00    -0.082 SA
BRANCH  10  11
HETATM   11  C4  UNL     1     -15.714  11.505  18.580  1.00  0.00     0.130 C 
BRANCH  11  12
HETATM   12  C3  UNL     1     -16.455  12.410  19.528  1.00  0.00     0.292 C 
BRANCH  12  13
HETATM   13  C2  UNL     1     -17.885  12.571  19.194  1.00  0.00     0.290 C 
HETATM   14  O2  UNL     1     -18.619  11.569  18.912  1.00  0.00    -0.263 OA
BRANCH  13  15
HETATM   15  O1  UNL     1     -18.447  13.836  19.184  1.00  0.00    -0.325 OA
HETATM   16  C1  UNL     1     -18.692  14.562  18.012  1.00  0.00     0.213 C 
ENDBRANCH  13  15
ENDBRANCH  12  13
BRANCH  12  17
HETATM   17  N1  UNL     1     -15.814  13.679  19.707  1.00  0.00    -0.065 N 
ATOM     18  H13 UNL     1     -15.544  14.090  18.813  1.00  0.00     0.275 HD
ATOM     19  H12 UNL     1     -16.475  14.392  20.014  1.00  0.00     0.275 HD
ATOM     20  H11 UNL     1     -15.020  13.607  20.342  1.00  0.00     0.275 HD
ENDBRANCH  12  17
ENDBRANCH  11  12
ENDBRANCH  10  11
ENDBRANCH   9  10
ENDBRANCH   8   9
ENDBRANCH   5   8
ENDBRANCH   3   5
ENDBRANCH   2   3
ENDBRANCH   1   2
BRANCH   1  21
HETATM   21  C10 UNL     1     -18.235   6.717  15.026  1.00  0.00     0.206 C 
HETATM   22  O5  UNL     1     -18.941   5.766  14.556  1.00  0.00    -0.646 OA
HETATM   23  O6  UNL     1     -17.096   6.390  15.702  1.00  0.00    -0.646 OA
ENDBRANCH   1  21
BRANCH   1  24
HETATM   24  C11 UNL     1     -20.083   8.322  15.032  1.00  0.00     0.291 C 
HETATM   25  N3  UNL     1     -20.668   8.300  13.682  1.00  0.00    -0.018 N 
HETATM   26  C12 UNL     1     -22.049   7.871  13.857  1.00  0.00     0.371 C 
ATOM     27  H32 UNL     1     -20.575   9.184  13.182  1.00  0.00     0.281 HD
ATOM     28  H31 UNL     1     -20.144   7.730  13.019  1.00  0.00     0.281 HD
HETATM   29  C14 UNL     1     -22.670   8.446  15.085  1.00  0.00     0.091 C 
HETATM   30  C15 UNL     1     -22.014   9.662  15.628  1.00  0.00     0.057 C 
HETATM   31  C16 UNL     1     -22.276  10.910  14.823  1.00  0.00     0.042 C 
HETATM   32  C19 UNL     1     -20.507   9.596  15.672  1.00  0.00     0.198 C 
HETATM   33  C17 UNL     1     -20.998  11.699  15.088  1.00  0.00     0.121 C 
HETATM   34  C18 UNL     1     -21.115  12.380  16.424  1.00  0.00     0.040 C 
HETATM   35  O9  UNL     1     -20.014  10.730  15.065  1.00  0.00    -0.348 OA
BRANCH  26  36
HETATM   36  N4  UNL     1     -22.004   6.410  14.028  1.00  0.00    -0.034 N 
ATOM     37  H43 UNL     1     -21.462   5.934  13.308  1.00  0.00     0.278 HD
ATOM     38  H42 UNL     1     -21.442   6.111  14.825  1.00  0.00     0.278 HD
ATOM     39  H41 UNL     1     -22.975   6.101  14.076  1.00  0.00     0.278 HD
ENDBRANCH  26  36
BRANCH  26  40
HETATM   40  C13 UNL     1     -22.781   8.168  12.620  1.00  0.00     0.240 C 
HETATM   41  O7  UNL     1     -22.283   8.005  11.465  1.00  0.00    -0.645 OA
HETATM   42  O8  UNL     1     -24.079   8.650  12.662  1.00  0.00    -0.645 OA
ENDBRANCH  26  40
BRANCH  32  43
HETATM   43  O10 UNL     1     -20.090   9.640  17.015  1.00  0.00    -0.363 OA
ATOM     44  H10 UNL     1     -19.198   9.325  17.100  1.00  0.00     0.213 HD
ENDBRANCH  32  43
ENDBRANCH   1  24
TORSDOF 16
ENDMDL
MODEL 5
REMARK VINA RESULT: -7.511206150      1.086      1.617
REMARK  16 active torsions:
REMARK  status: ('A' for Active; 'I' for Inactive)
REMARK    1  A    between atoms: O1_2  and  C2_3 
REMARK    2  A    between atoms: C2_3  and  C3_5 
REMARK    3  A    between atoms: C3_5  and  N1_6 
REMARK    4  A    between atoms: C3_5  and  C4_10 
REMARK    5  A    between atoms: C4_10  and  S1_11 
REMARK    6  A    between atoms: S1_11  and  S2_12 
REMARK    7  A    between atoms: S2_12  and  C5_13 
REMARK    8  A    between atoms: C5_13  and  C6_14 
REMARK    9  A    between atoms: C6_14  and  C8_17 
REMARK   10  A    between atoms: C8_17  and  O4_19 
REMARK   11  A    between atoms: O4_19  and  C9_20 
REMARK   12  A    between atoms: C9_20  and  C10_21 
REMARK   13  A    between atoms: C9_20  and  C11_24 
REMARK   14  A    between atoms: C12_28  and  N4_29 
REMARK   15  A    between atoms: C12_28  and  C13_33 
REMARK   16  A    between atoms: C19_42  and  O10_43 
ROOT
HETATM    1  C9  UNL     1     -18.454   7.929  14.314  1.00  0.00     0.269 C 
ENDROOT
BRANCH   1   2
HETATM    2  O4  UNL     1     -18.001   8.777  13.276  1.00  0.00    -0.298 OA
BRANCH   2   3
HETATM    3  C8  UNL     1     -16.802   8.689  12.660  1.00  0.00     0.303 C 
HETATM    4  O3  UNL     1     -16.735   8.445  11.435  1.00  0.00    -0.258 OA
BRANCH   3   5
HETATM    5  C6  UNL     1     -15.511   8.874  13.380  1.00  0.00     0.105 C 
HETATM    6  C7  UNL     1     -14.487   8.092  13.103  1.00  0.00     0.126 C 
HETATM    7  N2  UNL     1     -13.264   8.259  13.773  1.00  0.00    -0.113 NA
BRANCH   5   8
HETATM    8  C5  UNL     1     -15.366   9.879  14.355  1.00  0.00    -0.054 C 
BRANCH   8   9
HETATM    9  S2  UNL     1     -15.206  10.917  15.306  1.00  0.00    -0.013 SA
BRANCH   9  10
HETATM   10  S1  UNL     1     -14.898  12.387  16.711  1.00  0.00    -0.082 SA
BRANCH  10  11
HETATM   11  C4  UNL     1     -15.354  11.677  18.350  1.00  0.00     0.130 C 
BRANCH  11  12
HETATM   12  C3  UNL     1     -16.858  11.688  18.414  1.00  0.00     0.292 C 
BRANCH  12  13
HETATM   13  C2  UNL     1     -17.395  12.492  19.531  1.00  0.00     0.290 C 
HETATM   14  O2  UNL     1     -18.255  12.014  20.339  1.00  0.00    -0.263 OA
BRANCH  13  15
HETATM   15  O1  UNL     1     -16.960  13.794  19.708  1.00  0.00    -0.325 OA
HETATM   16  C1  UNL     1     -17.130  14.801  18.752  1.00  0.00     0.213 C 
ENDBRANCH  13  15
ENDBRANCH  12  13
BRANCH  12  17
HETATM   17  N1  UNL     1     -17.429  10.374  18.395  1.00  0.00    -0.065 N 
ATOM     18  H13 UNL     1     -16.856   9.725  17.855  1.00  0.00     0.275 HD
ATOM     19  H12 UNL     1     -17.362   9.924  19.307  1.00  0.00     0.275 HD
ATOM     20  H11 UNL     1     -18.392  10.393  18.058  1.00  0.00     0.275 HD
ENDBRANCH  12  17
ENDBRANCH  11  12
ENDBRANCH  10  11
ENDBRANCH   9  10
ENDBRANCH   8   9
ENDBRANCH   5   8
ENDBRANCH   3   5
ENDBRANCH   2   3
ENDBRANCH   1   2
BRANCH   1  21
HETATM   21  C10 UNL     1     -18.236   6.528  13.907  1.00  0.00     0.206 C 
HETATM   22  O5  UNL     1     -17.342   5.799  14.448  1.00  0.00    -0.646 OA
HETATM   23  O6  UNL     1     -19.002   5.971  12.924  1.00  0.00    -0.646 OA
ENDBRANCH   1  21
BRANCH   1  24
HETATM   24  C11 UNL     1     -19.864   8.160  14.729  1.00  0.00     0.291 C 
HETATM   25  N3  UNL     1     -20.637   8.332  13.489  1.00  0.00    -0.018 N 
HETATM   26  C12 UNL     1     -22.002   7.946  13.818  1.00  0.00     0.371 C 
ATOM     27  H32 UNL     1     -20.562   9.267  13.087  1.00  0.00     0.281 HD
ATOM     28  H31 UNL     1     -20.249   7.826  12.693  1.00  0.00     0.281 HD
HETATM   29  C14 UNL     1     -22.404   8.390  15.184  1.00  0.00     0.091 C 
HETATM   30  C15 UNL     1     -21.603   9.499  15.760  1.00  0.00     0.057 C 
HETATM   31  C16 UNL     1     -21.900  10.847  15.154  1.00  0.00     0.042 C 
HETATM   32  C19 UNL     1     -20.112   9.362  15.569  1.00  0.00     0.198 C 
HETATM   33  C17 UNL     1     -20.551  11.541  15.314  1.00  0.00     0.121 C 
HETATM   34  C18 UNL     1     -20.433  12.055  16.722  1.00  0.00     0.040 C 
HETATM   35  O9  UNL     1     -19.642  10.540  15.031  1.00  0.00    -0.348 OA
BRANCH  26  36
HETATM   36  N4  UNL     1     -22.024   6.474  13.809  1.00  0.00    -0.034 N 
ATOM     37  H43 UNL     1     -22.938   6.083  13.584  1.00  0.00     0.278 HD
ATOM     38  H42 UNL     1     -21.517   6.065  13.023  1.00  0.00     0.278 HD
ATOM     39  H41 UNL     1     -21.669   6.180  14.719  1.00  0.00     0.278 HD
ENDBRANCH  26  36
BRANCH  26  40
HETATM   40  C13 UNL     1     -22.885   8.426  12.748  1.00  0.00     0.240 C 
HETATM   41  O7  UNL     1     -22.531   8.480  11.531  1.00  0.00    -0.645 OA
HETATM   42  O8  UNL     1     -24.173   8.851  13.028  1.00  0.00    -0.645 OA
ENDBRANCH  26  40
BRANCH  32  43
HETATM   43  O10 UNL     1     -19.505   9.221  16.830  1.00  0.00    -0.363 OA
ATOM     44  H10 UNL     1     -20.076   9.544  17.516  1.00  0.00     0.213 HD
ENDBRANCH  32  43
ENDBRANCH   1  24
TORSDOF 16
ENDMDL
