MODEL 1
REMARK VINA RESULT: -10.687820441      0.000      0.000
REMARK  11 active torsions:
REMARK  status: ('A' for Active; 'I' for Inactive)
REMARK       I    between atoms: N3_8  and  C4_10 
REMARK       I    between atoms: C4_10  and  N4_12 
REMARK    1  A    between atoms: N4_12  and  C5_14 
REMARK    2  A    between atoms: C5_14  and  C6_19 
REMARK    3  A    between atoms: N5_15  and  O2_17 
REMARK    4  A    between atoms: C7_24  and  C8_25 
REMARK    5  A    between atoms: C8_25  and  N8_27 
REMARK       I    between atoms: N8_27  and  C10_29 
REMARK    6  A    between atoms: C10_29  and  C11_31 
REMARK    7  A    between atoms: C11_31  and  C12_32 
REMARK    8  A    between atoms: C12_32  and  N9_33 
REMARK    9  A    between atoms: C12_32  and  C16_46 
REMARK       I    between atoms: N9_33  and  C13_34 
REMARK   10  A    between atoms: C13_34  and  C14_36 
REMARK   11  A    between atoms: C15_42  and  N12_43 
ROOT
HETATM    1  C6  UNL     1     -19.763   6.540  13.565  1.00  0.00     0.211 A 
HETATM    2  N6  UNL     1     -20.792   5.672  13.523  1.00  0.00    -0.275 N 
ATOM      3  H6  UNL     1     -20.734   4.685  13.273  1.00  0.00     0.189 HD
HETATM    4  N7  UNL     1     -21.884   6.320  13.859  1.00  0.00    -0.279 N 
ATOM      5  H7  UNL     1     -22.816   5.911  13.914  1.00  0.00     0.189 HD
HETATM    6  C7  UNL     1     -21.582   7.623  14.123  1.00  0.00     0.163 A 
HETATM    7  O8  UNL     1     -20.291   7.682  13.928  1.00  0.00    -0.272 OA
ENDROOT
BRANCH   6   8
HETATM    8  C8  UNL     1     -22.428   8.742  14.533  1.00  0.00     0.157 C 
HETATM    9  C9  UNL     1     -23.656   8.838  13.599  1.00  0.00     0.041 C 
BRANCH   8  10
HETATM   10  N8  UNL     1     -21.804   9.970  14.789  1.00  0.00    -0.349 N 
HETATM   11  C10 UNL     1     -21.145  10.387  15.964  1.00  0.00     0.221 C 
HETATM   12  O3  UNL     1     -21.147   9.589  16.972  1.00  0.00    -0.273 OA
ATOM     13  H8  UNL     1     -21.829  10.648  14.028  1.00  0.00     0.163 HD
BRANCH  11  14
HETATM   14  C11 UNL     1     -20.441  11.659  16.102  1.00  0.00     0.153 C 
BRANCH  14  15
HETATM   15  C12 UNL     1     -18.933  11.560  16.096  1.00  0.00     0.276 C 
BRANCH  15  16
HETATM   16  N9  UNL     1     -18.346  11.350  17.291  1.00  0.00    -0.393 NA
HETATM   17  C13 UNL     1     -17.796  10.989  18.491  1.00  0.00     0.344 C 
HETATM   18  O4  UNL     1     -17.862   9.795  18.979  1.00  0.00    -0.249 OA
BRANCH  17  19
HETATM   19  C14 UNL     1     -17.060  11.990  19.299  1.00  0.00     0.183 A 
HETATM   20  N10 UNL     1     -17.701  12.724  20.291  1.00  0.00    -0.231 N 
HETATM   21  O5  UNL     1     -16.836  13.644  20.692  1.00  0.00    -0.155 OA
ATOM     22  H10 UNL     1     -18.649  12.583  20.641  1.00  0.00     0.197 HD
HETATM   23  N11 UNL     1     -15.750  13.531  20.041  1.00  0.00    -0.224 N 
HETATM   24  C15 UNL     1     -15.853  12.484  19.149  1.00  0.00     0.157 A 
ATOM     25  H11 UNL     1     -14.929  14.123  20.160  1.00  0.00     0.198 HD
BRANCH  24  26
HETATM   26  N12 UNL     1     -14.803  12.095  18.389  1.00  0.00    -0.382 N 
ATOM     27 2H12 UNL     1     -14.257  11.264  18.617  1.00  0.00     0.157 HD
ATOM     28 1H12 UNL     1     -14.426  12.452  17.511  1.00  0.00     0.157 HD
ENDBRANCH  24  26
ENDBRANCH  17  19
ENDBRANCH  15  16
BRANCH  15  29
HETATM   29  C16 UNL     1     -18.583  10.456  15.052  1.00  0.00     0.210 C 
HETATM   30  O6  UNL     1     -18.027   9.425  15.549  1.00  0.00    -0.646 OA
HETATM   31  O7  UNL     1     -18.860  10.637  13.775  1.00  0.00    -0.646 OA
ENDBRANCH  15  29
ENDBRANCH  14  15
ENDBRANCH  11  14
ENDBRANCH   8  10
ENDBRANCH   6   8
BRANCH   1  32
HETATM   32  C5  UNL     1     -18.351   6.413  13.308  1.00  0.00     0.183 C 
HETATM   33  N5  UNL     1     -18.026   5.423  12.513  1.00  0.00    -0.249 N 
ATOM     34  H5  UNL     1     -17.031   5.274  12.340  1.00  0.00     0.196 HD
BRANCH  32  35
HETATM   35  N4  UNL     1     -17.322   7.158  13.836  1.00  0.00    -0.289 N 
HETATM   36  C4  UNL     1     -16.416   7.965  13.138  1.00  0.00     0.328 C 
HETATM   37  N3  UNL     1     -15.450   8.759  13.727  1.00  0.00    -0.287 N 
HETATM   38  O1  UNL     1     -16.440   8.027  11.860  1.00  0.00    -0.247 OA
HETATM   39  C3  UNL     1     -14.160   8.630  13.463  1.00  0.00     0.169 A 
ATOM     40  H3  UNL     1     -15.744   9.474  14.393  1.00  0.00     0.172 HD
HETATM   41  N2  UNL     1     -13.136   8.202  12.975  1.00  0.00    -0.279 N 
HETATM   42  S1  UNL     1     -13.329  10.152  14.247  1.00  0.00    -0.038 SA
HETATM   43  N1  UNL     1     -11.974   8.704  13.041  1.00  0.00    -0.296 N 
ATOM     44  H2  UNL     1     -13.220   7.333  12.447  1.00  0.00     0.189 HD
HETATM   45  C2  UNL     1     -11.767   9.800  13.685  1.00  0.00     0.066 A 
ATOM     46  H1  UNL     1     -11.194   8.235  12.581  1.00  0.00     0.187 HD
HETATM   47  C1  UNL     1     -10.480  10.586  13.844  1.00  0.00     0.078 C 
ATOM     48  H4  UNL     1     -17.206   7.118  14.848  1.00  0.00     0.172 HD
ENDBRANCH  32  35
BRANCH  33  49
HETATM   49  O2  UNL     1     -18.888   4.583  11.904  1.00  0.00    -0.288 OA
ATOM     50  H2  UNL     1     -19.295   4.721  11.057  1.00  0.00     0.244 HD
ENDBRANCH  33  49
ENDBRANCH   1  32
TORSDOF 11
ENDMDL
MODEL 2
REMARK VINA RESULT: -10.647193049      1.125      1.623
REMARK  11 active torsions:
REMARK  status: ('A' for Active; 'I' for Inactive)
REMARK       I    between atoms: N3_8  and  C4_10 
REMARK       I    between atoms: C4_10  and  N4_12 
REMARK    1  A    between atoms: N4_12  and  C5_14 
REMARK    2  A    between atoms: C5_14  and  C6_19 
REMARK    3  A    between atoms: N5_15  and  O2_17 
REMARK    4  A    between atoms: C7_24  and  C8_25 
REMARK    5  A    between atoms: C8_25  and  N8_27 
REMARK       I    between atoms: N8_27  and  C10_29 
REMARK    6  A    between atoms: C10_29  and  C11_31 
REMARK    7  A    between atoms: C11_31  and  C12_32 
REMARK    8  A    between atoms: C12_32  and  N9_33 
REMARK    9  A    between atoms: C12_32  and  C16_46 
REMARK       I    between atoms: N9_33  and  C13_34 
REMARK   10  A    between atoms: C13_34  and  C14_36 
REMARK   11  A    between atoms: C15_42  and  N12_43 
ROOT
HETATM    1  C6  UNL     1     -19.753   6.530  13.473  1.00  0.00     0.211 A 
HETATM    2  N6  UNL     1     -20.766   5.644  13.497  1.00  0.00    -0.275 N 
ATOM      3  H6  UNL     1     -20.689   4.640  13.338  1.00  0.00     0.189 HD
HETATM    4  N7  UNL     1     -21.873   6.300  13.761  1.00  0.00    -0.279 N 
ATOM      5  H7  UNL     1     -22.799   5.881  13.841  1.00  0.00     0.189 HD
HETATM    6  C7  UNL     1     -21.596   7.627  13.910  1.00  0.00     0.163 A 
HETATM    7  O8  UNL     1     -20.304   7.691  13.726  1.00  0.00    -0.272 OA
ENDROOT
BRANCH   6   8
HETATM    8  C8  UNL     1     -22.466   8.763  14.209  1.00  0.00     0.157 C 
HETATM    9  C9  UNL     1     -23.498   8.943  13.072  1.00  0.00     0.041 C 
BRANCH   8  10
HETATM   10  N8  UNL     1     -21.859   9.953  14.628  1.00  0.00    -0.349 N 
HETATM   11  C10 UNL     1     -21.394  10.291  15.916  1.00  0.00     0.221 C 
HETATM   12  O3  UNL     1     -21.586   9.447  16.867  1.00  0.00    -0.273 OA
ATOM     13  H8  UNL     1     -21.738  10.668  13.910  1.00  0.00     0.163 HD
BRANCH  11  14
HETATM   14  C11 UNL     1     -20.688  11.529  16.235  1.00  0.00     0.153 C 
BRANCH  14  15
HETATM   15  C12 UNL     1     -20.524  11.810  17.710  1.00  0.00     0.276 C 
BRANCH  15  16
HETATM   16  N9  UNL     1     -19.314  11.533  18.237  1.00  0.00    -0.393 NA
HETATM   17  C13 UNL     1     -18.106  11.108  18.718  1.00  0.00     0.344 C 
HETATM   18  O4  UNL     1     -17.671   9.898  18.595  1.00  0.00    -0.249 OA
BRANCH  17  19
HETATM   19  C14 UNL     1     -17.207  12.061  19.412  1.00  0.00     0.183 A 
HETATM   20  N10 UNL     1     -17.713  13.029  20.273  1.00  0.00    -0.231 N 
HETATM   21  O5  UNL     1     -16.698  13.823  20.578  1.00  0.00    -0.155 OA
ATOM     22  H10 UNL     1     -18.674  13.111  20.604  1.00  0.00     0.197 HD
HETATM   23  N11 UNL     1     -15.645  13.428  19.988  1.00  0.00    -0.224 N 
HETATM   24  C15 UNL     1     -15.928  12.303  19.240  1.00  0.00     0.157 A 
ATOM     25  H11 UNL     1     -14.730  13.872  20.056  1.00  0.00     0.198 HD
BRANCH  24  26
HETATM   26  N12 UNL     1     -14.959  11.630  18.578  1.00  0.00    -0.382 N 
ATOM     27 2H12 UNL     1     -15.073  10.652  18.314  1.00  0.00     0.157 HD
ATOM     28 1H12 UNL     1     -14.064  11.927  18.189  1.00  0.00     0.157 HD
ENDBRANCH  24  26
ENDBRANCH  17  19
ENDBRANCH  15  16
BRANCH  15  29
HETATM   29  C16 UNL     1     -20.940  13.299  17.909  1.00  0.00     0.210 C 
HETATM   30  O6  UNL     1     -20.323  13.893  18.850  1.00  0.00    -0.646 OA
HETATM   31  O7  UNL     1     -21.865  13.839  17.139  1.00  0.00    -0.646 OA
ENDBRANCH  15  29
ENDBRANCH  14  15
ENDBRANCH  11  14
ENDBRANCH   8  10
ENDBRANCH   6   8
BRANCH   1  32
HETATM   32  C5  UNL     1     -18.335   6.406  13.245  1.00  0.00     0.183 C 
HETATM   33  N5  UNL     1     -17.992   5.416  12.457  1.00  0.00    -0.249 N 
ATOM     34  H5  UNL     1     -16.994   5.269  12.303  1.00  0.00     0.196 HD
BRANCH  32  35
HETATM   35  N4  UNL     1     -17.318   7.153  13.794  1.00  0.00    -0.289 N 
HETATM   36  C4  UNL     1     -16.415   7.979  13.118  1.00  0.00     0.328 C 
HETATM   37  N3  UNL     1     -15.462   8.774  13.728  1.00  0.00    -0.287 N 
HETATM   38  O1  UNL     1     -16.428   8.062  11.841  1.00  0.00    -0.247 OA
HETATM   39  C3  UNL     1     -14.168   8.662  13.473  1.00  0.00     0.169 A 
ATOM     40  H3  UNL     1     -15.769   9.475  14.403  1.00  0.00     0.172 HD
HETATM   41  N2  UNL     1     -13.136   8.252  12.987  1.00  0.00    -0.279 N 
HETATM   42  S1  UNL     1     -13.360  10.179  14.289  1.00  0.00    -0.038 SA
HETATM   43  N1  UNL     1     -11.979   8.765  13.072  1.00  0.00    -0.296 N 
ATOM     44  H2  UNL     1     -13.207   7.391  12.444  1.00  0.00     0.189 HD
HETATM   45  C2  UNL     1     -11.789   9.852  13.735  1.00  0.00     0.066 A 
ATOM     46  H1  UNL     1     -11.191   8.311  12.610  1.00  0.00     0.187 HD
HETATM   47  C1  UNL     1     -10.512  10.649  13.918  1.00  0.00     0.078 C 
ATOM     48  H4  UNL     1     -17.210   7.097  14.806  1.00  0.00     0.172 HD
ENDBRANCH  32  35
BRANCH  33  49
HETATM   49  O2  UNL     1     -18.841   4.575  11.830  1.00  0.00    -0.288 OA
ATOM     50  H2  UNL     1     -18.737   3.634  11.757  1.00  0.00     0.244 HD
ENDBRANCH  33  49
ENDBRANCH   1  32
TORSDOF 11
ENDMDL
MODEL 3
REMARK VINA RESULT: -10.189023659      2.652      3.535
REMARK  11 active torsions:
REMARK  status: ('A' for Active; 'I' for Inactive)
REMARK       I    between atoms: N3_8  and  C4_10 
REMARK       I    between atoms: C4_10  and  N4_12 
REMARK    1  A    between atoms: N4_12  and  C5_14 
REMARK    2  A    between atoms: C5_14  and  C6_19 
REMARK    3  A    between atoms: N5_15  and  O2_17 
REMARK    4  A    between atoms: C7_24  and  C8_25 
REMARK    5  A    between atoms: C8_25  and  N8_27 
REMARK       I    between atoms: N8_27  and  C10_29 
REMARK    6  A    between atoms: C10_29  and  C11_31 
REMARK    7  A    between atoms: C11_31  and  C12_32 
REMARK    8  A    between atoms: C12_32  and  N9_33 
REMARK    9  A    between atoms: C12_32  and  C16_46 
REMARK       I    between atoms: N9_33  and  C13_34 
REMARK   10  A    between atoms: C13_34  and  C14_36 
REMARK   11  A    between atoms: C15_42  and  N12_43 
ROOT
HETATM    1  C6  UNL     1     -19.768   6.766  13.436  1.00  0.00     0.211 A 
HETATM    2  N6  UNL     1     -20.792   5.959  13.769  1.00  0.00    -0.275 N 
ATOM      3  H6  UNL     1     -20.726   4.967  13.993  1.00  0.00     0.189 HD
HETATM    4  N7  UNL     1     -21.894   6.675  13.755  1.00  0.00    -0.279 N 
ATOM      5  H7  UNL     1     -22.826   6.321  13.970  1.00  0.00     0.189 HD
HETATM    6  C7  UNL     1     -21.602   7.961  13.409  1.00  0.00     0.163 A 
HETATM    7  O8  UNL     1     -20.307   7.942  13.234  1.00  0.00    -0.272 OA
ENDROOT
BRANCH   6   8
HETATM    8  C8  UNL     1     -22.461   9.133  13.254  1.00  0.00     0.157 C 
HETATM    9  C9  UNL     1     -23.882   8.688  12.841  1.00  0.00     0.041 C 
BRANCH   8  10
HETATM   10  N8  UNL     1     -21.960  10.213  12.516  1.00  0.00    -0.349 N 
HETATM   11  C10 UNL     1     -22.175  11.591  12.727  1.00  0.00     0.221 C 
HETATM   12  O3  UNL     1     -22.974  11.938  13.672  1.00  0.00    -0.273 OA
ATOM     13  H8  UNL     1     -21.363   9.971  11.725  1.00  0.00     0.163 HD
BRANCH  11  14
HETATM   14  C11 UNL     1     -21.530  12.648  11.954  1.00  0.00     0.153 C 
BRANCH  14  15
HETATM   15  C12 UNL     1     -20.019  12.625  11.975  1.00  0.00     0.276 C 
BRANCH  15  16
HETATM   16  N9  UNL     1     -19.448  11.977  13.009  1.00  0.00    -0.393 NA
HETATM   17  C13 UNL     1     -18.733  11.341  13.988  1.00  0.00     0.344 C 
HETATM   18  O4  UNL     1     -17.453  11.176  13.947  1.00  0.00    -0.249 OA
BRANCH  17  19
HETATM   19  C14 UNL     1     -19.426  10.811  15.187  1.00  0.00     0.183 A 
HETATM   20  N10 UNL     1     -19.201   9.513  15.632  1.00  0.00    -0.231 N 
HETATM   21  O5  UNL     1     -20.090   9.288  16.588  1.00  0.00    -0.155 OA
ATOM     22  H10 UNL     1     -18.493   8.863  15.290  1.00  0.00     0.197 HD
HETATM   23  N11 UNL     1     -20.817  10.317  16.755  1.00  0.00    -0.224 N 
HETATM   24  C15 UNL     1     -20.420  11.310  15.885  1.00  0.00     0.157 A 
ATOM     25  H11 UNL     1     -21.577  10.396  17.430  1.00  0.00     0.198 HD
BRANCH  24  26
HETATM   26  N12 UNL     1     -20.978  12.543  15.915  1.00  0.00    -0.382 N 
ATOM     27 2H12 UNL     1     -20.549  13.335  15.437  1.00  0.00     0.157 HD
ATOM     28 1H12 UNL     1     -21.857  12.886  16.302  1.00  0.00     0.157 HD
ENDBRANCH  24  26
ENDBRANCH  17  19
ENDBRANCH  15  16
BRANCH  15  29
HETATM   29  C16 UNL     1     -19.583  12.053  10.592  1.00  0.00     0.210 C 
HETATM   30  O6  UNL     1     -20.138  12.617   9.595  1.00  0.00    -0.646 OA
HETATM   31  O7  UNL     1     -18.715  11.062  10.526  1.00  0.00    -0.646 OA
ENDBRANCH  15  29
ENDBRANCH  14  15
ENDBRANCH  11  14
ENDBRANCH   8  10
ENDBRANCH   6   8
BRANCH   1  32
HETATM   32  C5  UNL     1     -18.349   6.556  13.292  1.00  0.00     0.183 C 
HETATM   33  N5  UNL     1     -18.021   5.491  12.604  1.00  0.00    -0.249 N 
ATOM     34  H5  UNL     1     -17.025   5.284  12.514  1.00  0.00     0.196 HD
BRANCH  32  35
HETATM   35  N4  UNL     1     -17.322   7.296  13.832  1.00  0.00    -0.289 N 
HETATM   36  C4  UNL     1     -16.400   8.092  13.145  1.00  0.00     0.328 C 
HETATM   37  N3  UNL     1     -15.437   8.882  13.745  1.00  0.00    -0.287 N 
HETATM   38  O1  UNL     1     -16.404   8.149  11.866  1.00  0.00    -0.247 OA
HETATM   39  C3  UNL     1     -14.144   8.741  13.500  1.00  0.00     0.169 A 
ATOM     40  H3  UNL     1     -15.735   9.602  14.403  1.00  0.00     0.172 HD
HETATM   41  N2  UNL     1     -13.116   8.303  13.030  1.00  0.00    -0.279 N 
HETATM   42  S1  UNL     1     -13.313  10.260  14.290  1.00  0.00    -0.038 SA
HETATM   43  N1  UNL     1     -11.951   8.796  13.112  1.00  0.00    -0.296 N 
ATOM     44  H2  UNL     1     -13.199   7.432  12.505  1.00  0.00     0.189 HD
HETATM   45  C2  UNL     1     -11.745   9.894  13.753  1.00  0.00     0.066 A 
ATOM     46  H1  UNL     1     -11.168   8.319  12.665  1.00  0.00     0.187 HD
HETATM   47  C1  UNL     1     -10.454  10.671  13.928  1.00  0.00     0.078 C 
ATOM     48  H4  UNL     1     -17.222   7.260  14.846  1.00  0.00     0.172 HD
ENDBRANCH  32  35
BRANCH  33  49
HETATM   49  O2  UNL     1     -18.881   4.642  12.002  1.00  0.00    -0.288 OA
ATOM     50  H2  UNL     1     -18.654   3.810  11.605  1.00  0.00     0.244 HD
ENDBRANCH  33  49
ENDBRANCH   1  32
TORSDOF 11
ENDMDL
MODEL 4
REMARK VINA RESULT: -10.162359716      3.011      5.981
REMARK  11 active torsions:
REMARK  status: ('A' for Active; 'I' for Inactive)
REMARK       I    between atoms: N3_8  and  C4_10 
REMARK       I    between atoms: C4_10  and  N4_12 
REMARK    1  A    between atoms: N4_12  and  C5_14 
REMARK    2  A    between atoms: C5_14  and  C6_19 
REMARK    3  A    between atoms: N5_15  and  O2_17 
REMARK    4  A    between atoms: C7_24  and  C8_25 
REMARK    5  A    between atoms: C8_25  and  N8_27 
REMARK       I    between atoms: N8_27  and  C10_29 
REMARK    6  A    between atoms: C10_29  and  C11_31 
REMARK    7  A    between atoms: C11_31  and  C12_32 
REMARK    8  A    between atoms: C12_32  and  N9_33 
REMARK    9  A    between atoms: C12_32  and  C16_46 
REMARK       I    between atoms: N9_33  and  C13_34 
REMARK   10  A    between atoms: C13_34  and  C14_36 
REMARK   11  A    between atoms: C15_42  and  N12_43 
ROOT
HETATM    1  C6  UNL     1     -17.325   7.592  16.628  1.00  0.00     0.211 A 
HETATM    2  N6  UNL     1     -16.799   6.375  16.861  1.00  0.00    -0.275 N 
ATOM      3  H6  UNL     1     -16.152   6.135  17.612  1.00  0.00     0.189 HD
HETATM    4  N7  UNL     1     -17.265   5.550  15.952  1.00  0.00    -0.279 N 
ATOM      5  H7  UNL     1     -17.036   4.558  15.886  1.00  0.00     0.189 HD
HETATM    6  C7  UNL     1     -18.101   6.220  15.109  1.00  0.00     0.163 A 
HETATM    7  O8  UNL     1     -18.090   7.441  15.576  1.00  0.00    -0.272 OA
ENDROOT
BRANCH   6   8
HETATM    8  C8  UNL     1     -18.865   5.764  13.949  1.00  0.00     0.157 C 
HETATM    9  C9  UNL     1     -17.899   5.251  12.857  1.00  0.00     0.041 C 
BRANCH   8  10
HETATM   10  N8  UNL     1     -19.881   6.601  13.470  1.00  0.00    -0.349 N 
HETATM   11  C10 UNL     1     -21.221   6.271  13.181  1.00  0.00     0.221 C 
HETATM   12  O3  UNL     1     -21.580   5.042  13.304  1.00  0.00    -0.273 OA
ATOM     13  H8  UNL     1     -19.617   7.573  13.310  1.00  0.00     0.163 HD
BRANCH  11  14
HETATM   14  C11 UNL     1     -22.234   7.240  12.772  1.00  0.00     0.153 C 
BRANCH  14  15
HETATM   15  C12 UNL     1     -22.767   8.116  13.882  1.00  0.00     0.276 C 
BRANCH  15  16
HETATM   16  N9  UNL     1     -21.853   8.836  14.562  1.00  0.00    -0.393 NA
HETATM   17  C13 UNL     1     -20.988   9.508  15.383  1.00  0.00     0.344 C 
HETATM   18  O4  UNL     1     -21.022   9.437  16.672  1.00  0.00    -0.249 OA
BRANCH  17  19
HETATM   19  C14 UNL     1     -19.927  10.362  14.799  1.00  0.00     0.183 A 
HETATM   20  N10 UNL     1     -18.936   9.823  13.986  1.00  0.00    -0.231 N 
HETATM   21  O5  UNL     1     -18.052  10.789  13.784  1.00  0.00    -0.155 OA
ATOM     22  H10 UNL     1     -18.897   8.873  13.617  1.00  0.00     0.197 HD
HETATM   23  N11 UNL     1     -18.416  11.843  14.393  1.00  0.00    -0.224 N 
HETATM   24  C15 UNL     1     -19.609  11.612  15.046  1.00  0.00     0.157 A 
ATOM     25  H11 UNL     1     -17.904  12.725  14.398  1.00  0.00     0.198 HD
BRANCH  24  26
HETATM   26  N12 UNL     1     -20.259  12.600  15.704  1.00  0.00    -0.382 N 
ATOM     27 2H12 UNL     1     -20.886  12.400  16.483  1.00  0.00     0.157 HD
ATOM     28 1H12 UNL     1     -20.216  13.616  15.627  1.00  0.00     0.157 HD
ENDBRANCH  24  26
ENDBRANCH  17  19
ENDBRANCH  15  16
BRANCH  15  29
HETATM   29  C16 UNL     1     -23.870   9.005  13.230  1.00  0.00     0.210 C 
HETATM   30  O6  UNL     1     -24.373   8.518  12.168  1.00  0.00    -0.646 OA
HETATM   31  O7  UNL     1     -24.203  10.158  13.777  1.00  0.00    -0.646 OA
ENDBRANCH  15  29
ENDBRANCH  14  15
ENDBRANCH  11  14
ENDBRANCH   8  10
ENDBRANCH   6   8
BRANCH   1  32
HETATM   32  C5  UNL     1     -17.191   8.869  17.281  1.00  0.00     0.183 C 
HETATM   33  N5  UNL     1     -17.528   8.875  18.547  1.00  0.00    -0.249 N 
ATOM     34  H5  UNL     1     -17.486   9.770  19.035  1.00  0.00     0.196 HD
BRANCH  32  35
HETATM   35  N4  UNL     1     -16.814  10.072  16.727  1.00  0.00    -0.289 N 
HETATM   36  C4  UNL     1     -15.906  10.998  17.251  1.00  0.00     0.328 C 
HETATM   37  N3  UNL     1     -15.500  12.154  16.611  1.00  0.00    -0.287 N 
HETATM   38  O1  UNL     1     -15.365  10.813  18.396  1.00  0.00    -0.247 OA
HETATM   39  C3  UNL     1     -15.657  13.357  17.141  1.00  0.00     0.169 A 
ATOM     40  H3  UNL     1     -15.061  12.077  15.693  1.00  0.00     0.172 HD
HETATM   41  N2  UNL     1     -15.977  14.219  17.932  1.00  0.00    -0.279 N 
HETATM   42  S1  UNL     1     -14.641  14.530  16.041  1.00  0.00    -0.038 SA
HETATM   43  N1  UNL     1     -15.665  15.447  17.911  1.00  0.00    -0.296 N 
ATOM     44  H2  UNL     1     -16.569  13.919  18.707  1.00  0.00     0.189 HD
HETATM   45  C2  UNL     1     -14.921  15.921  16.973  1.00  0.00     0.066 A 
ATOM     46  H1  UNL     1     -16.006  16.067  18.645  1.00  0.00     0.187 HD
HETATM   47  C1  UNL     1     -14.395  17.332  16.790  1.00  0.00     0.078 C 
ATOM     48  H4  UNL     1     -17.244  10.314  15.835  1.00  0.00     0.172 HD
ENDBRANCH  32  35
BRANCH  33  49
HETATM   49  O2  UNL     1     -17.926   7.802  19.263  1.00  0.00    -0.288 OA
ATOM     50  H2  UNL     1     -17.825   7.692  20.201  1.00  0.00     0.244 HD
ENDBRANCH  33  49
ENDBRANCH   1  32
TORSDOF 11
ENDMDL
MODEL 5
REMARK VINA RESULT: -10.040010284      2.921      4.430
REMARK  11 active torsions:
REMARK  status: ('A' for Active; 'I' for Inactive)
REMARK       I    between atoms: N3_8  and  C4_10 
REMARK       I    between atoms: C4_10  and  N4_12 
REMARK    1  A    between atoms: N4_12  and  C5_14 
REMARK    2  A    between atoms: C5_14  and  C6_19 
REMARK    3  A    between atoms: N5_15  and  O2_17 
REMARK    4  A    between atoms: C7_24  and  C8_25 
REMARK    5  A    between atoms: C8_25  and  N8_27 
REMARK       I    between atoms: N8_27  and  C10_29 
REMARK    6  A    between atoms: C10_29  and  C11_31 
REMARK    7  A    between atoms: C11_31  and  C12_32 
REMARK    8  A    between atoms: C12_32  and  N9_33 
REMARK    9  A    between atoms: C12_32  and  C16_46 
REMARK       I    between atoms: N9_33  and  C13_34 
REMARK   10  A    between atoms: C13_34  and  C14_36 
REMARK   11  A    between atoms: C15_42  and  N12_43 
ROOT
HETATM    1  C6  UNL     1     -19.789   6.607  13.554  1.00  0.00     0.211 A 
HETATM    2  N6  UNL     1     -20.823   5.746  13.518  1.00  0.00    -0.275 N 
ATOM      3  H6  UNL     1     -20.770   4.753  13.291  1.00  0.00     0.189 HD
HETATM    4  N7  UNL     1     -21.915   6.409  13.825  1.00  0.00    -0.279 N 
ATOM      5  H7  UNL     1     -22.851   6.008  13.877  1.00  0.00     0.189 HD
HETATM    6  C7  UNL     1     -21.606   7.715  14.064  1.00  0.00     0.163 A 
HETATM    7  O8  UNL     1     -20.312   7.761  13.885  1.00  0.00    -0.272 OA
ENDROOT
BRANCH   6   8
HETATM    8  C8  UNL     1     -22.449   8.849  14.439  1.00  0.00     0.157 C 
HETATM    9  C9  UNL     1     -23.672   8.924  13.497  1.00  0.00     0.041 C 
BRANCH   8  10
HETATM   10  N8  UNL     1     -21.820  10.081  14.663  1.00  0.00    -0.349 N 
HETATM   11  C10 UNL     1     -21.218  10.552  15.848  1.00  0.00     0.221 C 
HETATM   12  O3  UNL     1     -21.285   9.808  16.895  1.00  0.00    -0.273 OA
ATOM     13  H8  UNL     1     -21.795  10.718  13.867  1.00  0.00     0.163 HD
BRANCH  11  14
HETATM   14  C11 UNL     1     -20.503  11.820  15.955  1.00  0.00     0.153 C 
BRANCH  14  15
HETATM   15  C12 UNL     1     -20.985  12.907  15.022  1.00  0.00     0.276 C 
BRANCH  15  16
HETATM   16  N9  UNL     1     -20.847  12.662  13.704  1.00  0.00    -0.393 NA
HETATM   17  C13 UNL     1     -20.847  12.481  12.348  1.00  0.00     0.344 C 
HETATM   18  O4  UNL     1     -21.819  12.839  11.576  1.00  0.00    -0.249 OA
BRANCH  17  19
HETATM   19  C14 UNL     1     -19.678  11.856  11.684  1.00  0.00     0.183 A 
HETATM   20  N10 UNL     1     -19.678  11.604  10.316  1.00  0.00    -0.231 N 
HETATM   21  O5  UNL     1     -18.592  10.887  10.069  1.00  0.00    -0.155 OA
ATOM     22  H10 UNL     1     -20.375  11.911   9.637  1.00  0.00     0.197 HD
HETATM   23  N11 UNL     1     -17.950  10.687  11.147  1.00  0.00    -0.224 N 
HETATM   24  C15 UNL     1     -18.607  11.295  12.197  1.00  0.00     0.157 A 
ATOM     25  H11 UNL     1     -17.081  10.159  11.225  1.00  0.00     0.198 HD
BRANCH  24  26
HETATM   26  N12 UNL     1     -18.088  11.306  13.446  1.00  0.00    -0.382 N 
ATOM     27 2H12 UNL     1     -17.460  12.047  13.757  1.00  0.00     0.157 HD
ATOM     28 1H12 UNL     1     -18.245  10.707  14.256  1.00  0.00     0.157 HD
ENDBRANCH  24  26
ENDBRANCH  17  19
ENDBRANCH  15  16
BRANCH  15  29
HETATM   29  C16 UNL     1     -22.462  13.194  15.430  1.00  0.00     0.210 C 
HETATM   30  O6  UNL     1     -22.586  13.854  16.511  1.00  0.00    -0.646 OA
HETATM   31  O7  UNL     1     -23.455  12.758  14.680  1.00  0.00    -0.646 OA
ENDBRANCH  15  29
ENDBRANCH  14  15
ENDBRANCH  11  14
ENDBRANCH   8  10
ENDBRANCH   6   8
BRANCH   1  32
HETATM   32  C5  UNL     1     -18.374   6.464  13.319  1.00  0.00     0.183 C 
HETATM   33  N5  UNL     1     -18.047   5.461  12.542  1.00  0.00    -0.249 N 
ATOM     34  H5  UNL     1     -17.051   5.301  12.384  1.00  0.00     0.196 HD
BRANCH  32  35
HETATM   35  N4  UNL     1     -17.345   7.207  13.852  1.00  0.00    -0.289 N 
HETATM   36  C4  UNL     1     -16.442   8.020  13.161  1.00  0.00     0.328 C 
HETATM   37  N3  UNL     1     -15.477   8.811  13.756  1.00  0.00    -0.287 N 
HETATM   38  O1  UNL     1     -16.466   8.093  11.884  1.00  0.00    -0.247 OA
HETATM   39  C3  UNL     1     -14.186   8.686  13.489  1.00  0.00     0.169 A 
ATOM     40  H3  UNL     1     -15.771   9.520  14.428  1.00  0.00     0.172 HD
HETATM   41  N2  UNL     1     -13.162   8.263  12.997  1.00  0.00    -0.279 N 
HETATM   42  S1  UNL     1     -13.357  10.203  14.285  1.00  0.00    -0.038 SA
HETATM   43  N1  UNL     1     -12.000   8.767  13.067  1.00  0.00    -0.296 N 
ATOM     44  H2  UNL     1     -13.245   7.399  12.462  1.00  0.00     0.189 HD
HETATM   45  C2  UNL     1     -11.795   9.858  13.719  1.00  0.00     0.066 A 
ATOM     46  H1  UNL     1     -11.221   8.302  12.602  1.00  0.00     0.187 HD
HETATM   47  C1  UNL     1     -10.509  10.645  13.884  1.00  0.00     0.078 C 
ATOM     48  H4  UNL     1     -17.229   7.158  14.865  1.00  0.00     0.172 HD
ENDBRANCH  32  35
BRANCH  33  49
HETATM   49  O2  UNL     1     -18.908   4.621  11.931  1.00  0.00    -0.288 OA
ATOM     50  H2  UNL     1     -19.090   3.726  12.190  1.00  0.00     0.244 HD
ENDBRANCH  33  49
ENDBRANCH   1  32
TORSDOF 11
ENDMDL
