MODEL 1
REMARK VINA RESULT: -7.215885173      0.000      0.000
REMARK  18 active torsions:
REMARK  status: ('A' for Active; 'I' for Inactive)
REMARK    1  A    between atoms: O1_2  and  C2_3 
REMARK    2  A    between atoms: C2_3  and  C3_5 
REMARK    3  A    between atoms: C4_6  and  O3_7 
REMARK    4  A    between atoms: O3_7  and  C5_8 
REMARK    5  A    between atoms: C6_9  and  N1_10 
REMARK    6  A    between atoms: C8_15  and  N2_16 
REMARK    7  A    between atoms: C9_20  and  O4_21 
REMARK    8  A    between atoms: O4_21  and  C10_22 
REMARK    9  A    between atoms: C11_24  and  C12_25 
REMARK   10  A    between atoms: C12_25  and  N3_26 
REMARK   11  A    between atoms: N3_26  and  N4_28 
REMARK   12  A    between atoms: N4_28  and  N5_29 
REMARK   13  A    between atoms: C15_34  and  N6_35 
REMARK   14  A    between atoms: C16_39  and  O6_40 
REMARK   15  A    between atoms: C17_43  and  C18_44 
REMARK   16  A    between atoms: C18_44  and  O8_45 
REMARK   17  A    between atoms: C19_47  and  O9_49 
REMARK   18  A    between atoms: C21_51  and  C22_52 
ROOT
HETATM    1  C5  UNL     1     -20.101  10.923  15.956  1.00  0.00     0.186 C 
HETATM    2  C6  UNL     1     -20.656  11.657  14.784  1.00  0.00     0.217 C 
HETATM    3  C7  UNL     1     -20.276  10.962  13.520  1.00  0.00     0.071 C 
HETATM    4  C8  UNL     1     -20.891   9.589  13.470  1.00  0.00     0.217 C 
HETATM    5  C9  UNL     1     -21.291   9.024  14.791  1.00  0.00     0.186 C 
HETATM    6  C16 UNL     1     -20.385   9.445  15.927  1.00  0.00     0.180 C 
ENDROOT
BRANCH   1   7
HETATM    7  O3  UNL     1     -18.710  11.050  15.963  1.00  0.00    -0.350 OA
BRANCH   7   8
HETATM    8  C4  UNL     1     -18.288  12.039  16.844  1.00  0.00     0.275 C 
HETATM    9  C3  UNL     1     -16.897  11.817  17.268  1.00  0.00     0.152 C 
HETATM   10  C21 UNL     1     -16.767  12.243  18.718  1.00  0.00     0.078 C 
HETATM   11  C19 UNL     1     -17.684  13.401  19.044  1.00  0.00     0.091 C 
HETATM   12  C17 UNL     1     -19.112  13.097  18.727  1.00  0.00     0.182 C 
HETATM   13  C20 UNL     1     -17.168  14.692  18.495  1.00  0.00     0.049 C 
HETATM   14  O7  UNL     1     -19.208  12.000  17.897  1.00  0.00    -0.350 OA
BRANCH   9  15
HETATM   15  C2  UNL     1     -16.416  10.411  17.201  1.00  0.00     0.268 C 
HETATM   16  O2  UNL     1     -16.498   9.636  18.213  1.00  0.00    -0.265 OA
BRANCH  15  17
HETATM   17  O1  UNL     1     -15.855   9.838  16.071  1.00  0.00    -0.326 OA
HETATM   18  C1  UNL     1     -15.314  10.566  14.996  1.00  0.00     0.213 C 
ENDBRANCH  15  17
ENDBRANCH   9  15
BRANCH  10  19
HETATM   19  C22 UNL     1     -15.369  12.465  19.099  1.00  0.00     0.061 C 
HETATM   20  N7  UNL     1     -14.914  12.559  20.294  1.00  0.00    -0.411 N 
ATOM     21  H72 UNL     1     -15.604  12.469  21.039  1.00  0.00     0.155 HD
ATOM     22  H71 UNL     1     -13.941  12.714  20.559  1.00  0.00     0.155 HD
ENDBRANCH  10  19
BRANCH  11  23
HETATM   23  O9  UNL     1     -17.596  13.511  20.461  1.00  0.00    -0.387 OA
ATOM     24  H9  UNL     1     -18.299  12.983  20.819  1.00  0.00     0.210 HD
ENDBRANCH  11  23
BRANCH  12  25
HETATM   25  C18 UNL     1     -19.893  14.247  18.163  1.00  0.00     0.199 C 
BRANCH  25  26
HETATM   26  O8  UNL     1     -20.821  14.740  19.105  1.00  0.00    -0.398 OA
ATOM     27  H8  UNL     1     -20.604  14.449  19.983  1.00  0.00     0.209 HD
ENDBRANCH  25  26
ENDBRANCH  12  25
ENDBRANCH   7   8
ENDBRANCH   1   7
BRANCH   2  28
HETATM   28  N1  UNL     1     -22.087  11.835  14.951  1.00  0.00    -0.072 N 
ATOM     29  H13 UNL     1     -22.617  11.427  14.182  1.00  0.00     0.274 HD
ATOM     30  H12 UNL     1     -22.459  11.262  15.707  1.00  0.00     0.274 HD
ATOM     31  H11 UNL     1     -22.298  12.825  15.080  1.00  0.00     0.274 HD
ENDBRANCH   2  28
BRANCH   6  32
HETATM   32  O6  UNL     1     -19.215   8.676  15.893  1.00  0.00    -0.390 OA
ATOM     33  H6  UNL     1     -18.526   9.087  15.383  1.00  0.00     0.210 HD
ENDBRANCH   6  32
BRANCH   5  34
HETATM   34  O4  UNL     1     -21.239   7.615  14.795  1.00  0.00    -0.349 OA
BRANCH  34  35
HETATM   35  C10 UNL     1     -20.283   7.111  13.950  1.00  0.00     0.291 C 
HETATM   36  O5  UNL     1     -19.455   6.282  14.712  1.00  0.00    -0.352 OA
HETATM   37  C11 UNL     1     -18.312   6.035  13.949  1.00  0.00     0.145 C 
HETATM   38  C13 UNL     1     -18.689   5.041  12.879  1.00  0.00     0.036 C 
HETATM   39  C14 UNL     1     -19.775   5.669  12.024  1.00  0.00     0.040 C 
HETATM   40  C15 UNL     1     -20.894   6.230  12.880  1.00  0.00     0.238 C 
BRANCH  37  41
HETATM   41  C12 UNL     1     -17.174   5.518  14.810  1.00  0.00     0.187 C 
BRANCH  41  42
HETATM   42  N3  UNL     1     -16.677   6.587  15.651  1.00  0.00    -0.250 N 
ATOM     43  H3  UNL     1     -16.022   7.263  15.259  1.00  0.00     0.197 HD
BRANCH  42  44
HETATM   44  N4  UNL     1     -17.026   6.704  16.837  1.00  0.00    -0.248 NA
BRANCH  44  45
HETATM   45  N5  UNL     1     -17.424   6.976  17.972  1.00  0.00    -0.261 N 
ATOM     46  H52 UNL     1     -16.723   7.717  17.960  1.00  0.00     0.193 HD
ATOM     47  H51 UNL     1     -17.844   7.095  18.894  1.00  0.00     0.193 HD
ENDBRANCH  44  45
ENDBRANCH  42  44
ENDBRANCH  41  42
ENDBRANCH  37  41
BRANCH  40  48
HETATM   48  N6  UNL     1     -21.681   5.171  13.434  1.00  0.00    -0.070 N 
ATOM     49  H63 UNL     1     -21.162   4.661  14.150  1.00  0.00     0.274 HD
ATOM     50  H62 UNL     1     -22.437   5.537  14.011  1.00  0.00     0.274 HD
ATOM     51  H61 UNL     1     -22.037   4.538  12.717  1.00  0.00     0.274 HD
ENDBRANCH  40  48
ENDBRANCH  34  35
ENDBRANCH   5  34
BRANCH   4  52
HETATM   52  N2  UNL     1     -21.953   9.594  12.501  1.00  0.00    -0.072 N 
ATOM     53  H23 UNL     1     -21.683   9.145  11.625  1.00  0.00     0.274 HD
ATOM     54  H22 UNL     1     -22.715   8.964  12.753  1.00  0.00     0.274 HD
ATOM     55  H21 UNL     1     -22.269  10.554  12.366  1.00  0.00     0.274 HD
ENDBRANCH   4  52
TORSDOF 18
ENDMDL
MODEL 2
REMARK VINA RESULT: -7.019165125      2.842      7.187
REMARK  18 active torsions:
REMARK  status: ('A' for Active; 'I' for Inactive)
REMARK    1  A    between atoms: O1_2  and  C2_3 
REMARK    2  A    between atoms: C2_3  and  C3_5 
REMARK    3  A    between atoms: C4_6  and  O3_7 
REMARK    4  A    between atoms: O3_7  and  C5_8 
REMARK    5  A    between atoms: C6_9  and  N1_10 
REMARK    6  A    between atoms: C8_15  and  N2_16 
REMARK    7  A    between atoms: C9_20  and  O4_21 
REMARK    8  A    between atoms: O4_21  and  C10_22 
REMARK    9  A    between atoms: C11_24  and  C12_25 
REMARK   10  A    between atoms: C12_25  and  N3_26 
REMARK   11  A    between atoms: N3_26  and  N4_28 
REMARK   12  A    between atoms: N4_28  and  N5_29 
REMARK   13  A    between atoms: C15_34  and  N6_35 
REMARK   14  A    between atoms: C16_39  and  O6_40 
REMARK   15  A    between atoms: C17_43  and  C18_44 
REMARK   16  A    between atoms: C18_44  and  O8_45 
REMARK   17  A    between atoms: C19_47  and  O9_49 
REMARK   18  A    between atoms: C21_51  and  C22_52 
ROOT
HETATM    1  C5  UNL     1     -18.659  10.807  15.990  1.00  0.00     0.186 C 
HETATM    2  C6  UNL     1     -18.357  10.331  17.370  1.00  0.00     0.217 C 
HETATM    3  C7  UNL     1     -16.954   9.829  17.441  1.00  0.00     0.071 C 
HETATM    4  C8  UNL     1     -15.982  10.948  17.174  1.00  0.00     0.217 C 
HETATM    5  C9  UNL     1     -16.545  12.116  16.439  1.00  0.00     0.186 C 
HETATM    6  C16 UNL     1     -17.616  11.741  15.438  1.00  0.00     0.180 C 
ENDROOT
BRANCH   1   7
HETATM    7  O3  UNL     1     -18.698   9.713  15.122  1.00  0.00    -0.350 OA
BRANCH   7   8
HETATM    8  C4  UNL     1     -19.952   9.563  14.541  1.00  0.00     0.275 C 
HETATM    9  C3  UNL     1     -20.390   8.159  14.575  1.00  0.00     0.152 C 
HETATM   10  C21 UNL     1     -21.164   7.870  13.303  1.00  0.00     0.078 C 
HETATM   11  C19 UNL     1     -21.922   9.089  12.822  1.00  0.00     0.091 C 
HETATM   12  C17 UNL     1     -21.026  10.266  12.619  1.00  0.00     0.182 C 
HETATM   13  C20 UNL     1     -23.141   9.347  13.647  1.00  0.00     0.049 C 
HETATM   14  O7  UNL     1     -19.814  10.076  13.247  1.00  0.00    -0.350 OA
BRANCH   9  15
HETATM   15  C2  UNL     1     -19.305   7.143  14.643  1.00  0.00     0.268 C 
HETATM   16  O2  UNL     1     -18.992   6.583  15.747  1.00  0.00    -0.265 OA
BRANCH  15  17
HETATM   17  O1  UNL     1     -18.564   6.729  13.548  1.00  0.00    -0.326 OA
HETATM   18  C1  UNL     1     -17.947   5.470  13.435  1.00  0.00     0.213 C 
ENDBRANCH  15  17
ENDBRANCH   9  15
BRANCH  10  19
HETATM   19  C22 UNL     1     -21.990   6.666  13.428  1.00  0.00     0.061 C 
HETATM   20  N7  UNL     1     -21.645   5.472  13.111  1.00  0.00    -0.411 N 
ATOM     21  H72 UNL     1     -20.702   5.369  12.738  1.00  0.00     0.155 HD
ATOM     22  H71 UNL     1     -22.220   4.635  13.197  1.00  0.00     0.155 HD
ENDBRANCH  10  19
BRANCH  11  23
HETATM   23  O9  UNL     1     -22.391   8.706  11.534  1.00  0.00    -0.387 OA
ATOM     24  H9  UNL     1     -22.426   7.757  11.528  1.00  0.00     0.210 HD
ENDBRANCH  11  23
BRANCH  12  25
HETATM   25  C18 UNL     1     -21.618  11.587  13.018  1.00  0.00     0.199 C 
BRANCH  25  26
HETATM   26  O8  UNL     1     -22.173  12.251  11.902  1.00  0.00    -0.398 OA
ATOM     27  H8  UNL     1     -22.817  12.895  12.174  1.00  0.00     0.209 HD
ENDBRANCH  25  26
ENDBRANCH  12  25
ENDBRANCH   7   8
ENDBRANCH   1   7
BRANCH   2  28
HETATM   28  N1  UNL     1     -18.657  11.380  18.327  1.00  0.00    -0.072 N 
ATOM     29  H13 UNL     1     -18.198  12.259  18.090  1.00  0.00     0.274 HD
ATOM     30  H12 UNL     1     -19.624  11.696  18.259  1.00  0.00     0.274 HD
ATOM     31  H11 UNL     1     -18.421  11.065  19.268  1.00  0.00     0.274 HD
ENDBRANCH   2  28
BRANCH   6  32
HETATM   32  O6  UNL     1     -17.008  11.239  14.280  1.00  0.00    -0.390 OA
ATOM     33  H6  UNL     1     -16.260  10.686  14.474  1.00  0.00     0.210 HD
ENDBRANCH   6  32
BRANCH   5  34
HETATM   34  O4  UNL     1     -15.561  12.782  15.679  1.00  0.00    -0.349 OA
BRANCH  34  35
HETATM   35  C10 UNL     1     -14.368  12.105  15.638  1.00  0.00     0.291 C 
HETATM   36  O5  UNL     1     -14.349  11.374  14.447  1.00  0.00    -0.352 OA
HETATM   37  C11 UNL     1     -13.310  10.448  14.553  1.00  0.00     0.145 C 
HETATM   38  C13 UNL     1     -12.015  11.200  14.368  1.00  0.00     0.036 C 
HETATM   39  C14 UNL     1     -11.918  12.238  15.471  1.00  0.00     0.040 C 
HETATM   40  C15 UNL     1     -13.191  13.056  15.569  1.00  0.00     0.238 C 
BRANCH  37  41
HETATM   41  C12 UNL     1     -13.456   9.334  13.533  1.00  0.00     0.187 C 
BRANCH  41  42
HETATM   42  N3  UNL     1     -14.592   8.505  13.878  1.00  0.00    -0.250 N 
ATOM     43  H3  UNL     1     -14.493   7.811  14.620  1.00  0.00     0.197 HD
BRANCH  42  44
HETATM   44  N4  UNL     1     -15.684   8.614  13.298  1.00  0.00    -0.248 NA
BRANCH  44  45
HETATM   45  N5  UNL     1     -16.771   8.882  12.781  1.00  0.00    -0.261 N 
ATOM     46  H52 UNL     1     -16.298   8.739  11.888  1.00  0.00     0.193 HD
ATOM     47  H51 UNL     1     -17.718   9.119  12.485  1.00  0.00     0.193 HD
ENDBRANCH  44  45
ENDBRANCH  42  44
ENDBRANCH  41  42
ENDBRANCH  37  41
BRANCH  40  48
HETATM   48  N6  UNL     1     -13.291  13.963  14.466  1.00  0.00    -0.070 N 
ATOM     49  H63 UNL     1     -12.434  14.506  14.357  1.00  0.00     0.274 HD
ATOM     50  H62 UNL     1     -13.281  13.464  13.577  1.00  0.00     0.274 HD
ATOM     51  H61 UNL     1     -14.107  14.572  14.539  1.00  0.00     0.274 HD
ENDBRANCH  40  48
ENDBRANCH  34  35
ENDBRANCH   5  34
BRANCH   4  52
HETATM   52  N2  UNL     1     -15.336  11.301  18.408  1.00  0.00    -0.072 N 
ATOM     53  H23 UNL     1     -16.002  11.549  19.141  1.00  0.00     0.274 HD
ATOM     54  H22 UNL     1     -14.911  10.497  18.871  1.00  0.00     0.274 HD
ATOM     55  H21 UNL     1     -14.663  12.045  18.225  1.00  0.00     0.274 HD
ENDBRANCH   4  52
TORSDOF 18
ENDMDL
MODEL 3
REMARK VINA RESULT: -7.009832801      1.544      2.535
REMARK  18 active torsions:
REMARK  status: ('A' for Active; 'I' for Inactive)
REMARK    1  A    between atoms: O1_2  and  C2_3 
REMARK    2  A    between atoms: C2_3  and  C3_5 
REMARK    3  A    between atoms: C4_6  and  O3_7 
REMARK    4  A    between atoms: O3_7  and  C5_8 
REMARK    5  A    between atoms: C6_9  and  N1_10 
REMARK    6  A    between atoms: C8_15  and  N2_16 
REMARK    7  A    between atoms: C9_20  and  O4_21 
REMARK    8  A    between atoms: O4_21  and  C10_22 
REMARK    9  A    between atoms: C11_24  and  C12_25 
REMARK   10  A    between atoms: C12_25  and  N3_26 
REMARK   11  A    between atoms: N3_26  and  N4_28 
REMARK   12  A    between atoms: N4_28  and  N5_29 
REMARK   13  A    between atoms: C15_34  and  N6_35 
REMARK   14  A    between atoms: C16_39  and  O6_40 
REMARK   15  A    between atoms: C17_43  and  C18_44 
REMARK   16  A    between atoms: C18_44  and  O8_45 
REMARK   17  A    between atoms: C19_47  and  O9_49 
REMARK   18  A    between atoms: C21_51  and  C22_52 
ROOT
HETATM    1  C5  UNL     1     -20.522  10.828  15.569  1.00  0.00     0.186 C 
HETATM    2  C6  UNL     1     -21.200  11.377  14.361  1.00  0.00     0.217 C 
HETATM    3  C7  UNL     1     -20.765  10.629  13.146  1.00  0.00     0.071 C 
HETATM    4  C8  UNL     1     -21.194   9.189  13.235  1.00  0.00     0.217 C 
HETATM    5  C9  UNL     1     -21.480   8.695  14.612  1.00  0.00     0.186 C 
HETATM    6  C16 UNL     1     -20.609   9.329  15.674  1.00  0.00     0.180 C 
ENDROOT
BRANCH   1   7
HETATM    7  O3  UNL     1     -19.160  11.134  15.513  1.00  0.00    -0.350 OA
BRANCH   7   8
HETATM    8  C4  UNL     1     -18.654  11.456  16.767  1.00  0.00     0.275 C 
HETATM    9  C3  UNL     1     -18.419  12.903  16.890  1.00  0.00     0.152 C 
HETATM   10  C21 UNL     1     -17.175  13.114  17.732  1.00  0.00     0.078 C 
HETATM   11  C19 UNL     1     -17.022  12.036  18.782  1.00  0.00     0.091 C 
HETATM   12  C17 UNL     1     -17.010  10.666  18.186  1.00  0.00     0.182 C 
HETATM   13  C20 UNL     1     -17.970  12.229  19.921  1.00  0.00     0.049 C 
HETATM   14  O7  UNL     1     -17.492  10.687  16.895  1.00  0.00    -0.350 OA
BRANCH   9  15
HETATM   15  C2  UNL     1     -18.189  13.634  15.615  1.00  0.00     0.268 C 
HETATM   16  O2  UNL     1     -19.083  14.402  15.123  1.00  0.00    -0.265 OA
BRANCH  15  17
HETATM   17  O1  UNL     1     -17.022  13.547  14.874  1.00  0.00    -0.326 OA
HETATM   18  C1  UNL     1     -16.280  14.656  14.426  1.00  0.00     0.213 C 
ENDBRANCH  15  17
ENDBRANCH   9  15
BRANCH  10  19
HETATM   19  C22 UNL     1     -17.100  14.478  18.264  1.00  0.00     0.061 C 
HETATM   20  N7  UNL     1     -16.034  15.171  18.430  1.00  0.00    -0.411 N 
ATOM     21  H72 UNL     1     -15.163  14.713  18.162  1.00  0.00     0.155 HD
ATOM     22  H71 UNL     1     -15.982  16.119  18.801  1.00  0.00     0.155 HD
ENDBRANCH  10  19
BRANCH  11  23
HETATM   23  O9  UNL     1     -15.719  12.263  19.310  1.00  0.00    -0.387 OA
ATOM     24  H9  UNL     1     -15.835  12.730  20.129  1.00  0.00     0.210 HD
ENDBRANCH  11  23
BRANCH  12  25
HETATM   25  C18 UNL     1     -17.723   9.620  18.992  1.00  0.00     0.199 C 
BRANCH  25  26
HETATM   26  O8  UNL     1     -17.718   8.376  18.325  1.00  0.00    -0.398 OA
ATOM     27  H8  UNL     1     -17.977   8.475  17.416  1.00  0.00     0.209 HD
ENDBRANCH  25  26
ENDBRANCH  12  25
ENDBRANCH   7   8
ENDBRANCH   1   7
BRANCH   2  28
HETATM   28  N1  UNL     1     -22.637  11.383  14.566  1.00  0.00    -0.072 N 
ATOM     29  H13 UNL     1     -23.126  10.819  13.872  1.00  0.00     0.274 HD
ATOM     30  H12 UNL     1     -22.908  10.858  15.398  1.00  0.00     0.274 HD
ATOM     31  H11 UNL     1     -22.978  12.344  14.590  1.00  0.00     0.274 HD
ENDBRANCH   2  28
BRANCH   6  32
HETATM   32  O6  UNL     1     -19.349   8.717  15.661  1.00  0.00    -0.390 OA
ATOM     33  H6  UNL     1     -19.273   8.029  16.311  1.00  0.00     0.210 HD
ENDBRANCH   6  32
BRANCH   5  34
HETATM   34  O4  UNL     1     -21.243   7.310  14.733  1.00  0.00    -0.349 OA
BRANCH  34  35
HETATM   35  C10 UNL     1     -20.169   6.884  13.992  1.00  0.00     0.291 C 
HETATM   36  O5  UNL     1     -19.394   6.069  14.820  1.00  0.00    -0.352 OA
HETATM   37  C11 UNL     1     -18.158   5.904  14.190  1.00  0.00     0.145 C 
HETATM   38  C13 UNL     1     -18.356   4.935  13.052  1.00  0.00     0.036 C 
HETATM   39  C14 UNL     1     -19.366   5.542  12.095  1.00  0.00     0.040 C 
HETATM   40  C15 UNL     1     -20.604   6.016  12.830  1.00  0.00     0.238 C 
BRANCH  37  41
HETATM   41  C12 UNL     1     -17.103   5.410  15.163  1.00  0.00     0.187 C 
BRANCH  41  42
HETATM   42  N3  UNL     1     -16.866   6.419  16.176  1.00  0.00    -0.250 N 
ATOM     43  H3  UNL     1     -16.998   6.176  17.158  1.00  0.00     0.197 HD
BRANCH  42  44
HETATM   44  N4  UNL     1     -16.508   7.571  15.883  1.00  0.00    -0.248 NA
BRANCH  44  45
HETATM   45  N5  UNL     1     -16.192   8.674  15.432  1.00  0.00    -0.261 N 
ATOM     46  H52 UNL     1     -15.538   8.162  14.839  1.00  0.00     0.193 HD
ATOM     47  H51 UNL     1     -16.027   9.640  15.148  1.00  0.00     0.193 HD
ENDBRANCH  44  45
ENDBRANCH  42  44
ENDBRANCH  41  42
ENDBRANCH  37  41
BRANCH  40  48
HETATM   48  N6  UNL     1     -21.395   4.900  13.253  1.00  0.00    -0.070 N 
ATOM     49  H63 UNL     1     -22.305   5.203  13.599  1.00  0.00     0.274 HD
ATOM     50  H62 UNL     1     -21.701   4.343  12.456  1.00  0.00     0.274 HD
ATOM     51  H61 UNL     1     -20.912   4.324  13.942  1.00  0.00     0.274 HD
ENDBRANCH  40  48
ENDBRANCH  34  35
ENDBRANCH   5  34
BRANCH   4  52
HETATM   52  N2  UNL     1     -22.272   8.971  12.309  1.00  0.00    -0.072 N 
ATOM     53  H23 UNL     1     -21.981   9.085  11.338  1.00  0.00     0.274 HD
ATOM     54  H22 UNL     1     -22.551   7.991  12.259  1.00  0.00     0.274 HD
ATOM     55  H21 UNL     1     -23.047   9.584  12.559  1.00  0.00     0.274 HD
ENDBRANCH   4  52
TORSDOF 18
ENDMDL
MODEL 4
REMARK VINA RESULT: -6.972432767      2.217      3.900
REMARK  18 active torsions:
REMARK  status: ('A' for Active; 'I' for Inactive)
REMARK    1  A    between atoms: O1_2  and  C2_3 
REMARK    2  A    between atoms: C2_3  and  C3_5 
REMARK    3  A    between atoms: C4_6  and  O3_7 
REMARK    4  A    between atoms: O3_7  and  C5_8 
REMARK    5  A    between atoms: C6_9  and  N1_10 
REMARK    6  A    between atoms: C8_15  and  N2_16 
REMARK    7  A    between atoms: C9_20  and  O4_21 
REMARK    8  A    between atoms: O4_21  and  C10_22 
REMARK    9  A    between atoms: C11_24  and  C12_25 
REMARK   10  A    between atoms: C12_25  and  N3_26 
REMARK   11  A    between atoms: N3_26  and  N4_28 
REMARK   12  A    between atoms: N4_28  and  N5_29 
REMARK   13  A    between atoms: C15_34  and  N6_35 
REMARK   14  A    between atoms: C16_39  and  O6_40 
REMARK   15  A    between atoms: C17_43  and  C18_44 
REMARK   16  A    between atoms: C18_44  and  O8_45 
REMARK   17  A    between atoms: C19_47  and  O9_49 
REMARK   18  A    between atoms: C21_51  and  C22_52 
ROOT
HETATM    1  C5  UNL     1     -18.265  12.149  16.523  1.00  0.00     0.186 C 
HETATM    2  C6  UNL     1     -17.033  11.335  16.722  1.00  0.00     0.217 C 
HETATM    3  C7  UNL     1     -17.293  10.247  17.709  1.00  0.00     0.071 C 
HETATM    4  C8  UNL     1     -18.330   9.293  17.179  1.00  0.00     0.217 C 
HETATM    5  C9  UNL     1     -19.207   9.842  16.104  1.00  0.00     0.186 C 
HETATM    6  C16 UNL     1     -19.493  11.320  16.255  1.00  0.00     0.180 C 
ENDROOT
BRANCH   1   7
HETATM    7  O3  UNL     1     -18.533  12.873  17.687  1.00  0.00    -0.350 OA
BRANCH   7   8
HETATM    8  C4  UNL     1     -18.884  14.188  17.405  1.00  0.00     0.275 C 
HETATM    9  C3  UNL     1     -17.722  15.084  17.513  1.00  0.00     0.152 C 
HETATM   10  C21 UNL     1     -18.194  16.411  18.075  1.00  0.00     0.078 C 
HETATM   11  C19 UNL     1     -19.604  16.736  17.631  1.00  0.00     0.091 C 
HETATM   12  C17 UNL     1     -20.571  15.656  17.989  1.00  0.00     0.182 C 
HETATM   13  C20 UNL     1     -19.648  17.187  16.206  1.00  0.00     0.049 C 
HETATM   14  O7  UNL     1     -19.910  14.490  18.308  1.00  0.00    -0.350 OA
BRANCH   9  15
HETATM   15  C2  UNL     1     -16.626  14.619  18.406  1.00  0.00     0.268 C 
HETATM   16  O2  UNL     1     -15.452  14.403  17.953  1.00  0.00    -0.265 OA
BRANCH  15  17
HETATM   17  O1  UNL     1     -16.780  14.388  19.764  1.00  0.00    -0.326 OA
HETATM   18  C1  UNL     1     -16.434  13.187  20.410  1.00  0.00     0.213 C 
ENDBRANCH  15  17
ENDBRANCH   9  15
BRANCH  10  19
HETATM   19  C22 UNL     1     -17.228  17.485  17.825  1.00  0.00     0.061 C 
HETATM   20  N7  UNL     1     -16.697  18.249  18.706  1.00  0.00    -0.411 N 
ATOM     21  H72 UNL     1     -16.985  18.080  19.670  1.00  0.00     0.155 HD
ATOM     22  H71 UNL     1     -16.026  18.996  18.532  1.00  0.00     0.155 HD
ENDBRANCH  10  19
BRANCH  11  23
HETATM   23  O9  UNL     1     -19.950  17.872  18.415  1.00  0.00    -0.387 OA
ATOM     24  H9  UNL     1     -19.141  18.335  18.596  1.00  0.00     0.210 HD
ENDBRANCH  11  23
BRANCH  12  25
HETATM   25  C18 UNL     1     -21.631  15.390  16.961  1.00  0.00     0.199 C 
BRANCH  25  26
HETATM   26  O8  UNL     1     -22.319  14.189  17.240  1.00  0.00    -0.398 OA
ATOM     27  H8  UNL     1     -23.129  14.360  17.707  1.00  0.00     0.209 HD
ENDBRANCH  25  26
ENDBRANCH  12  25
ENDBRANCH   7   8
ENDBRANCH   1   7
BRANCH   2  28
HETATM   28  N1  UNL     1     -16.546  10.862  15.439  1.00  0.00    -0.072 N 
ATOM     29  H13 UNL     1     -17.295  10.775  14.753  1.00  0.00     0.274 HD
ATOM     30  H12 UNL     1     -15.986  11.566  14.958  1.00  0.00     0.274 HD
ATOM     31  H11 UNL     1     -16.037   9.987  15.565  1.00  0.00     0.274 HD
ENDBRANCH   2  28
BRANCH   6  32
HETATM   32  O6  UNL     1     -20.484  11.501  17.228  1.00  0.00    -0.390 OA
ATOM     33  H6  UNL     1     -21.347  11.254  16.917  1.00  0.00     0.210 HD
ENDBRANCH   6  32
BRANCH   5  34
HETATM   34  O4  UNL     1     -20.477   9.230  16.101  1.00  0.00    -0.349 OA
BRANCH  34  35
HETATM   35  C10 UNL     1     -20.770   8.610  14.912  1.00  0.00     0.291 C 
HETATM   36  O5  UNL     1     -20.286   7.302  14.998  1.00  0.00    -0.352 OA
HETATM   37  C11 UNL     1     -20.284   6.781  13.703  1.00  0.00     0.145 C 
HETATM   38  C13 UNL     1     -21.714   6.461  13.344  1.00  0.00     0.036 C 
HETATM   39  C14 UNL     1     -22.507   7.754  13.397  1.00  0.00     0.040 C 
HETATM   40  C15 UNL     1     -22.265   8.495  14.697  1.00  0.00     0.238 C 
BRANCH  37  41
HETATM   41  C12 UNL     1     -19.399   5.552  13.602  1.00  0.00     0.187 C 
BRANCH  41  42
HETATM   42  N3  UNL     1     -18.630   5.407  14.821  1.00  0.00    -0.250 N 
ATOM     43  H3  UNL     1     -19.120   5.236  15.700  1.00  0.00     0.197 HD
BRANCH  42  44
HETATM   44  N4  UNL     1     -17.390   5.483  14.828  1.00  0.00    -0.248 NA
BRANCH  44  45
HETATM   45  N5  UNL     1     -16.167   5.492  14.679  1.00  0.00    -0.261 N 
ATOM     46  H52 UNL     1     -16.286   4.569  14.261  1.00  0.00     0.193 HD
ATOM     47  H51 UNL     1     -15.158   5.626  14.615  1.00  0.00     0.193 HD
ENDBRANCH  44  45
ENDBRANCH  42  44
ENDBRANCH  41  42
ENDBRANCH  37  41
BRANCH  40  48
HETATM   48  N6  UNL     1     -22.918   7.829  15.783  1.00  0.00    -0.070 N 
ATOM     49  H63 UNL     1     -22.316   7.116  16.194  1.00  0.00     0.274 HD
ATOM     50  H62 UNL     1     -23.014   8.446  16.589  1.00  0.00     0.274 HD
ATOM     51  H61 UNL     1     -23.820   7.438  15.510  1.00  0.00     0.274 HD
ENDBRANCH  40  48
ENDBRANCH  34  35
ENDBRANCH   5  34
BRANCH   4  52
HETATM   52  N2  UNL     1     -17.683   8.061  16.820  1.00  0.00    -0.072 N 
ATOM     53  H23 UNL     1     -18.001   7.701  15.920  1.00  0.00     0.274 HD
ATOM     54  H22 UNL     1     -16.700   8.192  16.580  1.00  0.00     0.274 HD
ATOM     55  H21 UNL     1     -17.814   7.390  17.577  1.00  0.00     0.274 HD
ENDBRANCH   4  52
TORSDOF 18
ENDMDL
MODEL 5
REMARK VINA RESULT: -6.860254074      2.368      7.321
REMARK  18 active torsions:
REMARK  status: ('A' for Active; 'I' for Inactive)
REMARK    1  A    between atoms: O1_2  and  C2_3 
REMARK    2  A    between atoms: C2_3  and  C3_5 
REMARK    3  A    between atoms: C4_6  and  O3_7 
REMARK    4  A    between atoms: O3_7  and  C5_8 
REMARK    5  A    between atoms: C6_9  and  N1_10 
REMARK    6  A    between atoms: C8_15  and  N2_16 
REMARK    7  A    between atoms: C9_20  and  O4_21 
REMARK    8  A    between atoms: O4_21  and  C10_22 
REMARK    9  A    between atoms: C11_24  and  C12_25 
REMARK   10  A    between atoms: C12_25  and  N3_26 
REMARK   11  A    between atoms: N3_26  and  N4_28 
REMARK   12  A    between atoms: N4_28  and  N5_29 
REMARK   13  A    between atoms: C15_34  and  N6_35 
REMARK   14  A    between atoms: C16_39  and  O6_40 
REMARK   15  A    between atoms: C17_43  and  C18_44 
REMARK   16  A    between atoms: C18_44  and  O8_45 
REMARK   17  A    between atoms: C19_47  and  O9_49 
REMARK   18  A    between atoms: C21_51  and  C22_52 
ROOT
HETATM    1  C5  UNL     1     -19.596  11.016  13.828  1.00  0.00     0.186 C 
HETATM    2  C6  UNL     1     -20.724  11.980  13.684  1.00  0.00     0.217 C 
HETATM    3  C7  UNL     1     -20.874  12.780  14.934  1.00  0.00     0.071 C 
HETATM    4  C8  UNL     1     -19.648  13.621  15.170  1.00  0.00     0.217 C 
HETATM    5  C9  UNL     1     -18.414  13.154  14.475  1.00  0.00     0.186 C 
HETATM    6  C16 UNL     1     -18.330  11.649  14.340  1.00  0.00     0.180 C 
ENDROOT
BRANCH   1   7
HETATM    7  O3  UNL     1     -19.943  10.035  14.760  1.00  0.00    -0.350 OA
BRANCH   7   8
HETATM    8  C4  UNL     1     -19.185   8.881  14.598  1.00  0.00     0.275 C 
HETATM    9  C3  UNL     1     -19.814   7.963  13.636  1.00  0.00     0.152 C 
HETATM   10  C21 UNL     1     -19.565   6.541  14.103  1.00  0.00     0.078 C 
HETATM   11  C19 UNL     1     -18.233   6.409  14.809  1.00  0.00     0.091 C 
HETATM   12  C17 UNL     1     -18.109   7.354  15.959  1.00  0.00     0.182 C 
HETATM   13  C20 UNL     1     -17.090   6.420  13.846  1.00  0.00     0.049 C 
HETATM   14  O7  UNL     1     -19.062   8.347  15.885  1.00  0.00    -0.350 OA
BRANCH   9  15
HETATM   15  C2  UNL     1     -21.286   8.099  13.477  1.00  0.00     0.268 C 
HETATM   16  O2  UNL     1     -21.790   8.663  12.448  1.00  0.00    -0.265 OA
BRANCH  15  17
HETATM   17  O1  UNL     1     -22.210   7.639  14.402  1.00  0.00    -0.326 OA
HETATM   18  C1  UNL     1     -22.762   8.422  15.432  1.00  0.00     0.213 C 
ENDBRANCH  15  17
ENDBRANCH   9  15
BRANCH  10  19
HETATM   19  C22 UNL     1     -19.766   5.569  13.024  1.00  0.00     0.061 C 
HETATM   20  N7  UNL     1     -20.560   4.563  13.047  1.00  0.00    -0.411 N 
ATOM     21  H72 UNL     1     -21.095   4.441  13.906  1.00  0.00     0.155 HD
ATOM     22  H71 UNL     1     -20.699   3.886  12.297  1.00  0.00     0.155 HD
ENDBRANCH  10  19
BRANCH  11  23
HETATM   23  O9  UNL     1     -18.273   5.098  15.360  1.00  0.00    -0.387 OA
ATOM     24  H9  UNL     1     -19.026   5.069  15.939  1.00  0.00     0.210 HD
ENDBRANCH  11  23
BRANCH  12  25
HETATM   25  C18 UNL     1     -16.745   7.954  16.140  1.00  0.00     0.199 C 
BRANCH  25  26
HETATM   26  O8  UNL     1     -16.442   8.121  17.509  1.00  0.00    -0.398 OA
ATOM     27  H8  UNL     1     -17.234   8.239  18.021  1.00  0.00     0.209 HD
ENDBRANCH  25  26
ENDBRANCH  12  25
ENDBRANCH   7   8
ENDBRANCH   1   7
BRANCH   2  28
HETATM   28  N1  UNL     1     -20.532  12.782  12.490  1.00  0.00    -0.072 N 
ATOM     29  H13 UNL     1     -20.611  12.228  11.638  1.00  0.00     0.274 HD
ATOM     30  H12 UNL     1     -21.314  13.417  12.325  1.00  0.00     0.274 HD
ATOM     31  H11 UNL     1     -19.641  13.276  12.546  1.00  0.00     0.274 HD
ENDBRANCH   2  28
BRANCH   6  32
HETATM   32  O6  UNL     1     -17.913  11.101  15.560  1.00  0.00    -0.390 OA
ATOM     33  H6  UNL     1     -18.513  11.298  16.270  1.00  0.00     0.210 HD
ENDBRANCH   6  32
BRANCH   5  34
HETATM   34  O4  UNL     1     -17.247  13.517  15.177  1.00  0.00    -0.349 OA
BRANCH  34  35
HETATM   35  C10 UNL     1     -17.490  13.845  16.487  1.00  0.00     0.291 C 
HETATM   36  O5  UNL     1     -16.849  12.888  17.278  1.00  0.00    -0.352 OA
HETATM   37  C11 UNL     1     -17.356  13.021  18.572  1.00  0.00     0.145 C 
HETATM   38  C13 UNL     1     -16.733  14.255  19.176  1.00  0.00     0.036 C 
HETATM   39  C14 UNL     1     -17.133  15.444  18.321  1.00  0.00     0.040 C 
HETATM   40  C15 UNL     1     -16.871  15.178  16.852  1.00  0.00     0.238 C 
BRANCH  37  41
HETATM   41  C12 UNL     1     -17.068  11.788  19.409  1.00  0.00     0.187 C 
BRANCH  41  42
HETATM   42  N3  UNL     1     -17.543  10.609  18.714  1.00  0.00    -0.250 N 
ATOM     43  H3  UNL     1     -16.911   9.817  18.592  1.00  0.00     0.197 HD
BRANCH  42  44
HETATM   44  N4  UNL     1     -18.697  10.533  18.263  1.00  0.00    -0.248 NA
BRANCH  44  45
HETATM   45  N5  UNL     1     -19.782  10.535  17.677  1.00  0.00    -0.261 N 
ATOM     46  H52 UNL     1     -19.245  10.761  16.840  1.00  0.00     0.193 HD
ATOM     47  H51 UNL     1     -20.736  10.505  17.317  1.00  0.00     0.193 HD
ENDBRANCH  44  45
ENDBRANCH  42  44
ENDBRANCH  41  42
ENDBRANCH  37  41
BRANCH  40  48
HETATM   48  N6  UNL     1     -15.466  15.216  16.579  1.00  0.00    -0.070 N 
ATOM     49  H63 UNL     1     -15.066  14.277  16.570  1.00  0.00     0.274 HD
ATOM     50  H62 UNL     1     -15.286  15.478  15.610  1.00  0.00     0.274 HD
ATOM     51  H61 UNL     1     -14.963  15.825  17.225  1.00  0.00     0.274 HD
ENDBRANCH  40  48
ENDBRANCH  34  35
ENDBRANCH   5  34
BRANCH   4  52
HETATM   52  N2  UNL     1     -19.973  14.996  14.905  1.00  0.00    -0.072 N 
ATOM     53  H23 UNL     1     -20.590  15.102  14.099  1.00  0.00     0.274 HD
ATOM     54  H22 UNL     1     -20.592  15.394  15.611  1.00  0.00     0.274 HD
ATOM     55  H21 UNL     1     -19.106  15.524  14.804  1.00  0.00     0.274 HD
ENDBRANCH   4  52
TORSDOF 18
ENDMDL
