MODEL 1
REMARK VINA RESULT: -9.319405274      0.000      0.000
REMARK  10 active torsions:
REMARK  status: ('A' for Active; 'I' for Inactive)
REMARK    1  A    between atoms: C2_2  and  C3_4 
REMARK    2  A    between atoms: C3_4  and  N13_47 
REMARK    3  A    between atoms: N1_5  and  N2_7 
REMARK       I    between atoms: N2_7  and  C4_9 
REMARK       I    between atoms: C4_9  and  N3_11 
REMARK    4  A    between atoms: N3_11  and  N4_12 
REMARK    5  A    between atoms: N3_11  and  C5_16 
REMARK    6  A    between atoms: N4_12  and  O3_14 
REMARK    7  A    between atoms: C5_16  and  N5_17 
REMARK    8  A    between atoms: N5_17  and  C6_19 
REMARK    9  A    between atoms: C6_19  and  C7_20 
REMARK   10  A    between atoms: N9_33  and  C14_35 
ROOT
HETATM    1  C5  UNL     1     -15.881  10.429  15.457  1.00  0.00     0.164 C 
HETATM    2  C9  UNL     1     -15.483  11.410  16.166  1.00  0.00     0.123 C 
HETATM    3  N7  UNL     1     -15.938  12.003  17.339  1.00  0.00    -0.339 N 
ATOM      4  H7  UNL     1     -16.359  11.374  18.024  1.00  0.00     0.167 HD
HETATM    5  C10 UNL     1     -15.890  13.374  17.702  1.00  0.00     0.117 C 
HETATM    6  C11 UNL     1     -16.435  13.814  18.987  1.00  0.00     0.117 C 
HETATM    7  N8  UNL     1     -16.871  14.141  20.007  1.00  0.00    -0.190 NA
HETATM    8  C12 UNL     1     -15.377  14.289  16.945  1.00  0.00     0.079 C 
HETATM    9  C13 UNL     1     -14.777  14.060  15.638  1.00  0.00     0.095 C 
HETATM   10  N9  UNL     1     -14.726  14.884  14.709  1.00  0.00    -0.184 N 
ATOM     11  H9  UNL     1     -14.268  14.563  13.855  1.00  0.00     0.185 HD
HETATM   12  S1  UNL     1     -14.070  12.404  15.444  1.00  0.00    -0.050 SA
ENDROOT
BRANCH   1  13
HETATM   13  N3  UNL     1     -16.951   9.531  15.535  1.00  0.00    -0.166 N 
HETATM   14  C4  UNL     1     -18.086   9.374  14.729  1.00  0.00     0.363 C 
HETATM   15  N2  UNL     1     -19.090   8.420  15.130  1.00  0.00    -0.248 N 
HETATM   16  O2  UNL     1     -18.345   9.972  13.674  1.00  0.00    -0.243 OA
ATOM     17  H2  UNL     1     -18.963   7.878  15.985  1.00  0.00     0.192 HD
BRANCH  15  18
HETATM   18  N1  UNL     1     -20.217   8.240  14.366  1.00  0.00    -0.278 N 
HETATM   19  C3  UNL     1     -20.560   7.120  13.818  1.00  0.00     0.175 C 
ATOM     20  H1  UNL     1     -20.826   9.045  14.220  1.00  0.00     0.189 HD
BRANCH  19  21
HETATM   21  C2  UNL     1     -21.788   7.108  13.041  1.00  0.00     0.191 C 
HETATM   22  C1  UNL     1     -22.960   7.852  13.565  1.00  0.00     0.100 C 
HETATM   23  O1  UNL     1     -21.864   6.477  11.932  1.00  0.00    -0.290 OA
ENDBRANCH  19  21
BRANCH  19  24
HETATM   24  N13 UNL     1     -19.799   5.937  13.948  1.00  0.00    -0.275 N 
HETATM   25  C17 UNL     1     -19.052   5.435  12.875  1.00  0.00     0.183 C 
HETATM   26  N14 UNL     1     -18.431   5.013  11.995  1.00  0.00    -0.172 NA
ATOM     27  H13 UNL     1     -19.793   5.439  14.838  1.00  0.00     0.180 HD
ENDBRANCH  19  24
ENDBRANCH  15  18
BRANCH  13  28
HETATM   28  N4  UNL     1     -16.883   8.648  16.683  1.00  0.00    -0.198 N 
ATOM     29  H4  UNL     1     -17.052   9.026  17.615  1.00  0.00     0.216 HD
BRANCH  28  30
HETATM   30  O3  UNL     1     -16.623   7.442  16.553  1.00  0.00    -0.274 OA
ATOM     31  H3  UNL     1     -17.162   6.775  16.963  1.00  0.00     0.246 HD
ENDBRANCH  28  30
ENDBRANCH  13  28
ENDBRANCH   1  13
BRANCH   1  32
HETATM   32  N5  UNL     1     -15.030  10.155  14.266  1.00  0.00    -0.367 N 
ATOM     33  H5  UNL     1     -14.664  10.929  13.711  1.00  0.00     0.161 HD
BRANCH  32  34
HETATM   34  C6  UNL     1     -14.726   8.804  13.901  1.00  0.00     0.182 C 
BRANCH  34  35
HETATM   35  C7  UNL     1     -13.313   8.682  13.501  1.00  0.00     0.074 A 
HETATM   36  C8  UNL     1     -12.214   9.493  13.529  1.00  0.00     0.196 A 
HETATM   37  O4  UNL     1     -11.464   8.561  12.992  1.00  0.00    -0.248 OA
HETATM   38  N6  UNL     1     -12.503   7.784  12.961  1.00  0.00    -0.262 N 
ATOM     39  H6  UNL     1     -12.645   6.827  12.637  1.00  0.00     0.194 HD
ENDBRANCH  34  35
ENDBRANCH  32  34
ENDBRANCH   1  32
BRANCH  10  40
HETATM   40  C14 UNL     1     -15.216  16.196  14.683  1.00  0.00     0.700 A 
HETATM   41  N10 UNL     1     -16.465  16.421  14.222  1.00  0.00    -0.129 N 
HETATM   42  N11 UNL     1     -17.005  17.616  14.161  1.00  0.00    -0.247 N 
ATOM     43  H10 UNL     1     -17.015  15.622  13.905  1.00  0.00     0.205 HD
HETATM   44  C15 UNL     1     -16.308  18.695  14.570  1.00  0.00     0.329 A 
ATOM     45  H11 UNL     1     -17.953  17.728  13.803  1.00  0.00     0.191 HD
HETATM   46  O5  UNL     1     -16.842  19.831  14.505  1.00  0.00    -0.261 OA
HETATM   47  C16 UNL     1     -15.026  18.529  15.053  1.00  0.00     0.329 A 
HETATM   48  O6  UNL     1     -14.376  19.537  15.434  1.00  0.00    -0.261 OA
HETATM   49  N12 UNL     1     -14.526  17.272  15.090  1.00  0.00    -0.150 N 
ATOM     50  H12 UNL     1     -13.579  17.136  15.444  1.00  0.00     0.188 HD
ENDBRANCH  10  40
TORSDOF 10
ENDMDL
MODEL 2
REMARK VINA RESULT: -9.297601487      0.466      1.020
REMARK  10 active torsions:
REMARK  status: ('A' for Active; 'I' for Inactive)
REMARK    1  A    between atoms: C2_2  and  C3_4 
REMARK    2  A    between atoms: C3_4  and  N13_47 
REMARK    3  A    between atoms: N1_5  and  N2_7 
REMARK       I    between atoms: N2_7  and  C4_9 
REMARK       I    between atoms: C4_9  and  N3_11 
REMARK    4  A    between atoms: N3_11  and  N4_12 
REMARK    5  A    between atoms: N3_11  and  C5_16 
REMARK    6  A    between atoms: N4_12  and  O3_14 
REMARK    7  A    between atoms: C5_16  and  N5_17 
REMARK    8  A    between atoms: N5_17  and  C6_19 
REMARK    9  A    between atoms: C6_19  and  C7_20 
REMARK   10  A    between atoms: N9_33  and  C14_35 
ROOT
HETATM    1  C5  UNL     1     -15.888  10.338  15.470  1.00  0.00     0.164 C 
HETATM    2  C9  UNL     1     -15.470  11.296  16.199  1.00  0.00     0.123 C 
HETATM    3  N7  UNL     1     -15.910  11.870  17.388  1.00  0.00    -0.339 N 
ATOM      4  H7  UNL     1     -16.338  11.232  18.060  1.00  0.00     0.167 HD
HETATM    5  C10 UNL     1     -15.837  13.231  17.781  1.00  0.00     0.117 C 
HETATM    6  C11 UNL     1     -16.369  13.650  19.078  1.00  0.00     0.117 C 
HETATM    7  N8  UNL     1     -16.794  13.961  20.108  1.00  0.00    -0.190 NA
HETATM    8  C12 UNL     1     -15.313  14.154  17.042  1.00  0.00     0.079 C 
HETATM    9  C13 UNL     1     -14.724  13.946  15.727  1.00  0.00     0.095 C 
HETATM   10  N9  UNL     1     -14.664  14.789  14.817  1.00  0.00    -0.184 N 
ATOM     11  H9  UNL     1     -14.215  14.481  13.954  1.00  0.00     0.185 HD
HETATM   12  S1  UNL     1     -14.045  12.283  15.492  1.00  0.00    -0.050 SA
ENDROOT
BRANCH   1  13
HETATM   13  N3  UNL     1     -16.972   9.456  15.533  1.00  0.00    -0.166 N 
HETATM   14  C4  UNL     1     -18.101   9.320  14.716  1.00  0.00     0.363 C 
HETATM   15  N2  UNL     1     -19.124   8.380  15.103  1.00  0.00    -0.248 N 
HETATM   16  O2  UNL     1     -18.341   9.927  13.661  1.00  0.00    -0.243 OA
ATOM     17  H2  UNL     1     -19.014   7.832  15.955  1.00  0.00     0.192 HD
BRANCH  15  18
HETATM   18  N1  UNL     1     -20.247   8.221  14.327  1.00  0.00    -0.278 N 
HETATM   19  C3  UNL     1     -20.603   7.108  13.772  1.00  0.00     0.175 C 
ATOM     20  H1  UNL     1     -20.840   9.036  14.178  1.00  0.00     0.189 HD
BRANCH  19  21
HETATM   21  C2  UNL     1     -21.823   7.120  12.983  1.00  0.00     0.191 C 
HETATM   22  C1  UNL     1     -22.982   7.895  13.489  1.00  0.00     0.100 C 
HETATM   23  O1  UNL     1     -21.903   6.481  11.879  1.00  0.00    -0.290 OA
ENDBRANCH  19  21
BRANCH  19  24
HETATM   24  N13 UNL     1     -19.863   5.912  13.906  1.00  0.00    -0.275 N 
HETATM   25  C17 UNL     1     -19.084   5.421  12.851  1.00  0.00     0.183 C 
HETATM   26  N14 UNL     1     -18.438   5.007  11.985  1.00  0.00    -0.172 NA
ATOM     27  H13 UNL     1     -19.896   5.398  14.786  1.00  0.00     0.180 HD
ENDBRANCH  19  24
ENDBRANCH  15  18
BRANCH  13  28
HETATM   28  N4  UNL     1     -16.929   8.567  16.677  1.00  0.00    -0.198 N 
ATOM     29  H4  UNL     1     -17.119   8.939  17.608  1.00  0.00     0.216 HD
BRANCH  28  30
HETATM   30  O3  UNL     1     -16.665   7.361  16.546  1.00  0.00    -0.274 OA
ATOM     31  H3  UNL     1     -15.996   6.943  17.075  1.00  0.00     0.246 HD
ENDBRANCH  28  30
ENDBRANCH  13  28
ENDBRANCH   1  13
BRANCH   1  32
HETATM   32  N5  UNL     1     -15.047  10.078  14.269  1.00  0.00    -0.367 N 
ATOM     33  H5  UNL     1     -14.703  10.857  13.708  1.00  0.00     0.161 HD
BRANCH  32  34
HETATM   34  C6  UNL     1     -14.724   8.731  13.902  1.00  0.00     0.182 C 
BRANCH  34  35
HETATM   35  C7  UNL     1     -13.306   8.627  13.516  1.00  0.00     0.074 A 
HETATM   36  C8  UNL     1     -12.227   9.465  13.517  1.00  0.00     0.196 A 
HETATM   37  O4  UNL     1     -11.451   8.530  13.023  1.00  0.00    -0.248 OA
HETATM   38  N6  UNL     1     -12.471   7.727  13.018  1.00  0.00    -0.262 N 
ATOM     39  H6  UNL     1     -12.587   6.755  12.734  1.00  0.00     0.194 HD
ENDBRANCH  34  35
ENDBRANCH  32  34
ENDBRANCH   1  32
BRANCH  10  40
HETATM   40  C14 UNL     1     -15.132  16.110  14.823  1.00  0.00     0.700 A 
HETATM   41  N10 UNL     1     -14.271  17.109  15.111  1.00  0.00    -0.129 N 
HETATM   42  N11 UNL     1     -14.622  18.374  15.139  1.00  0.00    -0.247 N 
ATOM     43  H10 UNL     1     -13.301  16.869  15.316  1.00  0.00     0.205 HD
HETATM   44  C15 UNL     1     -15.895  18.730  14.872  1.00  0.00     0.329 A 
ATOM     45  H11 UNL     1     -13.930  19.089  15.363  1.00  0.00     0.191 HD
HETATM   46  O5  UNL     1     -16.212  19.946  14.903  1.00  0.00    -0.261 OA
HETATM   47  C16 UNL     1     -16.821  17.753  14.570  1.00  0.00     0.329 A 
HETATM   48  O6  UNL     1     -18.009  18.085  14.322  1.00  0.00    -0.261 OA
HETATM   49  N12 UNL     1     -16.398  16.467  14.558  1.00  0.00    -0.150 N 
ATOM     50  H12 UNL     1     -17.072  15.735  14.336  1.00  0.00     0.188 HD
ENDBRANCH  10  40
TORSDOF 10
ENDMDL
MODEL 3
REMARK VINA RESULT: -8.788678322      1.206      2.050
REMARK  10 active torsions:
REMARK  status: ('A' for Active; 'I' for Inactive)
REMARK    1  A    between atoms: C2_2  and  C3_4 
REMARK    2  A    between atoms: C3_4  and  N13_47 
REMARK    3  A    between atoms: N1_5  and  N2_7 
REMARK       I    between atoms: N2_7  and  C4_9 
REMARK       I    between atoms: C4_9  and  N3_11 
REMARK    4  A    between atoms: N3_11  and  N4_12 
REMARK    5  A    between atoms: N3_11  and  C5_16 
REMARK    6  A    between atoms: N4_12  and  O3_14 
REMARK    7  A    between atoms: C5_16  and  N5_17 
REMARK    8  A    between atoms: N5_17  and  C6_19 
REMARK    9  A    between atoms: C6_19  and  C7_20 
REMARK   10  A    between atoms: N9_33  and  C14_35 
ROOT
HETATM    1  C5  UNL     1     -16.120  10.147  15.358  1.00  0.00     0.164 C 
HETATM    2  C9  UNL     1     -15.675  11.094  16.084  1.00  0.00     0.123 C 
HETATM    3  N7  UNL     1     -16.097  11.684  17.272  1.00  0.00    -0.339 N 
ATOM      4  H7  UNL     1     -16.543  11.061  17.946  1.00  0.00     0.167 HD
HETATM    5  C10 UNL     1     -15.985  13.043  17.661  1.00  0.00     0.117 C 
HETATM    6  C11 UNL     1     -16.504  13.481  18.958  1.00  0.00     0.117 C 
HETATM    7  N8  UNL     1     -16.921  13.807  19.987  1.00  0.00    -0.190 NA
HETATM    8  C12 UNL     1     -15.436  13.949  16.920  1.00  0.00     0.079 C 
HETATM    9  C13 UNL     1     -14.852  13.720  15.605  1.00  0.00     0.095 C 
HETATM   10  N9  UNL     1     -14.768  14.559  14.693  1.00  0.00    -0.184 N 
ATOM     11  H9  UNL     1     -14.329  14.236  13.831  1.00  0.00     0.185 HD
HETATM   12  S1  UNL     1     -14.222  12.038  15.375  1.00  0.00    -0.050 SA
ENDROOT
BRANCH   1  13
HETATM   13  N3  UNL     1     -17.229   9.297  15.424  1.00  0.00    -0.166 N 
HETATM   14  C4  UNL     1     -18.169   8.928  14.454  1.00  0.00     0.363 C 
HETATM   15  N2  UNL     1     -19.288   8.109  14.853  1.00  0.00    -0.248 N 
HETATM   16  O2  UNL     1     -18.160   9.225  13.250  1.00  0.00    -0.243 OA
ATOM     17  H2  UNL     1     -19.379   7.812  15.824  1.00  0.00     0.192 HD
BRANCH  15  18
HETATM   18  N1  UNL     1     -20.231   7.729  13.929  1.00  0.00    -0.278 N 
HETATM   19  C3  UNL     1     -21.333   8.366  13.701  1.00  0.00     0.175 C 
ATOM     20  H1  UNL     1     -20.048   6.886  13.384  1.00  0.00     0.189 HD
BRANCH  19  21
HETATM   21  C2  UNL     1     -22.217   7.821  12.685  1.00  0.00     0.191 C 
HETATM   22  C1  UNL     1     -23.553   8.443  12.508  1.00  0.00     0.100 C 
HETATM   23  O1  UNL     1     -21.862   6.831  11.959  1.00  0.00    -0.290 OA
ENDBRANCH  19  21
BRANCH  19  24
HETATM   24  N13 UNL     1     -21.695   9.544  14.391  1.00  0.00    -0.275 N 
HETATM   25  C17 UNL     1     -21.439   9.690  15.759  1.00  0.00     0.183 C 
HETATM   26  N14 UNL     1     -21.230   9.821  16.890  1.00  0.00    -0.172 NA
ATOM     27  H13 UNL     1     -22.153  10.302  13.883  1.00  0.00     0.180 HD
ENDBRANCH  19  24
ENDBRANCH  15  18
BRANCH  13  28
HETATM   28  N4  UNL     1     -17.460   8.748  16.746  1.00  0.00    -0.198 N 
ATOM     29  H4  UNL     1     -16.914   7.944  17.057  1.00  0.00     0.216 HD
BRANCH  28  30
HETATM   30  O3  UNL     1     -18.310   9.237  17.507  1.00  0.00    -0.274 OA
ATOM     31  H3  UNL     1     -19.221   9.306  17.249  1.00  0.00     0.246 HD
ENDBRANCH  28  30
ENDBRANCH  13  28
ENDBRANCH   1  13
BRANCH   1  32
HETATM   32  N5  UNL     1     -15.288   9.859  14.158  1.00  0.00    -0.367 N 
ATOM     33  H5  UNL     1     -15.034  10.613  13.520  1.00  0.00     0.161 HD
BRANCH  32  34
HETATM   34  C6  UNL     1     -14.844   8.522  13.900  1.00  0.00     0.182 C 
BRANCH  34  35
HETATM   35  C7  UNL     1     -13.433   8.517  13.476  1.00  0.00     0.074 A 
HETATM   36  C8  UNL     1     -12.403   9.416  13.491  1.00  0.00     0.196 A 
HETATM   37  O4  UNL     1     -11.589   8.551  12.937  1.00  0.00    -0.248 OA
HETATM   38  N6  UNL     1     -12.561   7.691  12.919  1.00  0.00    -0.262 N 
ATOM     39  H6  UNL     1     -12.629   6.727  12.593  1.00  0.00     0.194 HD
ENDBRANCH  34  35
ENDBRANCH  32  34
ENDBRANCH   1  32
BRANCH  10  40
HETATM   40  C14 UNL     1     -15.198  15.893  14.695  1.00  0.00     0.700 A 
HETATM   41  N10 UNL     1     -14.324  16.863  15.035  1.00  0.00    -0.129 N 
HETATM   42  N11 UNL     1     -14.639  18.137  15.064  1.00  0.00    -0.247 N 
ATOM     43  H10 UNL     1     -13.371  16.593  15.280  1.00  0.00     0.205 HD
HETATM   44  C15 UNL     1     -15.888  18.533  14.745  1.00  0.00     0.329 A 
ATOM     45  H11 UNL     1     -13.938  18.829  15.329  1.00  0.00     0.191 HD
HETATM   46  O5  UNL     1     -16.171  19.757  14.778  1.00  0.00    -0.261 OA
HETATM   47  C16 UNL     1     -16.827  17.587  14.388  1.00  0.00     0.329 A 
HETATM   48  O6  UNL     1     -17.992  17.956  14.091  1.00  0.00    -0.261 OA
HETATM   49  N12 UNL     1     -16.440  16.290  14.378  1.00  0.00    -0.150 N 
ATOM     50  H12 UNL     1     -17.125  15.581  14.116  1.00  0.00     0.188 HD
ENDBRANCH  10  40
TORSDOF 10
ENDMDL
MODEL 4
REMARK VINA RESULT: -8.772200595      1.116      1.770
REMARK  10 active torsions:
REMARK  status: ('A' for Active; 'I' for Inactive)
REMARK    1  A    between atoms: C2_2  and  C3_4 
REMARK    2  A    between atoms: C3_4  and  N13_47 
REMARK    3  A    between atoms: N1_5  and  N2_7 
REMARK       I    between atoms: N2_7  and  C4_9 
REMARK       I    between atoms: C4_9  and  N3_11 
REMARK    4  A    between atoms: N3_11  and  N4_12 
REMARK    5  A    between atoms: N3_11  and  C5_16 
REMARK    6  A    between atoms: N4_12  and  O3_14 
REMARK    7  A    between atoms: C5_16  and  N5_17 
REMARK    8  A    between atoms: N5_17  and  C6_19 
REMARK    9  A    between atoms: C6_19  and  C7_20 
REMARK   10  A    between atoms: N9_33  and  C14_35 
ROOT
HETATM    1  C5  UNL     1     -16.140  10.185  15.352  1.00  0.00     0.164 C 
HETATM    2  C9  UNL     1     -15.723  11.150  16.071  1.00  0.00     0.123 C 
HETATM    3  N7  UNL     1     -16.172  11.745  17.246  1.00  0.00    -0.339 N 
ATOM      4  H7  UNL     1     -16.612  11.121  17.923  1.00  0.00     0.167 HD
HETATM    5  C10 UNL     1     -16.092  13.111  17.620  1.00  0.00     0.117 C 
HETATM    6  C11 UNL     1     -16.635  13.554  18.905  1.00  0.00     0.117 C 
HETATM    7  N8  UNL     1     -17.070  13.884  19.925  1.00  0.00    -0.190 NA
HETATM    8  C12 UNL     1     -15.551  14.019  16.874  1.00  0.00     0.079 C 
HETATM    9  C13 UNL     1     -14.948  13.786  15.569  1.00  0.00     0.095 C 
HETATM   10  N9  UNL     1     -14.870  14.615  14.648  1.00  0.00    -0.184 N 
ATOM     11  H9  UNL     1     -14.414  14.290  13.794  1.00  0.00     0.185 HD
HETATM   12  S1  UNL     1     -14.281  12.114  15.367  1.00  0.00    -0.050 SA
ENDROOT
BRANCH   1  13
HETATM   13  N3  UNL     1     -17.233   9.313  15.415  1.00  0.00    -0.166 N 
HETATM   14  C4  UNL     1     -18.179   8.946  14.450  1.00  0.00     0.363 C 
HETATM   15  N2  UNL     1     -19.277   8.099  14.847  1.00  0.00    -0.248 N 
HETATM   16  O2  UNL     1     -18.192   9.267  13.252  1.00  0.00    -0.243 OA
ATOM     17  H2  UNL     1     -19.349   7.782  15.813  1.00  0.00     0.192 HD
BRANCH  15  18
HETATM   18  N1  UNL     1     -20.225   7.720  13.928  1.00  0.00    -0.278 N 
HETATM   19  C3  UNL     1     -21.331   8.354  13.711  1.00  0.00     0.175 C 
ATOM     20  H1  UNL     1     -20.044   6.880  13.379  1.00  0.00     0.189 HD
BRANCH  19  21
HETATM   21  C2  UNL     1     -22.221   7.811  12.700  1.00  0.00     0.191 C 
HETATM   22  C1  UNL     1     -23.554   8.439  12.524  1.00  0.00     0.100 C 
HETATM   23  O1  UNL     1     -21.873   6.817  11.975  1.00  0.00    -0.290 OA
ENDBRANCH  19  21
BRANCH  19  24
HETATM   24  N13 UNL     1     -21.693   9.528  14.410  1.00  0.00    -0.275 N 
HETATM   25  C17 UNL     1     -21.421   9.671  15.776  1.00  0.00     0.183 C 
HETATM   26  N14 UNL     1     -21.201   9.799  16.904  1.00  0.00    -0.172 NA
ATOM     27  H13 UNL     1     -22.161  10.284  13.910  1.00  0.00     0.180 HD
ENDBRANCH  19  24
ENDBRANCH  15  18
BRANCH  13  28
HETATM   28  N4  UNL     1     -17.436   8.734  16.729  1.00  0.00    -0.198 N 
ATOM     29  H4  UNL     1     -16.879   7.928  17.012  1.00  0.00     0.216 HD
BRANCH  28  30
HETATM   30  O3  UNL     1     -18.275   9.200  17.515  1.00  0.00    -0.274 OA
ATOM     31  H3  UNL     1     -18.095   9.266  18.446  1.00  0.00     0.246 HD
ENDBRANCH  28  30
ENDBRANCH  13  28
ENDBRANCH   1  13
BRANCH   1  32
HETATM   32  N5  UNL     1     -15.288   9.899  14.164  1.00  0.00    -0.367 N 
ATOM     33  H5  UNL     1     -15.017  10.656  13.536  1.00  0.00     0.161 HD
BRANCH  32  34
HETATM   34  C6  UNL     1     -14.849   8.561  13.905  1.00  0.00     0.182 C 
BRANCH  34  35
HETATM   35  C7  UNL     1     -13.438   8.551  13.483  1.00  0.00     0.074 A 
HETATM   36  C8  UNL     1     -12.400   9.439  13.518  1.00  0.00     0.196 A 
HETATM   37  O4  UNL     1     -11.593   8.578  12.946  1.00  0.00    -0.248 OA
HETATM   38  N6  UNL     1     -12.574   7.729  12.908  1.00  0.00    -0.262 N 
ATOM     39  H6  UNL     1     -12.651   6.773  12.560  1.00  0.00     0.194 HD
ENDBRANCH  34  35
ENDBRANCH  32  34
ENDBRANCH   1  32
BRANCH  10  40
HETATM   40  C14 UNL     1     -15.327  15.940  14.628  1.00  0.00     0.700 A 
HETATM   41  N10 UNL     1     -16.572  16.197  14.174  1.00  0.00    -0.129 N 
HETATM   42  N11 UNL     1     -17.082  17.406  14.120  1.00  0.00    -0.247 N 
ATOM     43  H10 UNL     1     -17.144  15.414  13.858  1.00  0.00     0.205 HD
HETATM   44  C15 UNL     1     -16.357  18.465  14.530  1.00  0.00     0.329 A 
ATOM     45  H11 UNL     1     -18.029  17.543  13.768  1.00  0.00     0.191 HD
HETATM   46  O5  UNL     1     -16.862  19.615  14.472  1.00  0.00    -0.261 OA
HETATM   47  C16 UNL     1     -15.077  18.266  15.007  1.00  0.00     0.329 A 
HETATM   48  O6  UNL     1     -14.400  19.255  15.388  1.00  0.00    -0.261 OA
HETATM   49  N12 UNL     1     -14.608  16.996  15.036  1.00  0.00    -0.150 N 
ATOM     50  H12 UNL     1     -13.664  16.835  15.385  1.00  0.00     0.188 HD
ENDBRANCH  10  40
TORSDOF 10
ENDMDL
MODEL 5
REMARK VINA RESULT: -8.727553537      1.512      1.761
REMARK  10 active torsions:
REMARK  status: ('A' for Active; 'I' for Inactive)
REMARK    1  A    between atoms: C2_2  and  C3_4 
REMARK    2  A    between atoms: C3_4  and  N13_47 
REMARK    3  A    between atoms: N1_5  and  N2_7 
REMARK       I    between atoms: N2_7  and  C4_9 
REMARK       I    between atoms: C4_9  and  N3_11 
REMARK    4  A    between atoms: N3_11  and  N4_12 
REMARK    5  A    between atoms: N3_11  and  C5_16 
REMARK    6  A    between atoms: N4_12  and  O3_14 
REMARK    7  A    between atoms: C5_16  and  N5_17 
REMARK    8  A    between atoms: N5_17  and  C6_19 
REMARK    9  A    between atoms: C6_19  and  C7_20 
REMARK   10  A    between atoms: N9_33  and  C14_35 
ROOT
HETATM    1  C5  UNL     1     -16.791  10.339  15.474  1.00  0.00     0.164 C 
HETATM    2  C9  UNL     1     -16.140  11.070  16.288  1.00  0.00     0.123 C 
HETATM    3  N7  UNL     1     -16.445  11.673  17.505  1.00  0.00    -0.339 N 
ATOM      4  H7  UNL     1     -17.083  11.157  18.112  1.00  0.00     0.167 HD
HETATM    5  C10 UNL     1     -15.979  12.916  18.006  1.00  0.00     0.117 C 
HETATM    6  C11 UNL     1     -16.425  13.393  19.316  1.00  0.00     0.117 C 
HETATM    7  N8  UNL     1     -16.788  13.752  20.353  1.00  0.00    -0.190 NA
HETATM    8  C12 UNL     1     -15.158  13.677  17.359  1.00  0.00     0.079 C 
HETATM    9  C13 UNL     1     -14.592  13.383  16.050  1.00  0.00     0.095 C 
HETATM   10  N9  UNL     1     -14.227  14.224  15.212  1.00  0.00    -0.184 N 
ATOM     11  H9  UNL     1     -13.850  13.849  14.341  1.00  0.00     0.185 HD
HETATM   12  S1  UNL     1     -14.445  11.610  15.706  1.00  0.00    -0.050 SA
ENDROOT
BRANCH   1  13
HETATM   13  N3  UNL     1     -18.096   9.834  15.434  1.00  0.00    -0.166 N 
HETATM   14  C4  UNL     1     -19.115   9.981  14.484  1.00  0.00     0.363 C 
HETATM   15  N2  UNL     1     -20.415   9.429  14.776  1.00  0.00    -0.248 N 
HETATM   16  O2  UNL     1     -19.037  10.545  13.382  1.00  0.00    -0.243 OA
ATOM     17  H2  UNL     1     -20.574   8.944  15.658  1.00  0.00     0.192 HD
BRANCH  15  18
HETATM   18  N1  UNL     1     -21.439   9.554  13.868  1.00  0.00    -0.278 N 
HETATM   19  C3  UNL     1     -22.147   8.569  13.422  1.00  0.00     0.175 C 
ATOM     20  H1  UNL     1     -21.655  10.489  13.523  1.00  0.00     0.189 HD
BRANCH  19  21
HETATM   21  C2  UNL     1     -23.194   8.884  12.464  1.00  0.00     0.191 C 
HETATM   22  C1  UNL     1     -22.795   9.293  11.095  1.00  0.00     0.100 C 
HETATM   23  O1  UNL     1     -24.429   8.811  12.785  1.00  0.00    -0.290 OA
ENDBRANCH  19  21
BRANCH  19  24
HETATM   24  N13 UNL     1     -21.942   7.231  13.825  1.00  0.00    -0.275 N 
HETATM   25  C17 UNL     1     -21.098   6.378  13.104  1.00  0.00     0.183 C 
HETATM   26  N14 UNL     1     -20.402   5.666  12.515  1.00  0.00    -0.172 NA
ATOM     27  H13 UNL     1     -22.418   6.879  14.657  1.00  0.00     0.180 HD
ENDBRANCH  19  24
ENDBRANCH  15  18
BRANCH  13  28
HETATM   28  N4  UNL     1     -18.457   9.069  16.612  1.00  0.00    -0.198 N 
ATOM     29  H4  UNL     1     -18.260   8.069  16.638  1.00  0.00     0.216 HD
BRANCH  28  30
HETATM   30  O3  UNL     1     -19.001   9.608  17.588  1.00  0.00    -0.274 OA
ATOM     31  H3  UNL     1     -18.488   9.964  18.304  1.00  0.00     0.246 HD
ENDBRANCH  28  30
ENDBRANCH  13  28
ENDBRANCH   1  13
BRANCH   1  32
HETATM   32  N5  UNL     1     -16.009   9.910  14.282  1.00  0.00    -0.367 N 
ATOM     33  H5  UNL     1     -15.527  10.604  13.710  1.00  0.00     0.161 HD
BRANCH  32  34
HETATM   34  C6  UNL     1     -15.933   8.521  13.940  1.00  0.00     0.182 C 
BRANCH  34  35
HETATM   35  C7  UNL     1     -14.546   8.143  13.618  1.00  0.00     0.074 A 
HETATM   36  C8  UNL     1     -13.382   8.812  13.364  1.00  0.00     0.196 A 
HETATM   37  O4  UNL     1     -12.727   7.690  13.196  1.00  0.00    -0.248 OA
HETATM   38  N6  UNL     1     -13.827   7.045  13.436  1.00  0.00    -0.262 N 
ATOM     39  H6  UNL     1     -14.056   6.052  13.471  1.00  0.00     0.194 HD
ENDBRANCH  34  35
ENDBRANCH  32  34
ENDBRANCH   1  32
BRANCH  10  40
HETATM   40  C14 UNL     1     -14.267  15.621  15.307  1.00  0.00     0.700 A 
HETATM   41  N10 UNL     1     -15.252  16.293  14.675  1.00  0.00    -0.129 N 
HETATM   42  N11 UNL     1     -15.367  17.601  14.710  1.00  0.00    -0.247 N 
ATOM     43  H10 UNL     1     -15.940  15.759  14.145  1.00  0.00     0.205 HD
HETATM   44  C15 UNL     1     -14.477  18.341  15.401  1.00  0.00     0.329 A 
ATOM     45  H11 UNL     1     -16.132  18.057  14.213  1.00  0.00     0.191 HD
HETATM   46  O5  UNL     1     -14.604  19.591  15.423  1.00  0.00    -0.261 OA
HETATM   47  C16 UNL     1     -13.448  17.710  16.069  1.00  0.00     0.329 A 
HETATM   48  O6  UNL     1     -12.617  18.401  16.713  1.00  0.00    -0.261 OA
HETATM   49  N12 UNL     1     -13.383  16.360  15.995  1.00  0.00    -0.150 N 
ATOM     50  H12 UNL     1     -12.627  15.882  16.484  1.00  0.00     0.188 HD
ENDBRANCH  10  40
TORSDOF 10
ENDMDL
