MODEL 1
REMARK VINA RESULT: -6.031473040      0.000      0.000
REMARK  5 active torsions:
REMARK  status: ('A' for Active; 'I' for Inactive)
REMARK       I    between atoms: N1_2  and  C2_4 
REMARK       I    between atoms: C2_4  and  N4_11 
REMARK    1  A    between atoms: N2_5  and  C3_7 
REMARK    2  A    between atoms: C3_7  and  C4_8 
REMARK    3  A    between atoms: N4_11  and  C6_13 
REMARK    4  A    between atoms: C6_13  and  C7_14 
REMARK    5  A    between atoms: C12_19  and  O1_20 
ROOT
HETATM    1  C1  UNL     1      34.454   9.746  51.976  1.00  0.00     0.165 C 
HETATM    2  N1  UNL     1      34.725  11.132  51.678  1.00  0.00    -0.231 N 
ATOM      3  H1  UNL     1      34.006  11.706  51.236  1.00  0.00     0.177 HD
HETATM    4  C2  UNL     1      35.961  11.688  51.990  1.00  0.00     0.669 C 
HETATM    5  N2  UNL     1      36.108  12.591  52.855  1.00  0.00    -0.223 N 
ATOM      6  H2  UNL     1      37.063  12.920  52.997  1.00  0.00     0.178 HD
HETATM    7  N4  UNL     1      37.145  11.221  51.303  1.00  0.00    -0.222 N 
ATOM      8  H4  UNL     1      37.241  11.328  50.293  1.00  0.00     0.178 HD
ENDROOT
BRANCH   7   9
HETATM    9  C6  UNL     1      38.178  10.606  52.080  1.00  0.00     0.179 C 
BRANCH   9  10
HETATM   10  C7  UNL     1      39.428  10.449  51.347  1.00  0.00    -0.007 A 
HETATM   11  C8  UNL     1      39.778  11.135  50.225  1.00  0.00     0.011 A 
HETATM   12  C9  UNL     1      41.019  10.884  49.614  1.00  0.00     0.001 A 
HETATM   13  C10 UNL     1      41.890   9.954  50.132  1.00  0.00     0.003 A 
HETATM   14  C11 UNL     1      41.527   9.269  51.264  1.00  0.00     0.037 A 
HETATM   15  C12 UNL     1      40.319   9.497  51.877  1.00  0.00     0.076 A 
BRANCH  15  16
HETATM   16  O1  UNL     1      39.928   8.822  53.016  1.00  0.00    -0.355 OA
HETATM   17  C13 UNL     1      40.525   7.564  53.283  1.00  0.00     0.210 C 
ENDBRANCH  15  16
ENDBRANCH   9  10
ENDBRANCH   7   9
BRANCH   5  18
HETATM   18  C3  UNL     1      35.116  13.212  53.658  1.00  0.00     0.166 C 
BRANCH  18  19
HETATM   19  C4  UNL     1      34.750  12.352  54.807  1.00  0.00     0.008 C 
HETATM   20  C5  UNL     1      33.535  11.870  54.976  1.00  0.00     0.097 C 
HETATM   21  N3  UNL     1      33.166  11.049  56.066  1.00  0.00    -0.115 NA
ENDBRANCH  18  19
ENDBRANCH   5  18
TORSDOF 5
ENDMDL
MODEL 2
REMARK VINA RESULT: -6.011012747      2.182      3.924
REMARK  5 active torsions:
REMARK  status: ('A' for Active; 'I' for Inactive)
REMARK       I    between atoms: N1_2  and  C2_4 
REMARK       I    between atoms: C2_4  and  N4_11 
REMARK    1  A    between atoms: N2_5  and  C3_7 
REMARK    2  A    between atoms: C3_7  and  C4_8 
REMARK    3  A    between atoms: N4_11  and  C6_13 
REMARK    4  A    between atoms: C6_13  and  C7_14 
REMARK    5  A    between atoms: C12_19  and  O1_20 
ROOT
HETATM    1  C1  UNL     1      40.455  10.460  49.307  1.00  0.00     0.165 C 
HETATM    2  N1  UNL     1      39.738  11.194  50.323  1.00  0.00    -0.231 N 
ATOM      3  H1  UNL     1      39.485  12.168  50.161  1.00  0.00     0.177 HD
HETATM    4  C2  UNL     1      39.393  10.577  51.521  1.00  0.00     0.669 C 
HETATM    5  N2  UNL     1      38.200  10.354  51.858  1.00  0.00    -0.223 N 
ATOM      6  H2  UNL     1      38.071   9.895  52.760  1.00  0.00     0.178 HD
HETATM    7  N4  UNL     1      40.434  10.164  52.435  1.00  0.00    -0.222 N 
ATOM      8  H4  UNL     1      41.065  10.847  52.854  1.00  0.00     0.178 HD
ENDROOT
BRANCH   7   9
HETATM    9  C6  UNL     1      40.555   8.768  52.735  1.00  0.00     0.179 C 
BRANCH   9  10
HETATM   10  C7  UNL     1      41.320   8.034  51.735  1.00  0.00    -0.007 A 
HETATM   11  C8  UNL     1      40.874   6.958  51.031  1.00  0.00     0.011 A 
HETATM   12  C9  UNL     1      41.720   6.341  50.093  1.00  0.00     0.001 A 
HETATM   13  C10 UNL     1      42.996   6.806  49.874  1.00  0.00     0.003 A 
HETATM   14  C11 UNL     1      43.434   7.891  50.589  1.00  0.00     0.037 A 
HETATM   15  C12 UNL     1      42.625   8.509  51.511  1.00  0.00     0.076 A 
BRANCH  15  16
HETATM   16  O1  UNL     1      43.041   9.603  52.245  1.00  0.00    -0.355 OA
HETATM   17  C13 UNL     1      43.983  10.483  51.654  1.00  0.00     0.210 C 
ENDBRANCH  15  16
ENDBRANCH   9  10
ENDBRANCH   7   9
BRANCH   5  18
HETATM   18  C3  UNL     1      37.011  10.659  51.146  1.00  0.00     0.166 C 
BRANCH  18  19
HETATM   19  C4  UNL     1      35.828  10.591  52.034  1.00  0.00     0.008 C 
HETATM   20  C5  UNL     1      34.712  11.247  51.784  1.00  0.00     0.097 C 
HETATM   21  N3  UNL     1      33.574  11.195  52.619  1.00  0.00    -0.115 NA
ENDBRANCH  18  19
ENDBRANCH   5  18
TORSDOF 5
ENDMDL
MODEL 3
REMARK VINA RESULT: -6.008214762      5.064      8.393
REMARK  5 active torsions:
REMARK  status: ('A' for Active; 'I' for Inactive)
REMARK       I    between atoms: N1_2  and  C2_4 
REMARK       I    between atoms: C2_4  and  N4_11 
REMARK    1  A    between atoms: N2_5  and  C3_7 
REMARK    2  A    between atoms: C3_7  and  C4_8 
REMARK    3  A    between atoms: N4_11  and  C6_13 
REMARK    4  A    between atoms: C6_13  and  C7_14 
REMARK    5  A    between atoms: C12_19  and  O1_20 
ROOT
HETATM    1  C1  UNL     1      46.195  10.153  52.745  1.00  0.00     0.165 C 
HETATM    2  N1  UNL     1      45.864   9.980  51.350  1.00  0.00    -0.231 N 
ATOM      3  H1  UNL     1      46.569  10.160  50.635  1.00  0.00     0.177 HD
HETATM    4  C2  UNL     1      44.588   9.569  50.978  1.00  0.00     0.669 C 
HETATM    5  N2  UNL     1      44.359   8.459  50.429  1.00  0.00    -0.223 N 
ATOM      6  H2  UNL     1      43.382   8.268  50.203  1.00  0.00     0.178 HD
HETATM    7  N4  UNL     1      43.460  10.439  51.224  1.00  0.00    -0.222 N 
ATOM      8  H4  UNL     1      43.400  11.357  50.784  1.00  0.00     0.178 HD
ENDROOT
BRANCH   7   9
HETATM    9  C6  UNL     1      42.429   9.975  52.104  1.00  0.00     0.179 C 
BRANCH   9  10
HETATM   10  C7  UNL     1      41.093  10.362  51.671  1.00  0.00    -0.007 A 
HETATM   11  C8  UNL     1      40.385  11.425  52.144  1.00  0.00     0.011 A 
HETATM   12  C9  UNL     1      39.100  11.685  51.637  1.00  0.00     0.001 A 
HETATM   13  C10 UNL     1      38.542  10.883  50.668  1.00  0.00     0.003 A 
HETATM   14  C11 UNL     1      39.265   9.816  50.200  1.00  0.00     0.037 A 
HETATM   15  C12 UNL     1      40.522   9.542  50.681  1.00  0.00     0.076 A 
BRANCH  15  16
HETATM   16  O1  UNL     1      41.272   8.474  50.227  1.00  0.00    -0.355 OA
HETATM   17  C13 UNL     1      40.949   7.181  50.710  1.00  0.00     0.210 C 
ENDBRANCH  15  16
ENDBRANCH   9  10
ENDBRANCH   7   9
BRANCH   5  18
HETATM   18  C3  UNL     1      45.283   7.438  50.084  1.00  0.00     0.166 C 
BRANCH  18  19
HETATM   19  C4  UNL     1      45.093   7.003  48.681  1.00  0.00     0.008 C 
HETATM   20  C5  UNL     1      43.906   6.739  48.172  1.00  0.00     0.097 C 
HETATM   21  N3  UNL     1      43.705   6.323  46.837  1.00  0.00    -0.115 NA
ENDBRANCH  18  19
ENDBRANCH   5  18
TORSDOF 5
ENDMDL
MODEL 4
REMARK VINA RESULT: -5.991694823      2.069      3.221
REMARK  5 active torsions:
REMARK  status: ('A' for Active; 'I' for Inactive)
REMARK       I    between atoms: N1_2  and  C2_4 
REMARK       I    between atoms: C2_4  and  N4_11 
REMARK    1  A    between atoms: N2_5  and  C3_7 
REMARK    2  A    between atoms: C3_7  and  C4_8 
REMARK    3  A    between atoms: N4_11  and  C6_13 
REMARK    4  A    between atoms: C6_13  and  C7_14 
REMARK    5  A    between atoms: C12_19  and  O1_20 
ROOT
HETATM    1  C1  UNL     1      39.329  12.705  51.013  1.00  0.00     0.165 C 
HETATM    2  N1  UNL     1      38.455  12.065  51.966  1.00  0.00    -0.231 N 
ATOM      3  H1  UNL     1      37.911  12.632  52.618  1.00  0.00     0.177 HD
HETATM    4  C2  UNL     1      38.351  10.678  52.001  1.00  0.00     0.669 C 
HETATM    5  N2  UNL     1      37.294  10.062  51.701  1.00  0.00    -0.223 N 
ATOM      6  H2  UNL     1      37.339   9.045  51.763  1.00  0.00     0.178 HD
HETATM    7  N4  UNL     1      39.496   9.888  52.394  1.00  0.00    -0.222 N 
ATOM      8  H4  UNL     1      39.901   9.979  53.325  1.00  0.00     0.178 HD
ENDROOT
BRANCH   7   9
HETATM    9  C6  UNL     1      40.045   8.973  51.438  1.00  0.00     0.179 C 
BRANCH   9  10
HETATM   10  C7  UNL     1      41.482   9.136  51.253  1.00  0.00    -0.007 A 
HETATM   11  C8  UNL     1      42.219  10.199  51.676  1.00  0.00     0.011 A 
HETATM   12  C9  UNL     1      43.602  10.229  51.431  1.00  0.00     0.001 A 
HETATM   13  C10 UNL     1      44.228   9.198  50.768  1.00  0.00     0.003 A 
HETATM   14  C11 UNL     1      43.476   8.132  50.347  1.00  0.00     0.037 A 
HETATM   15  C12 UNL     1      42.122   8.082  50.576  1.00  0.00     0.076 A 
BRANCH  15  16
HETATM   16  O1  UNL     1      41.341   7.020  50.162  1.00  0.00    -0.355 OA
HETATM   17  C13 UNL     1      41.927   5.730  50.142  1.00  0.00     0.210 C 
ENDBRANCH  15  16
ENDBRANCH   9  10
ENDBRANCH   7   9
BRANCH   5  18
HETATM   18  C3  UNL     1      36.047  10.601  51.289  1.00  0.00     0.166 C 
BRANCH  18  19
HETATM   19  C4  UNL     1      35.062  10.567  52.395  1.00  0.00     0.008 C 
HETATM   20  C5  UNL     1      34.240  11.566  52.645  1.00  0.00     0.097 C 
HETATM   21  N3  UNL     1      33.295  11.553  53.696  1.00  0.00    -0.115 NA
ENDBRANCH  18  19
ENDBRANCH   5  18
TORSDOF 5
ENDMDL
MODEL 5
REMARK VINA RESULT: -5.976965796      4.397      6.894
REMARK  5 active torsions:
REMARK  status: ('A' for Active; 'I' for Inactive)
REMARK       I    between atoms: N1_2  and  C2_4 
REMARK       I    between atoms: C2_4  and  N4_11 
REMARK    1  A    between atoms: N2_5  and  C3_7 
REMARK    2  A    between atoms: C3_7  and  C4_8 
REMARK    3  A    between atoms: N4_11  and  C6_13 
REMARK    4  A    between atoms: C6_13  and  C7_14 
REMARK    5  A    between atoms: C12_19  and  O1_20 
ROOT
HETATM    1  C1  UNL     1      44.107  10.445  50.949  1.00  0.00     0.165 C 
HETATM    2  N1  UNL     1      42.734  10.192  51.315  1.00  0.00    -0.231 N 
ATOM      3  H1  UNL     1      42.287  10.760  52.035  1.00  0.00     0.177 HD
HETATM    4  C2  UNL     1      42.017   9.176  50.690  1.00  0.00     0.669 C 
HETATM    5  N2  UNL     1      41.026   9.395  49.945  1.00  0.00    -0.223 N 
ATOM      6  H2  UNL     1      40.582   8.569  49.542  1.00  0.00     0.178 HD
HETATM    7  N4  UNL     1      42.413   7.799  50.890  1.00  0.00    -0.222 N 
ATOM      8  H4  UNL     1      42.392   7.378  51.819  1.00  0.00     0.178 HD
ENDROOT
BRANCH   7   9
HETATM    9  C6  UNL     1      42.834   7.045  49.748  1.00  0.00     0.179 C 
BRANCH   9  10
HETATM   10  C7  UNL     1      44.275   7.092  49.533  1.00  0.00    -0.007 A 
HETATM   11  C8  UNL     1      45.213   7.279  50.501  1.00  0.00     0.011 A 
HETATM   12  C9  UNL     1      46.575   7.303  50.155  1.00  0.00     0.001 A 
HETATM   13  C10 UNL     1      46.979   7.140  48.849  1.00  0.00     0.003 A 
HETATM   14  C11 UNL     1      46.025   6.952  47.883  1.00  0.00     0.037 A 
HETATM   15  C12 UNL     1      44.688   6.925  48.198  1.00  0.00     0.076 A 
BRANCH  15  16
HETATM   16  O1  UNL     1      43.706   6.737  47.245  1.00  0.00    -0.355 OA
HETATM   17  C13 UNL     1      43.444   5.414  46.810  1.00  0.00     0.210 C 
ENDBRANCH  15  16
ENDBRANCH   9  10
ENDBRANCH   7   9
BRANCH   5  18
HETATM   18  C3  UNL     1      40.446  10.641  49.594  1.00  0.00     0.166 C 
BRANCH  18  19
HETATM   19  C4  UNL     1      39.307  10.966  50.483  1.00  0.00     0.008 C 
HETATM   20  C5  UNL     1      39.204  12.117  51.116  1.00  0.00     0.097 C 
HETATM   21  N3  UNL     1      38.125  12.445  51.969  1.00  0.00    -0.115 NA
ENDBRANCH  18  19
ENDBRANCH   5  18
TORSDOF 5
ENDMDL
