MODEL 1
REMARK VINA RESULT: -7.561309111      0.000      0.000
REMARK  7 active torsions:
REMARK  status: ('A' for Active; 'I' for Inactive)
REMARK    1  A    between atoms: O1_2  and  C2_3 
REMARK    2  A    between atoms: C2_3  and  C3_4 
REMARK    3  A    between atoms: C3_4  and  C4_5 
REMARK    4  A    between atoms: C3_4  and  C14_16 
REMARK    5  A    between atoms: C4_5  and  N1_6 
REMARK    6  A    between atoms: C14_16  and  N2_17 
REMARK    7  A    between atoms: C14_16  and  O2_21 
ROOT
HETATM    1  C3  UNL     1      40.638   8.745  51.128  1.00  0.00     0.094 C 
ENDROOT
BRANCH   1   2
HETATM    2  C2  UNL     1      41.966   9.096  50.617  1.00  0.00     0.177 C 
BRANCH   2   3
HETATM    3  O1  UNL     1      42.434   8.083  49.778  1.00  0.00    -0.395 OA
HETATM    4  C1  UNL     1      43.778   7.806  49.852  1.00  0.00     0.201 C 
ENDBRANCH   2   3
ENDBRANCH   1   2
BRANCH   1   5
HETATM    5  C4  UNL     1      39.687   9.728  51.634  1.00  0.00     0.283 C 
BRANCH   5   6
HETATM    6  N1  UNL     1      38.938  10.588  50.814  1.00  0.00     0.093 N 
HETATM    7  C5  UNL     1      39.037  11.982  51.261  1.00  0.00     0.277 C 
HETATM    8  C6  UNL     1      38.120  12.425  52.316  1.00  0.00     0.069 C 
HETATM    9  C7  UNL     1      36.858  11.687  52.454  1.00  0.00    -0.049 A 
HETATM   10  C8  UNL     1      35.961  12.091  53.445  1.00  0.00     0.007 A 
HETATM   11  C12 UNL     1      36.602  10.649  51.623  1.00  0.00    -0.024 A 
HETATM   12  C9  UNL     1      34.765  11.403  53.584  1.00  0.00     0.001 A 
HETATM   13  C10 UNL     1      34.479  10.342  52.754  1.00  0.00     0.001 A 
HETATM   14  C11 UNL     1      35.400   9.989  51.793  1.00  0.00     0.009 A 
HETATM   15  C13 UNL     1      37.556  10.246  50.586  1.00  0.00     0.311 C 
ENDBRANCH   5   6
ENDBRANCH   1   5
BRANCH   1  16
HETATM   16  C14 UNL     1      40.839   7.565  52.094  1.00  0.00     0.324 C 
BRANCH  16  17
HETATM   17  N2  UNL     1      42.021   7.846  52.924  1.00  0.00    -0.053 N 
ATOM     18  H23 UNL     1      42.892   7.566  52.474  1.00  0.00     0.277 HD
ATOM     19  H22 UNL     1      42.220   8.843  53.002  1.00  0.00     0.277 HD
ATOM     20  H21 UNL     1      41.888   7.400  53.832  1.00  0.00     0.277 HD
ENDBRANCH  16  17
BRANCH  16  21
HETATM   21  O2  UNL     1      40.942   6.355  51.446  1.00  0.00    -0.369 OA
ATOM     22  H2  UNL     1      41.605   5.789  51.823  1.00  0.00     0.212 HD
ENDBRANCH  16  21
ENDBRANCH   1  16
TORSDOF 7
ENDMDL
MODEL 2
REMARK VINA RESULT: -7.232035680      0.969      1.049
REMARK  7 active torsions:
REMARK  status: ('A' for Active; 'I' for Inactive)
REMARK    1  A    between atoms: O1_2  and  C2_3 
REMARK    2  A    between atoms: C2_3  and  C3_4 
REMARK    3  A    between atoms: C3_4  and  C4_5 
REMARK    4  A    between atoms: C3_4  and  C14_16 
REMARK    5  A    between atoms: C4_5  and  N1_6 
REMARK    6  A    between atoms: C14_16  and  N2_17 
REMARK    7  A    between atoms: C14_16  and  O2_21 
ROOT
HETATM    1  C3  UNL     1      40.638   8.843  50.960  1.00  0.00     0.094 C 
ENDROOT
BRANCH   1   2
HETATM    2  C2  UNL     1      41.929   9.388  50.529  1.00  0.00     0.177 C 
BRANCH   2   3
HETATM    3  O1  UNL     1      42.508  10.115  51.572  1.00  0.00    -0.395 OA
HETATM    4  C1  UNL     1      43.879  10.190  51.572  1.00  0.00     0.201 C 
ENDBRANCH   2   3
ENDBRANCH   1   2
BRANCH   1   5
HETATM    5  C4  UNL     1      39.565   9.663  51.510  1.00  0.00     0.283 C 
BRANCH   5   6
HETATM    6  N1  UNL     1      38.811  10.578  50.755  1.00  0.00     0.093 N 
HETATM    7  C5  UNL     1      38.976  11.950  51.249  1.00  0.00     0.277 C 
HETATM    8  C6  UNL     1      38.119  12.381  52.357  1.00  0.00     0.069 C 
HETATM    9  C7  UNL     1      36.840  11.678  52.522  1.00  0.00    -0.049 A 
HETATM   10  C8  UNL     1      35.998  12.072  53.564  1.00  0.00     0.007 A 
HETATM   11  C12 UNL     1      36.514  10.682  51.664  1.00  0.00    -0.024 A 
HETATM   12  C9  UNL     1      34.787  11.418  53.729  1.00  0.00     0.001 A 
HETATM   13  C10 UNL     1      34.431  10.400  52.872  1.00  0.00     0.001 A 
HETATM   14  C11 UNL     1      35.299  10.054  51.861  1.00  0.00     0.009 A 
HETATM   15  C13 UNL     1      37.410  10.288  50.573  1.00  0.00     0.311 C 
ENDBRANCH   5   6
ENDBRANCH   1   5
BRANCH   1  16
HETATM   16  C14 UNL     1      40.950   7.615  51.830  1.00  0.00     0.324 C 
BRANCH  16  17
HETATM   17  N2  UNL     1      40.878   8.022  53.243  1.00  0.00    -0.053 N 
ATOM     18  H23 UNL     1      40.039   8.561  53.454  1.00  0.00     0.277 HD
ATOM     19  H22 UNL     1      40.698   7.237  53.870  1.00  0.00     0.277 HD
ATOM     20  H21 UNL     1      41.735   8.522  53.476  1.00  0.00     0.277 HD
ENDBRANCH  16  17
BRANCH  16  21
HETATM   21  O2  UNL     1      42.160   7.036  51.524  1.00  0.00    -0.369 OA
ATOM     22  H2  UNL     1      42.158   6.093  51.641  1.00  0.00     0.212 HD
ENDBRANCH  16  21
ENDBRANCH   1  16
TORSDOF 7
ENDMDL
MODEL 3
REMARK VINA RESULT: -7.168401802      1.302      1.484
REMARK  7 active torsions:
REMARK  status: ('A' for Active; 'I' for Inactive)
REMARK    1  A    between atoms: O1_2  and  C2_3 
REMARK    2  A    between atoms: C2_3  and  C3_4 
REMARK    3  A    between atoms: C3_4  and  C4_5 
REMARK    4  A    between atoms: C3_4  and  C14_16 
REMARK    5  A    between atoms: C4_5  and  N1_6 
REMARK    6  A    between atoms: C14_16  and  N2_17 
REMARK    7  A    between atoms: C14_16  and  O2_21 
ROOT
HETATM    1  C3  UNL     1      40.807   8.971  51.607  1.00  0.00     0.094 C 
ENDROOT
BRANCH   1   2
HETATM    2  C2  UNL     1      41.094   8.597  50.219  1.00  0.00     0.177 C 
BRANCH   2   3
HETATM    3  O1  UNL     1      41.882   7.444  50.193  1.00  0.00    -0.395 OA
HETATM    4  C1  UNL     1      41.243   6.265  50.494  1.00  0.00     0.201 C 
ENDBRANCH   2   3
ENDBRANCH   1   2
BRANCH   1   5
HETATM    5  C4  UNL     1      39.612   9.704  52.010  1.00  0.00     0.283 C 
BRANCH   5   6
HETATM    6  N1  UNL     1      38.982  10.675  51.213  1.00  0.00     0.093 N 
HETATM    7  C5  UNL     1      39.028  12.000  51.841  1.00  0.00     0.277 C 
HETATM    8  C6  UNL     1      37.981  12.329  52.813  1.00  0.00     0.069 C 
HETATM    9  C7  UNL     1      36.709  11.606  52.691  1.00  0.00    -0.049 A 
HETATM   10  C8  UNL     1      35.690  11.903  53.599  1.00  0.00     0.007 A 
HETATM   11  C12 UNL     1      36.560  10.684  51.711  1.00  0.00    -0.024 A 
HETATM   12  C9  UNL     1      34.483  11.229  53.494  1.00  0.00     0.001 A 
HETATM   13  C10 UNL     1      34.305  10.285  52.506  1.00  0.00     0.001 A 
HETATM   14  C11 UNL     1      35.343  10.034  51.638  1.00  0.00     0.009 A 
HETATM   15  C13 UNL     1      37.641  10.392  50.764  1.00  0.00     0.311 C 
ENDBRANCH   5   6
ENDBRANCH   1   5
BRANCH   1  16
HETATM   16  C14 UNL     1      42.098   9.591  52.168  1.00  0.00     0.324 C 
BRANCH  16  17
HETATM   17  N2  UNL     1      42.823  10.230  51.058  1.00  0.00    -0.053 N 
ATOM     18  H23 UNL     1      42.472   9.945  50.144  1.00  0.00     0.277 HD
ATOM     19  H22 UNL     1      42.622  11.227  50.979  1.00  0.00     0.277 HD
ATOM     20  H21 UNL     1      43.818  10.038  51.174  1.00  0.00     0.277 HD
ENDBRANCH  16  17
BRANCH  16  21
HETATM   21  O2  UNL     1      42.882   8.679  52.837  1.00  0.00    -0.369 OA
ATOM     22  H2  UNL     1      43.632   9.078  53.262  1.00  0.00     0.212 HD
ENDBRANCH  16  21
ENDBRANCH   1  16
TORSDOF 7
ENDMDL
MODEL 4
REMARK VINA RESULT: -7.092677596      1.280      1.754
REMARK  7 active torsions:
REMARK  status: ('A' for Active; 'I' for Inactive)
REMARK    1  A    between atoms: O1_2  and  C2_3 
REMARK    2  A    between atoms: C2_3  and  C3_4 
REMARK    3  A    between atoms: C3_4  and  C4_5 
REMARK    4  A    between atoms: C3_4  and  C14_16 
REMARK    5  A    between atoms: C4_5  and  N1_6 
REMARK    6  A    between atoms: C14_16  and  N2_17 
REMARK    7  A    between atoms: C14_16  and  O2_21 
ROOT
HETATM    1  C3  UNL     1      40.751   8.833  51.970  1.00  0.00     0.094 C 
ENDROOT
BRANCH   1   2
HETATM    2  C2  UNL     1      41.194   7.668  52.741  1.00  0.00     0.177 C 
BRANCH   2   3
HETATM    3  O1  UNL     1      42.579   7.524  52.629  1.00  0.00    -0.395 OA
HETATM    4  C1  UNL     1      43.127   6.424  53.244  1.00  0.00     0.201 C 
ENDBRANCH   2   3
ENDBRANCH   1   2
BRANCH   1   5
HETATM    5  C4  UNL     1      39.500   9.537  52.228  1.00  0.00     0.283 C 
BRANCH   5   6
HETATM    6  N1  UNL     1      38.985  10.550  51.402  1.00  0.00     0.093 N 
HETATM    7  C5  UNL     1      39.059  11.864  52.050  1.00  0.00     0.277 C 
HETATM    8  C6  UNL     1      37.963  12.241  52.948  1.00  0.00     0.069 C 
HETATM    9  C7  UNL     1      36.665  11.593  52.724  1.00  0.00    -0.049 A 
HETATM   10  C8  UNL     1      35.600  11.937  53.559  1.00  0.00     0.007 A 
HETATM   11  C12 UNL     1      36.537  10.691  51.721  1.00  0.00    -0.024 A 
HETATM   12  C9  UNL     1      34.368  11.333  53.356  1.00  0.00     0.001 A 
HETATM   13  C10 UNL     1      34.211  10.412  52.344  1.00  0.00     0.001 A 
HETATM   14  C11 UNL     1      35.295  10.111  51.551  1.00  0.00     0.009 A 
HETATM   15  C13 UNL     1      37.667  10.348  50.852  1.00  0.00     0.311 C 
ENDBRANCH   5   6
ENDBRANCH   1   5
BRANCH   1  16
HETATM   16  C14 UNL     1      40.929   8.468  50.487  1.00  0.00     0.324 C 
BRANCH  16  17
HETATM   17  N2  UNL     1      40.803   7.008  50.353  1.00  0.00    -0.053 N 
ATOM     18  H23 UNL     1      41.275   6.503  51.102  1.00  0.00     0.277 HD
ATOM     19  H22 UNL     1      39.856   6.676  50.537  1.00  0.00     0.277 HD
ATOM     20  H21 UNL     1      41.139   6.742  49.427  1.00  0.00     0.277 HD
ENDBRANCH  16  17
BRANCH  16  21
HETATM   21  O2  UNL     1      42.113   8.932  49.960  1.00  0.00    -0.369 OA
ATOM     22  H2  UNL     1      42.306   9.826  50.216  1.00  0.00     0.212 HD
ENDBRANCH  16  21
ENDBRANCH   1  16
TORSDOF 7
ENDMDL
MODEL 5
REMARK VINA RESULT: -7.089772053      1.410      1.836
REMARK  7 active torsions:
REMARK  status: ('A' for Active; 'I' for Inactive)
REMARK    1  A    between atoms: O1_2  and  C2_3 
REMARK    2  A    between atoms: C2_3  and  C3_4 
REMARK    3  A    between atoms: C3_4  and  C4_5 
REMARK    4  A    between atoms: C3_4  and  C14_16 
REMARK    5  A    between atoms: C4_5  and  N1_6 
REMARK    6  A    between atoms: C14_16  and  N2_17 
REMARK    7  A    between atoms: C14_16  and  O2_21 
ROOT
HETATM    1  C3  UNL     1      40.804   9.230  51.748  1.00  0.00     0.094 C 
ENDROOT
BRANCH   1   2
HETATM    2  C2  UNL     1      41.209   7.820  51.733  1.00  0.00     0.177 C 
BRANCH   2   3
HETATM    3  O1  UNL     1      40.751   7.209  50.563  1.00  0.00    -0.395 OA
HETATM    4  C1  UNL     1      41.315   5.995  50.253  1.00  0.00     0.201 C 
ENDBRANCH   2   3
ENDBRANCH   1   2
BRANCH   1   5
HETATM    5  C4  UNL     1      39.428   9.666  51.950  1.00  0.00     0.283 C 
BRANCH   5   6
HETATM    6  N1  UNL     1      38.829  10.723  51.245  1.00  0.00     0.093 N 
HETATM    7  C5  UNL     1      38.930  11.989  51.980  1.00  0.00     0.277 C 
HETATM    8  C6  UNL     1      37.905  12.274  52.988  1.00  0.00     0.069 C 
HETATM    9  C7  UNL     1      36.605  11.612  52.821  1.00  0.00    -0.049 A 
HETATM   10  C8  UNL     1      35.605  11.870  53.762  1.00  0.00     0.007 A 
HETATM   11  C12 UNL     1      36.413  10.781  51.769  1.00  0.00    -0.024 A 
HETATM   12  C9  UNL     1      34.373  11.252  53.614  1.00  0.00     0.001 A 
HETATM   13  C10 UNL     1      34.151  10.402  52.554  1.00  0.00     0.001 A 
HETATM   14  C11 UNL     1      35.171  10.185  51.656  1.00  0.00     0.009 A 
HETATM   15  C13 UNL     1      37.474  10.529  50.789  1.00  0.00     0.311 C 
ENDBRANCH   5   6
ENDBRANCH   1   5
BRANCH   1  16
HETATM   16  C14 UNL     1      41.459   9.886  50.522  1.00  0.00     0.324 C 
BRANCH  16  17
HETATM   17  N2  UNL     1      40.547   9.735  49.376  1.00  0.00    -0.053 N 
ATOM     18  H23 UNL     1      40.571  10.537  48.747  1.00  0.00     0.277 HD
ATOM     19  H22 UNL     1      40.863   9.028  48.712  1.00  0.00     0.277 HD
ATOM     20  H21 UNL     1      39.611   9.546  49.736  1.00  0.00     0.277 HD
ENDBRANCH  16  17
BRANCH  16  21
HETATM   21  O2  UNL     1      42.711   9.383  50.250  1.00  0.00    -0.369 OA
ATOM     22  H2  UNL     1      42.685   8.586  49.734  1.00  0.00     0.212 HD
ENDBRANCH  16  21
ENDBRANCH   1  16
TORSDOF 7
ENDMDL
