MODEL 1
REMARK VINA RESULT: -7.656428924      0.000      0.000
REMARK  6 active torsions:
REMARK  status: ('A' for Active; 'I' for Inactive)
REMARK    1  A    between atoms: C2_4  and  N2_5 
REMARK    2  A    between atoms: C2_4  and  C11_19 
REMARK    3  A    between atoms: N2_5  and  C3_7 
REMARK    4  A    between atoms: C3_7  and  C4_8 
REMARK    5  A    between atoms: C4_8  and  N3_9 
REMARK    6  A    between atoms: C4_8  and  C5_13 
ROOT
HETATM    1  N2  UNL     1      40.238  10.026  51.832  1.00  0.00    -0.371 N 
ATOM      2  H2  UNL     1      40.772  10.663  52.424  1.00  0.00     0.161 HD
ENDROOT
BRANCH   1   3
HETATM    3  C2  UNL     1      40.893   9.282  50.831  1.00  0.00     0.141 C 
HETATM    4  N1  UNL     1      41.011   9.779  49.657  1.00  0.00    -0.378 N 
HETATM    5  C1  UNL     1      40.476  11.081  49.372  1.00  0.00     0.147 C 
ATOM      6  H1  UNL     1      41.486   9.250  48.925  1.00  0.00     0.160 HD
BRANCH   3   7
HETATM    7  C11 UNL     1      41.463   7.940  51.022  1.00  0.00     0.149 A 
HETATM    8  N4  UNL     1      42.327   7.504  51.953  1.00  0.00    -0.348 N 
HETATM    9  C12 UNL     1      42.594   6.202  51.759  1.00  0.00     0.107 A 
ATOM     10  H4  UNL     1      42.722   8.078  52.698  1.00  0.00     0.167 HD
HETATM   11  C13 UNL     1      41.870   5.791  50.661  1.00  0.00     0.107 A 
HETATM   12  N5  UNL     1      41.199   6.870  50.242  1.00  0.00    -0.348 N 
ATOM     13  H5  UNL     1      40.570   6.883  49.439  1.00  0.00     0.167 HD
ENDBRANCH   3   7
ENDBRANCH   1   3
BRANCH   1  14
HETATM   14  C3  UNL     1      38.818   9.890  52.025  1.00  0.00     0.159 C 
BRANCH  14  15
HETATM   15  C4  UNL     1      38.143  11.219  51.926  1.00  0.00     0.234 C 
BRANCH  15  16
HETATM   16  N3  UNL     1      38.831  12.206  52.720  1.00  0.00    -0.069 N 
ATOM     17  H33 UNL     1      39.783  11.915  52.941  1.00  0.00     0.275 HD
ATOM     18  H32 UNL     1      39.048  13.041  52.176  1.00  0.00     0.275 HD
ATOM     19  H31 UNL     1      38.300  12.431  53.561  1.00  0.00     0.275 HD
ENDBRANCH  15  16
BRANCH  15  20
HETATM   20  C5  UNL     1      36.710  11.161  52.312  1.00  0.00    -0.026 A 
HETATM   21  C6  UNL     1      35.838  10.274  51.702  1.00  0.00     0.009 A 
HETATM   22  C7  UNL     1      34.501  10.179  52.021  1.00  0.00     0.001 A 
HETATM   23  C8  UNL     1      33.995  11.020  53.014  1.00  0.00     0.000 A 
HETATM   24  C9  UNL     1      34.831  11.908  53.636  1.00  0.00     0.001 A 
HETATM   25  C10 UNL     1      36.160  11.974  53.291  1.00  0.00     0.009 A 
ENDBRANCH  15  20
ENDBRANCH  14  15
ENDBRANCH   1  14
TORSDOF 6
ENDMDL
MODEL 2
REMARK VINA RESULT: -7.636365731      0.032      1.117
REMARK  6 active torsions:
REMARK  status: ('A' for Active; 'I' for Inactive)
REMARK    1  A    between atoms: C2_4  and  N2_5 
REMARK    2  A    between atoms: C2_4  and  C11_19 
REMARK    3  A    between atoms: N2_5  and  C3_7 
REMARK    4  A    between atoms: C3_7  and  C4_8 
REMARK    5  A    between atoms: C4_8  and  N3_9 
REMARK    6  A    between atoms: C4_8  and  C5_13 
ROOT
HETATM    1  N2  UNL     1      40.235  10.030  51.836  1.00  0.00    -0.371 N 
ATOM      2  H2  UNL     1      40.759  10.674  52.429  1.00  0.00     0.161 HD
ENDROOT
BRANCH   1   3
HETATM    3  C2  UNL     1      40.904   9.292  50.839  1.00  0.00     0.141 C 
HETATM    4  N1  UNL     1      41.034   9.794  49.669  1.00  0.00    -0.378 N 
HETATM    5  C1  UNL     1      40.499  11.097  49.383  1.00  0.00     0.147 C 
ATOM      6  H1  UNL     1      41.518   9.270  48.939  1.00  0.00     0.160 HD
BRANCH   3   7
HETATM    7  C11 UNL     1      41.475   7.950  51.029  1.00  0.00     0.149 A 
HETATM    8  N4  UNL     1      42.323   7.510  51.972  1.00  0.00    -0.348 N 
HETATM    9  C12 UNL     1      42.598   6.210  51.774  1.00  0.00     0.107 A 
ATOM     10  H4  UNL     1      42.704   8.080  52.728  1.00  0.00     0.167 HD
HETATM   11  C13 UNL     1      41.895   5.805  50.660  1.00  0.00     0.107 A 
HETATM   12  N5  UNL     1      41.227   6.885  50.238  1.00  0.00    -0.348 N 
ATOM     13  H5  UNL     1      40.612   6.902  49.424  1.00  0.00     0.167 HD
ENDBRANCH   3   7
ENDBRANCH   1   3
BRANCH   1  14
HETATM   14  C3  UNL     1      38.816   9.877  52.022  1.00  0.00     0.159 C 
BRANCH  14  15
HETATM   15  C4  UNL     1      38.125  11.197  51.907  1.00  0.00     0.234 C 
BRANCH  15  16
HETATM   16  N3  UNL     1      38.791  12.197  52.703  1.00  0.00    -0.069 N 
ATOM     17  H33 UNL     1      39.621  11.823  53.162  1.00  0.00     0.275 HD
ATOM     18  H32 UNL     1      39.242  12.903  52.120  1.00  0.00     0.275 HD
ATOM     19  H31 UNL     1      38.147  12.618  53.373  1.00  0.00     0.275 HD
ENDBRANCH  15  16
BRANCH  15  20
HETATM   20  C5  UNL     1      36.689  11.123  52.277  1.00  0.00    -0.026 A 
HETATM   21  C6  UNL     1      36.160  11.937  53.267  1.00  0.00     0.009 A 
HETATM   22  C7  UNL     1      34.837  11.910  53.649  1.00  0.00     0.001 A 
HETATM   23  C8  UNL     1      33.979  11.016  53.005  1.00  0.00     0.000 A 
HETATM   24  C9  UNL     1      34.471  10.198  52.023  1.00  0.00     0.001 A 
HETATM   25  C10 UNL     1      35.797  10.254  51.669  1.00  0.00     0.009 A 
ENDBRANCH  15  20
ENDBRANCH  14  15
ENDBRANCH   1  14
TORSDOF 6
ENDMDL
MODEL 3
REMARK VINA RESULT: -7.144742093      1.832      2.660
REMARK  6 active torsions:
REMARK  status: ('A' for Active; 'I' for Inactive)
REMARK    1  A    between atoms: C2_4  and  N2_5 
REMARK    2  A    between atoms: C2_4  and  C11_19 
REMARK    3  A    between atoms: N2_5  and  C3_7 
REMARK    4  A    between atoms: C3_7  and  C4_8 
REMARK    5  A    between atoms: C4_8  and  N3_9 
REMARK    6  A    between atoms: C4_8  and  C5_13 
ROOT
HETATM    1  N2  UNL     1      40.400   8.988  50.653  1.00  0.00    -0.371 N 
ATOM      2  H2  UNL     1      40.035   8.876  49.706  1.00  0.00     0.161 HD
ENDROOT
BRANCH   1   3
HETATM    3  C2  UNL     1      41.632   8.400  51.003  1.00  0.00     0.141 C 
HETATM    4  N1  UNL     1      41.770   7.131  50.909  1.00  0.00    -0.378 N 
HETATM    5  C1  UNL     1      40.674   6.322  50.451  1.00  0.00     0.147 C 
ATOM      6  H1  UNL     1      42.658   6.694  51.158  1.00  0.00     0.160 HD
BRANCH   3   7
HETATM    7  C11 UNL     1      42.805   9.140  51.491  1.00  0.00     0.149 A 
HETATM    8  N4  UNL     1      43.441  10.188  50.943  1.00  0.00    -0.348 N 
HETATM    9  C12 UNL     1      44.476  10.555  51.718  1.00  0.00     0.107 A 
ATOM     10  H4  UNL     1      43.178  10.639  50.067  1.00  0.00     0.167 HD
HETATM   11  C13 UNL     1      44.499   9.707  52.805  1.00  0.00     0.107 A 
HETATM   12  N5  UNL     1      43.473   8.865  52.631  1.00  0.00    -0.348 N 
ATOM     13  H5  UNL     1      43.227   8.115  53.276  1.00  0.00     0.167 HD
ENDBRANCH   3   7
ENDBRANCH   1   3
BRANCH   1  14
HETATM   14  C3  UNL     1      39.656   9.746  51.624  1.00  0.00     0.159 C 
BRANCH  14  15
HETATM   15  C4  UNL     1      38.733  10.706  50.948  1.00  0.00     0.234 C 
BRANCH  15  16
HETATM   16  N3  UNL     1      39.384  11.971  50.717  1.00  0.00    -0.069 N 
ATOM     17  H33 UNL     1      38.722  12.747  50.745  1.00  0.00     0.275 HD
ATOM     18  H32 UNL     1      39.972  12.241  51.505  1.00  0.00     0.275 HD
ATOM     19  H31 UNL     1      39.910  11.956  49.842  1.00  0.00     0.275 HD
ENDBRANCH  15  16
BRANCH  15  20
HETATM   20  C5  UNL     1      37.471  10.913  51.703  1.00  0.00    -0.026 A 
HETATM   21  C6  UNL     1      36.342  10.154  51.435  1.00  0.00     0.009 A 
HETATM   22  C7  UNL     1      35.148  10.303  52.104  1.00  0.00     0.001 A 
HETATM   23  C8  UNL     1      35.066  11.270  53.108  1.00  0.00     0.000 A 
HETATM   24  C9  UNL     1      36.164  12.036  53.397  1.00  0.00     0.001 A 
HETATM   25  C10 UNL     1      37.339  11.858  52.707  1.00  0.00     0.009 A 
ENDBRANCH  15  20
ENDBRANCH  14  15
ENDBRANCH   1  14
TORSDOF 6
ENDMDL
MODEL 4
REMARK VINA RESULT: -7.144187046      1.836      2.884
REMARK  6 active torsions:
REMARK  status: ('A' for Active; 'I' for Inactive)
REMARK    1  A    between atoms: C2_4  and  N2_5 
REMARK    2  A    between atoms: C2_4  and  C11_19 
REMARK    3  A    between atoms: N2_5  and  C3_7 
REMARK    4  A    between atoms: C3_7  and  C4_8 
REMARK    5  A    between atoms: C4_8  and  N3_9 
REMARK    6  A    between atoms: C4_8  and  C5_13 
ROOT
HETATM    1  N2  UNL     1      40.406   8.976  50.660  1.00  0.00    -0.371 N 
ATOM      2  H2  UNL     1      40.022   8.838  49.725  1.00  0.00     0.161 HD
ENDROOT
BRANCH   1   3
HETATM    3  C2  UNL     1      41.643   8.396  51.003  1.00  0.00     0.141 C 
HETATM    4  N1  UNL     1      41.791   7.129  50.904  1.00  0.00    -0.378 N 
HETATM    5  C1  UNL     1      40.700   6.313  50.448  1.00  0.00     0.147 C 
ATOM      6  H1  UNL     1      42.683   6.698  51.148  1.00  0.00     0.160 HD
BRANCH   3   7
HETATM    7  C11 UNL     1      42.813   9.144  51.489  1.00  0.00     0.149 A 
HETATM    8  N4  UNL     1      43.445  10.191  50.936  1.00  0.00    -0.348 N 
HETATM    9  C12 UNL     1      44.477  10.567  51.711  1.00  0.00     0.107 A 
ATOM     10  H4  UNL     1      43.182  10.636  50.057  1.00  0.00     0.167 HD
HETATM   11  C13 UNL     1      44.502   9.725  52.802  1.00  0.00     0.107 A 
HETATM   12  N5  UNL     1      43.480   8.879  52.632  1.00  0.00    -0.348 N 
ATOM     13  H5  UNL     1      43.236   8.130  53.281  1.00  0.00     0.167 HD
ENDBRANCH   3   7
ENDBRANCH   1   3
BRANCH   1  14
HETATM   14  C3  UNL     1      39.681   9.763  51.624  1.00  0.00     0.159 C 
BRANCH  14  15
HETATM   15  C4  UNL     1      38.755  10.714  50.938  1.00  0.00     0.234 C 
BRANCH  15  16
HETATM   16  N3  UNL     1      39.395  11.987  50.718  1.00  0.00    -0.069 N 
ATOM     17  H33 UNL     1      40.223  11.896  50.131  1.00  0.00     0.275 HD
ATOM     18  H32 UNL     1      38.838  12.587  50.109  1.00  0.00     0.275 HD
ATOM     19  H31 UNL     1      39.610  12.445  51.604  1.00  0.00     0.275 HD
ENDBRANCH  15  16
BRANCH  15  20
HETATM   20  C5  UNL     1      37.481  10.903  51.677  1.00  0.00    -0.026 A 
HETATM   21  C6  UNL     1      37.380  11.825  52.708  1.00  0.00     0.009 A 
HETATM   22  C7  UNL     1      36.225  12.041  53.425  1.00  0.00     0.001 A 
HETATM   23  C8  UNL     1      35.092  11.294  53.099  1.00  0.00     0.000 A 
HETATM   24  C9  UNL     1      35.159  10.375  52.086  1.00  0.00     0.001 A 
HETATM   25  C10 UNL     1      36.330  10.187  51.392  1.00  0.00     0.009 A 
ENDBRANCH  15  20
ENDBRANCH  14  15
ENDBRANCH   1  14
TORSDOF 6
ENDMDL
MODEL 5
REMARK VINA RESULT: -7.088022497      1.863      2.549
REMARK  6 active torsions:
REMARK  status: ('A' for Active; 'I' for Inactive)
REMARK    1  A    between atoms: C2_4  and  N2_5 
REMARK    2  A    between atoms: C2_4  and  C11_19 
REMARK    3  A    between atoms: N2_5  and  C3_7 
REMARK    4  A    between atoms: C3_7  and  C4_8 
REMARK    5  A    between atoms: C4_8  and  N3_9 
REMARK    6  A    between atoms: C4_8  and  C5_13 
ROOT
HETATM    1  N2  UNL     1      38.122  10.560  52.215  1.00  0.00    -0.371 N 
ATOM      2  H2  UNL     1      38.004  10.741  53.212  1.00  0.00     0.161 HD
ENDROOT
BRANCH   1   3
HETATM    3  C2  UNL     1      39.416  10.426  51.674  1.00  0.00     0.141 C 
HETATM    4  N1  UNL     1      39.977  11.441  51.131  1.00  0.00    -0.378 N 
HETATM    5  C1  UNL     1      39.285  12.699  51.077  1.00  0.00     0.147 C 
ATOM      6  H1  UNL     1      40.915  11.356  50.738  1.00  0.00     0.160 HD
BRANCH   3   7
HETATM    7  C11 UNL     1      40.199   9.181  51.672  1.00  0.00     0.149 A 
HETATM    8  N4  UNL     1      40.738   8.510  52.702  1.00  0.00    -0.348 N 
HETATM    9  C12 UNL     1      41.382   7.419  52.255  1.00  0.00     0.107 A 
ATOM     10  H4  UNL     1      40.669   8.788  53.681  1.00  0.00     0.167 HD
HETATM   11  C13 UNL     1      41.247   7.393  50.884  1.00  0.00     0.107 A 
HETATM   12  N5  UNL     1      40.525   8.475  50.568  1.00  0.00    -0.348 N 
ATOM     13  H5  UNL     1      40.256   8.733  49.619  1.00  0.00     0.167 HD
ENDBRANCH   3   7
ENDBRANCH   1   3
BRANCH   1  14
HETATM   14  C3  UNL     1      36.965  10.442  51.366  1.00  0.00     0.159 C 
BRANCH  14  15
HETATM   15  C4  UNL     1      35.729  10.256  52.183  1.00  0.00     0.234 C 
BRANCH  15  16
HETATM   16  N3  UNL     1      34.663   9.702  51.385  1.00  0.00    -0.069 N 
ATOM     17  H33 UNL     1      34.888   8.764  51.055  1.00  0.00     0.275 HD
ATOM     18  H32 UNL     1      33.847   9.474  51.954  1.00  0.00     0.275 HD
ATOM     19  H31 UNL     1      34.423  10.326  50.614  1.00  0.00     0.275 HD
ENDBRANCH  15  16
BRANCH  15  20
HETATM   20  C5  UNL     1      35.280  11.513  52.833  1.00  0.00    -0.026 A 
HETATM   21  C6  UNL     1      34.834  11.522  54.146  1.00  0.00     0.009 A 
HETATM   22  C7  UNL     1      34.407  12.658  54.797  1.00  0.00     0.001 A 
HETATM   23  C8  UNL     1      34.424  13.868  54.100  1.00  0.00     0.000 A 
HETATM   24  C9  UNL     1      34.858  13.892  52.801  1.00  0.00     0.001 A 
HETATM   25  C10 UNL     1      35.277  12.738  52.185  1.00  0.00     0.009 A 
ENDBRANCH  15  20
ENDBRANCH  14  15
ENDBRANCH   1  14
TORSDOF 6
ENDMDL
