MODEL 1
REMARK VINA RESULT: -8.430080360      0.000      0.000
REMARK  8 active torsions:
REMARK  status: ('A' for Active; 'I' for Inactive)
REMARK    1  A    between atoms: O1_2  and  C2_3 
REMARK    2  A    between atoms: C5_6  and  N1_7 
REMARK    3  A    between atoms: N1_7  and  C6_8 
REMARK    4  A    between atoms: N1_7  and  N2_12 
REMARK    5  A    between atoms: C6_8  and  C7_9 
REMARK       I    between atoms: N2_12  and  C10_14 
REMARK    6  A    between atoms: C10_14  and  C11_16 
REMARK    7  A    between atoms: N3_18  and  O3_19 
REMARK    8  A    between atoms: N5_28  and  O4_29 
ROOT
HETATM    1  N2  UNL     1       7.750  19.748  49.849  1.00  0.00    -0.262 N 
ATOM      2  H2  UNL     1       7.720  19.553  48.849  1.00  0.00     0.190 HD
HETATM    3  C10 UNL     1       8.615  20.753  50.255  1.00  0.00     0.290 C 
HETATM    4  O2  UNL     1       8.746  21.090  51.464  1.00  0.00    -0.264 OA
ENDROOT
BRANCH   3   5
HETATM    5  C11 UNL     1       9.419  21.469  49.255  1.00  0.00     0.151 A 
HETATM    6  C12 UNL     1      10.521  20.945  48.635  1.00  0.00     0.161 A 
HETATM    7  N3  UNL     1      11.231  21.642  47.701  1.00  0.00    -0.230 N 
HETATM    8  C13 UNL     1      10.842  22.883  47.373  1.00  0.00     0.108 A 
HETATM    9  C14 UNL     1      11.561  23.600  46.413  1.00  0.00     0.037 A 
HETATM   10  C17 UNL     1       9.743  23.443  47.972  1.00  0.00     0.163 A 
HETATM   11  C15 UNL     1      11.146  24.866  46.090  1.00  0.00     0.019 A 
HETATM   12  C16 UNL     1      10.038  25.416  46.701  1.00  0.00     0.090 A 
HETATM   13  N4  UNL     1       9.378  24.690  47.616  1.00  0.00    -0.349 N 
ATOM     14  H4  UNL     1       8.560  25.103  48.065  1.00  0.00     0.167 HD
HETATM   15  N5  UNL     1       9.072  22.725  48.886  1.00  0.00    -0.199 N 
BRANCH   7  16
HETATM   16  O3  UNL     1      12.335  21.089  47.094  1.00  0.00    -0.283 OA
ATOM     17  H3  UNL     1      12.535  21.273  46.184  1.00  0.00     0.245 HD
ENDBRANCH   7  16
BRANCH  15  18
HETATM   18  O4  UNL     1       7.966  23.318  49.475  1.00  0.00    -0.281 OA
ATOM     19  H4  UNL     1       8.099  23.987  50.136  1.00  0.00     0.245 HD
ENDBRANCH  15  18
ENDBRANCH   3   5
BRANCH   1  20
HETATM   20  N1  UNL     1       6.907  18.965  50.667  1.00  0.00    -0.289 N 
BRANCH  20  21
HETATM   21  C5  UNL     1       5.629  19.456  50.954  1.00  0.00     0.052 A 
HETATM   22  C4  UNL     1       5.500  20.295  52.078  1.00  0.00     0.034 A 
HETATM   23  C3  UNL     1       4.302  20.822  52.483  1.00  0.00     0.040 A 
HETATM   24  C2  UNL     1       3.186  20.503  51.743  1.00  0.00     0.085 A 
HETATM   25  C19 UNL     1       3.253  19.685  50.629  1.00  0.00     0.046 A 
HETATM   26  C18 UNL     1       4.473  19.188  50.270  1.00  0.00     0.053 A 
HETATM   27 BR1  UNL     1       1.661  19.271  49.625  1.00  0.00    -0.048 Br
BRANCH  24  28
HETATM   28  O1  UNL     1       1.960  21.000  52.100  1.00  0.00    -0.355 OA
HETATM   29  C1  UNL     1       1.562  21.218  53.431  1.00  0.00     0.210 C 
ENDBRANCH  24  28
ENDBRANCH  20  21
BRANCH  20  30
HETATM   30  C6  UNL     1       7.407  17.708  51.081  1.00  0.00     0.153 C 
BRANCH  30  31
HETATM   31  C7  UNL     1       8.037  17.546  52.414  1.00  0.00    -0.003 C 
HETATM   32  C8  UNL     1       7.133  17.200  53.558  1.00  0.00     0.011 C 
HETATM   33  C9  UNL     1       9.049  16.384  52.283  1.00  0.00     0.011 C 
ENDBRANCH  30  31
ENDBRANCH  20  30
ENDBRANCH   1  20
TORSDOF 8
ENDMDL
MODEL 2
REMARK VINA RESULT: -8.389177839      1.271      1.929
REMARK  8 active torsions:
REMARK  status: ('A' for Active; 'I' for Inactive)
REMARK    1  A    between atoms: O1_2  and  C2_3 
REMARK    2  A    between atoms: C5_6  and  N1_7 
REMARK    3  A    between atoms: N1_7  and  C6_8 
REMARK    4  A    between atoms: N1_7  and  N2_12 
REMARK    5  A    between atoms: C6_8  and  C7_9 
REMARK       I    between atoms: N2_12  and  C10_14 
REMARK    6  A    between atoms: C10_14  and  C11_16 
REMARK    7  A    between atoms: N3_18  and  O3_19 
REMARK    8  A    between atoms: N5_28  and  O4_29 
ROOT
HETATM    1  N2  UNL     1       7.501  20.168  50.010  1.00  0.00    -0.262 N 
ATOM      2  H2  UNL     1       7.378  20.019  49.008  1.00  0.00     0.190 HD
HETATM    3  C10 UNL     1       8.531  21.017  50.386  1.00  0.00     0.290 C 
HETATM    4  O2  UNL     1       8.788  21.282  51.592  1.00  0.00    -0.264 OA
ENDROOT
BRANCH   3   5
HETATM    5  C11 UNL     1       9.368  21.645  49.354  1.00  0.00     0.151 A 
HETATM    6  C12 UNL     1      10.478  21.062  48.805  1.00  0.00     0.161 A 
HETATM    7  N3  UNL     1      11.220  21.677  47.838  1.00  0.00    -0.230 N 
HETATM    8  C13 UNL     1      10.855  22.894  47.407  1.00  0.00     0.108 A 
HETATM    9  C14 UNL     1      11.608  23.529  46.415  1.00  0.00     0.037 A 
HETATM   10  C17 UNL     1       9.750  23.511  47.934  1.00  0.00     0.163 A 
HETATM   11  C15 UNL     1      11.217  24.770  45.985  1.00  0.00     0.019 A 
HETATM   12  C16 UNL     1      10.103  25.378  46.526  1.00  0.00     0.090 A 
HETATM   13  N4  UNL     1       9.411  24.732  47.476  1.00  0.00    -0.349 N 
ATOM     14  H4  UNL     1       8.587  25.187  47.871  1.00  0.00     0.167 HD
HETATM   15  N5  UNL     1       9.048  22.873  48.883  1.00  0.00    -0.199 N 
BRANCH   7  16
HETATM   16  O3  UNL     1      12.330  21.067  47.303  1.00  0.00    -0.283 OA
ATOM     17  H3  UNL     1      13.062  21.581  46.981  1.00  0.00     0.245 HD
ENDBRANCH   7  16
BRANCH  15  18
HETATM   18  O4  UNL     1       7.936  23.522  49.397  1.00  0.00    -0.281 OA
ATOM     19  H4  UNL     1       7.624  24.311  48.970  1.00  0.00     0.245 HD
ENDBRANCH  15  18
ENDBRANCH   3   5
BRANCH   1  20
HETATM   20  N1  UNL     1       6.602  19.487  50.859  1.00  0.00    -0.289 N 
BRANCH  20  21
HETATM   21  C5  UNL     1       5.251  19.456  50.499  1.00  0.00     0.052 A 
HETATM   22  C4  UNL     1       4.916  18.772  49.315  1.00  0.00     0.034 A 
HETATM   23  C3  UNL     1       3.635  18.688  48.838  1.00  0.00     0.040 A 
HETATM   24  C2  UNL     1       2.645  19.308  49.566  1.00  0.00     0.085 A 
HETATM   25  C19 UNL     1       2.915  19.993  50.737  1.00  0.00     0.046 A 
HETATM   26  C18 UNL     1       4.210  20.045  51.168  1.00  0.00     0.053 A 
HETATM   27 BR1  UNL     1       1.492  20.843  51.721  1.00  0.00    -0.048 Br
BRANCH  24  28
HETATM   28  O1  UNL     1       1.344  19.259  49.138  1.00  0.00    -0.355 OA
HETATM   29  C1  UNL     1       0.962  18.880  47.839  1.00  0.00     0.210 C 
ENDBRANCH  24  28
ENDBRANCH  20  21
BRANCH  20  30
HETATM   30  C6  UNL     1       7.159  18.834  51.984  1.00  0.00     0.153 C 
BRANCH  30  31
HETATM   31  C7  UNL     1       7.922  17.571  51.826  1.00  0.00    -0.003 C 
HETATM   32  C8  UNL     1       9.401  17.633  52.062  1.00  0.00     0.011 C 
HETATM   33  C9  UNL     1       7.350  16.580  52.866  1.00  0.00     0.011 C 
ENDBRANCH  30  31
ENDBRANCH  20  30
ENDBRANCH   1  20
TORSDOF 8
ENDMDL
MODEL 3
REMARK VINA RESULT: -8.382189952      1.626      2.305
REMARK  8 active torsions:
REMARK  status: ('A' for Active; 'I' for Inactive)
REMARK    1  A    between atoms: O1_2  and  C2_3 
REMARK    2  A    between atoms: C5_6  and  N1_7 
REMARK    3  A    between atoms: N1_7  and  C6_8 
REMARK    4  A    between atoms: N1_7  and  N2_12 
REMARK    5  A    between atoms: C6_8  and  C7_9 
REMARK       I    between atoms: N2_12  and  C10_14 
REMARK    6  A    between atoms: C10_14  and  C11_16 
REMARK    7  A    between atoms: N3_18  and  O3_19 
REMARK    8  A    between atoms: N5_28  and  O4_29 
ROOT
HETATM    1  N2  UNL     1       7.371  20.714  50.527  1.00  0.00    -0.262 N 
ATOM      2  H2  UNL     1       6.933  21.198  49.744  1.00  0.00     0.190 HD
HETATM    3  C10 UNL     1       8.758  20.717  50.556  1.00  0.00     0.290 C 
HETATM    4  O2  UNL     1       9.421  20.153  51.469  1.00  0.00    -0.264 OA
ENDROOT
BRANCH   3   5
HETATM    5  C11 UNL     1       9.505  21.401  49.491  1.00  0.00     0.151 A 
HETATM    6  C12 UNL     1      10.589  20.868  48.846  1.00  0.00     0.161 A 
HETATM    7  N3  UNL     1      11.245  21.535  47.853  1.00  0.00    -0.230 N 
HETATM    8  C13 UNL     1      10.820  22.754  47.489  1.00  0.00     0.108 A 
HETATM    9  C14 UNL     1      11.485  23.441  46.470  1.00  0.00     0.037 A 
HETATM   10  C17 UNL     1       9.739  23.322  48.112  1.00  0.00     0.163 A 
HETATM   11  C15 UNL     1      11.033  24.684  46.111  1.00  0.00     0.019 A 
HETATM   12  C16 UNL     1       9.944  25.243  46.747  1.00  0.00     0.090 A 
HETATM   13  N4  UNL     1       9.337  24.547  47.720  1.00  0.00    -0.349 N 
ATOM     14  H4  UNL     1       8.531  24.966  48.186  1.00  0.00     0.167 HD
HETATM   15  N5  UNL     1       9.120  22.635  49.084  1.00  0.00    -0.199 N 
BRANCH   7  16
HETATM   16  O3  UNL     1      12.331  20.974  47.222  1.00  0.00    -0.283 OA
ATOM     17  H3  UNL     1      13.045  21.515  46.906  1.00  0.00     0.245 HD
ENDBRANCH   7  16
BRANCH  15  18
HETATM   18  O4  UNL     1       8.031  23.235  49.696  1.00  0.00    -0.281 OA
ATOM     19  H4  UNL     1       7.371  23.652  49.154  1.00  0.00     0.245 HD
ENDBRANCH  15  18
ENDBRANCH   3   5
BRANCH   1  20
HETATM   20  N1  UNL     1       6.500  20.114  51.462  1.00  0.00    -0.289 N 
BRANCH  20  21
HETATM   21  C5  UNL     1       5.213  19.771  51.035  1.00  0.00     0.052 A 
HETATM   22  C4  UNL     1       5.094  18.660  50.177  1.00  0.00     0.034 A 
HETATM   23  C3  UNL     1       3.896  18.234  49.669  1.00  0.00     0.040 A 
HETATM   24  C2  UNL     1       2.768  18.939  50.025  1.00  0.00     0.085 A 
HETATM   25  C19 UNL     1       2.825  20.037  50.866  1.00  0.00     0.046 A 
HETATM   26  C18 UNL     1       4.046  20.417  51.345  1.00  0.00     0.053 A 
HETATM   27 BR1  UNL     1       1.216  20.988  51.337  1.00  0.00    -0.048 Br
BRANCH  24  28
HETATM   28  O1  UNL     1       1.542  18.560  49.547  1.00  0.00    -0.355 OA
HETATM   29  C1  UNL     1       1.141  18.719  48.209  1.00  0.00     0.210 C 
ENDBRANCH  24  28
ENDBRANCH  20  21
BRANCH  20  30
HETATM   30  C6  UNL     1       7.027  19.853  52.749  1.00  0.00     0.153 C 
BRANCH  30  31
HETATM   31  C7  UNL     1       6.521  20.583  53.937  1.00  0.00    -0.003 C 
HETATM   32  C8  UNL     1       6.372  19.799  55.206  1.00  0.00     0.011 C 
HETATM   33  C9  UNL     1       7.542  21.707  54.229  1.00  0.00     0.011 C 
ENDBRANCH  30  31
ENDBRANCH  20  30
ENDBRANCH   1  20
TORSDOF 8
ENDMDL
MODEL 4
REMARK VINA RESULT: -8.036394539      1.848      2.809
REMARK  8 active torsions:
REMARK  status: ('A' for Active; 'I' for Inactive)
REMARK    1  A    between atoms: O1_2  and  C2_3 
REMARK    2  A    between atoms: C5_6  and  N1_7 
REMARK    3  A    between atoms: N1_7  and  C6_8 
REMARK    4  A    between atoms: N1_7  and  N2_12 
REMARK    5  A    between atoms: C6_8  and  C7_9 
REMARK       I    between atoms: N2_12  and  C10_14 
REMARK    6  A    between atoms: C10_14  and  C11_16 
REMARK    7  A    between atoms: N3_18  and  O3_19 
REMARK    8  A    between atoms: N5_28  and  O4_29 
ROOT
HETATM    1  N2  UNL     1       7.064  21.227  50.166  1.00  0.00    -0.262 N 
ATOM      2  H2  UNL     1       6.725  21.710  49.334  1.00  0.00     0.190 HD
HETATM    3  C10 UNL     1       8.441  21.145  50.313  1.00  0.00     0.290 C 
HETATM    4  O2  UNL     1       8.987  20.573  51.297  1.00  0.00    -0.264 OA
ENDROOT
BRANCH   3   5
HETATM    5  C11 UNL     1       9.317  21.742  49.296  1.00  0.00     0.151 A 
HETATM    6  C12 UNL     1      10.402  21.112  48.750  1.00  0.00     0.161 A 
HETATM    7  N3  UNL     1      11.182  21.700  47.797  1.00  0.00    -0.230 N 
HETATM    8  C13 UNL     1      10.882  22.938  47.376  1.00  0.00     0.108 A 
HETATM    9  C14 UNL     1      11.673  23.545  46.397  1.00  0.00     0.037 A 
HETATM   10  C17 UNL     1       9.803  23.602  47.900  1.00  0.00     0.163 A 
HETATM   11  C15 UNL     1      11.348  24.809  45.978  1.00  0.00     0.019 A 
HETATM   12  C16 UNL     1      10.260  25.465  46.515  1.00  0.00     0.090 A 
HETATM   13  N4  UNL     1       9.528  24.843  47.453  1.00  0.00    -0.349 N 
ATOM     14  H4  UNL     1       8.724  25.334  47.845  1.00  0.00     0.167 HD
HETATM   15  N5  UNL     1       9.061  22.990  48.835  1.00  0.00    -0.199 N 
BRANCH   7  16
HETATM   16  O3  UNL     1      12.267  21.042  47.265  1.00  0.00    -0.283 OA
ATOM     17  H3  UNL     1      13.153  21.320  47.465  1.00  0.00     0.245 HD
ENDBRANCH   7  16
BRANCH  15  18
HETATM   18  O4  UNL     1       7.978  23.686  49.347  1.00  0.00    -0.281 OA
ATOM     19  H4  UNL     1       7.707  24.493  48.924  1.00  0.00     0.245 HD
ENDBRANCH  15  18
ENDBRANCH   3   5
BRANCH   1  20
HETATM   20  N1  UNL     1       6.080  20.718  51.040  1.00  0.00    -0.289 N 
BRANCH  20  21
HETATM   21  C5  UNL     1       5.277  19.666  50.586  1.00  0.00     0.052 A 
HETATM   22  C4  UNL     1       5.858  18.384  50.545  1.00  0.00     0.034 A 
HETATM   23  C3  UNL     1       5.189  17.275  50.098  1.00  0.00     0.040 A 
HETATM   24  C2  UNL     1       3.890  17.446  49.675  1.00  0.00     0.085 A 
HETATM   25  C19 UNL     1       3.268  18.681  49.694  1.00  0.00     0.046 A 
HETATM   26  C18 UNL     1       3.981  19.753  50.150  1.00  0.00     0.053 A 
HETATM   27 BR1  UNL     1       1.446  18.866  49.093  1.00  0.00    -0.048 Br
BRANCH  24  28
HETATM   28  O1  UNL     1       3.171  16.373  49.216  1.00  0.00    -0.355 OA
HETATM   29  C1  UNL     1       3.495  15.654  48.052  1.00  0.00     0.210 C 
ENDBRANCH  24  28
ENDBRANCH  20  21
BRANCH  20  30
HETATM   30  C6  UNL     1       6.028  21.278  52.339  1.00  0.00     0.153 C 
BRANCH  30  31
HETATM   31  C7  UNL     1       5.616  20.456  53.503  1.00  0.00    -0.003 C 
HETATM   32  C8  UNL     1       6.650  19.547  54.097  1.00  0.00     0.011 C 
HETATM   33  C9  UNL     1       5.207  21.447  54.617  1.00  0.00     0.011 C 
ENDBRANCH  30  31
ENDBRANCH  20  30
ENDBRANCH   1  20
TORSDOF 8
ENDMDL
MODEL 5
REMARK VINA RESULT: -7.977998493      2.038      3.759
REMARK  8 active torsions:
REMARK  status: ('A' for Active; 'I' for Inactive)
REMARK    1  A    between atoms: O1_2  and  C2_3 
REMARK    2  A    between atoms: C5_6  and  N1_7 
REMARK    3  A    between atoms: N1_7  and  C6_8 
REMARK    4  A    between atoms: N1_7  and  N2_12 
REMARK    5  A    between atoms: C6_8  and  C7_9 
REMARK       I    between atoms: N2_12  and  C10_14 
REMARK    6  A    between atoms: C10_14  and  C11_16 
REMARK    7  A    between atoms: N3_18  and  O3_19 
REMARK    8  A    between atoms: N5_28  and  O4_29 
ROOT
HETATM    1  N2  UNL     1       7.213  20.811  50.314  1.00  0.00    -0.262 N 
ATOM      2  H2  UNL     1       6.893  20.933  49.353  1.00  0.00     0.190 HD
HETATM    3  C10 UNL     1       8.517  21.199  50.584  1.00  0.00     0.290 C 
HETATM    4  O2  UNL     1       9.032  21.099  51.731  1.00  0.00    -0.264 OA
ENDROOT
BRANCH   3   5
HETATM    5  C11 UNL     1       9.348  21.752  49.506  1.00  0.00     0.151 A 
HETATM    6  C12 UNL     1      10.437  21.118  48.971  1.00  0.00     0.161 A 
HETATM    7  N3  UNL     1      11.174  21.664  47.960  1.00  0.00    -0.230 N 
HETATM    8  C13 UNL     1      10.826  22.862  47.469  1.00  0.00     0.108 A 
HETATM    9  C14 UNL     1      11.573  23.426  46.431  1.00  0.00     0.037 A 
HETATM   10  C17 UNL     1       9.742  23.529  47.979  1.00  0.00     0.163 A 
HETATM   11  C15 UNL     1      11.200  24.649  45.940  1.00  0.00     0.019 A 
HETATM   12  C16 UNL     1      10.107  25.309  46.463  1.00  0.00     0.090 A 
HETATM   13  N4  UNL     1       9.418  24.730  47.459  1.00  0.00    -0.349 N 
ATOM     14  H4  UNL     1       8.611  25.223  47.841  1.00  0.00     0.167 HD
HETATM   15  N5  UNL     1       9.043  22.959  48.972  1.00  0.00    -0.199 N 
BRANCH   7  16
HETATM   16  O3  UNL     1      12.263  21.003  47.442  1.00  0.00    -0.283 OA
ATOM     17  H3  UNL     1      12.155  20.210  46.930  1.00  0.00     0.245 HD
ENDBRANCH   7  16
BRANCH  15  18
HETATM   18  O4  UNL     1       7.953  23.657  49.468  1.00  0.00    -0.281 OA
ATOM     19  H4  UNL     1       7.363  23.222  50.071  1.00  0.00     0.245 HD
ENDBRANCH  15  18
ENDBRANCH   3   5
BRANCH   1  20
HETATM   20  N1  UNL     1       6.278  20.268  51.222  1.00  0.00    -0.289 N 
BRANCH  20  21
HETATM   21  C5  UNL     1       6.502  18.972  51.700  1.00  0.00     0.052 A 
HETATM   22  C4  UNL     1       6.808  18.835  53.067  1.00  0.00     0.034 A 
HETATM   23  C3  UNL     1       7.072  17.627  53.655  1.00  0.00     0.040 A 
HETATM   24  C2  UNL     1       7.031  16.508  52.854  1.00  0.00     0.085 A 
HETATM   25  C19 UNL     1       6.734  16.583  51.505  1.00  0.00     0.046 A 
HETATM   26  C18 UNL     1       6.478  17.814  50.970  1.00  0.00     0.053 A 
HETATM   27 BR1  UNL     1       6.687  14.987  50.426  1.00  0.00    -0.048 Br
BRANCH  24  28
HETATM   28  O1  UNL     1       7.287  15.272  53.386  1.00  0.00    -0.355 OA
HETATM   29  C1  UNL     1       6.430  14.615  54.286  1.00  0.00     0.210 C 
ENDBRANCH  24  28
ENDBRANCH  20  21
BRANCH  20  30
HETATM   30  C6  UNL     1       5.215  21.111  51.624  1.00  0.00     0.153 C 
BRANCH  30  31
HETATM   31  C7  UNL     1       3.965  21.185  50.828  1.00  0.00    -0.003 C 
HETATM   32  C8  UNL     1       3.897  20.352  49.585  1.00  0.00     0.011 C 
HETATM   33  C9  UNL     1       2.827  20.693  51.752  1.00  0.00     0.011 C 
ENDBRANCH  30  31
ENDBRANCH  20  30
ENDBRANCH   1  20
TORSDOF 8
ENDMDL
