MODEL 1
REMARK VINA RESULT: -8.922854732      0.000      0.000
REMARK  9 active torsions:
REMARK  status: ('A' for Active; 'I' for Inactive)
REMARK    1  A    between atoms: N1_8  and  O1_9 
REMARK    2  A    between atoms: C10_13  and  N2_14 
REMARK       I    between atoms: N2_14  and  C11_16 
REMARK    3  A    between atoms: C11_16  and  C12_18 
REMARK    4  A    between atoms: C12_18  and  O3_19 
REMARK    5  A    between atoms: O3_19  and  C13_20 
REMARK    6  A    between atoms: C13_20  and  C14_22 
REMARK    7  A    between atoms: C14_22  and  O5_23 
REMARK    8  A    between atoms: O5_23  and  C15_24 
REMARK    9  A    between atoms: N3_32  and  O6_33 
ROOT
HETATM    1  N2  UNL     1       7.498  19.436  52.719  1.00  0.00    -0.308 N 
ATOM      2  H2  UNL     1       8.028  19.846  53.488  1.00  0.00     0.170 HD
HETATM    3  C11 UNL     1       6.373  18.775  53.167  1.00  0.00     0.247 C 
HETATM    4  O2  UNL     1       5.630  18.064  52.442  1.00  0.00    -0.271 OA
ENDROOT
BRANCH   1   5
HETATM    5  C10 UNL     1       8.098  19.689  51.472  1.00  0.00     0.161 A 
HETATM    6  C8  UNL     1       8.642  18.808  50.591  1.00  0.00     0.083 A 
HETATM    7  N1  UNL     1       9.328  19.272  49.491  1.00  0.00    -0.223 N 
HETATM    8  C9  UNL     1       8.427  17.337  50.694  1.00  0.00     0.075 C 
HETATM    9  C6  UNL     1       9.486  20.574  49.242  1.00  0.00     0.092 A 
HETATM   10  C5  UNL     1       8.941  21.486  50.114  1.00  0.00     0.094 A 
HETATM   11  C7  UNL     1      10.171  21.054  48.146  1.00  0.00     0.041 A 
HETATM   12  C4  UNL     1       9.096  22.854  49.865  1.00  0.00     0.035 A 
HETATM   13  N3  UNL     1       8.280  21.041  51.179  1.00  0.00    -0.204 N 
HETATM   14  C3  UNL     1       9.786  23.302  48.760  1.00  0.00     0.009 A 
HETATM   15  C2  UNL     1      10.336  22.394  47.881  1.00  0.00    -0.060 A 
HETATM   16  C1  UNL     1      11.082  22.894  46.686  1.00  0.00     0.048 C 
BRANCH   7  17
HETATM   17  O1  UNL     1       9.858  18.347  48.641  1.00  0.00    -0.282 OA
ATOM     18  H1  UNL     1      10.268  17.564  48.989  1.00  0.00     0.245 HD
ENDBRANCH   7  17
BRANCH  13  19
HETATM   19  O6  UNL     1       7.760  21.995  52.024  1.00  0.00    -0.281 OA
ATOM     20  H6  UNL     1       7.116  21.697  52.656  1.00  0.00     0.245 HD
ENDBRANCH  13  19
ENDBRANCH   1   5
BRANCH   3  21
HETATM   21  C12 UNL     1       5.964  18.883  54.607  1.00  0.00     0.281 C 
BRANCH  21  22
HETATM   22  O3  UNL     1       5.675  20.162  55.052  1.00  0.00    -0.310 OA
BRANCH  22  23
HETATM   23  C13 UNL     1       5.021  21.114  54.280  1.00  0.00     0.283 C 
HETATM   24  O4  UNL     1       5.557  22.238  54.110  1.00  0.00    -0.263 OA
BRANCH  23  25
HETATM   25  C14 UNL     1       3.704  20.875  53.635  1.00  0.00     0.286 C 
BRANCH  25  26
HETATM   26  O5  UNL     1       3.886  20.917  52.254  1.00  0.00    -0.342 OA
BRANCH  26  27
HETATM   27  C15 UNL     1       3.104  20.318  51.306  1.00  0.00     0.070 A 
HETATM   28  C16 UNL     1       1.758  20.111  51.471  1.00  0.00     0.038 A 
HETATM   29  C17 UNL     1       1.037  19.499  50.468  1.00  0.00     0.027 A 
HETATM   30  C18 UNL     1       1.640  19.092  49.297  1.00  0.00     0.040 A 
HETATM   31 CL1  UNL     1       0.732  18.318  48.024  1.00  0.00    -0.084 Cl
HETATM   32  C19 UNL     1       3.001  19.291  49.108  1.00  0.00    -0.038 A 
HETATM   33  C20 UNL     1       3.689  18.859  47.845  1.00  0.00     0.050 C 
HETATM   34  C21 UNL     1       3.693  19.905  50.131  1.00  0.00     0.045 A 
ENDBRANCH  26  27
ENDBRANCH  25  26
ENDBRANCH  23  25
ENDBRANCH  22  23
ENDBRANCH  21  22
ENDBRANCH   3  21
TORSDOF 9
ENDMDL
MODEL 2
REMARK VINA RESULT: -8.898445722      3.148      7.072
REMARK  9 active torsions:
REMARK  status: ('A' for Active; 'I' for Inactive)
REMARK    1  A    between atoms: N1_8  and  O1_9 
REMARK    2  A    between atoms: C10_13  and  N2_14 
REMARK       I    between atoms: N2_14  and  C11_16 
REMARK    3  A    between atoms: C11_16  and  C12_18 
REMARK    4  A    between atoms: C12_18  and  O3_19 
REMARK    5  A    between atoms: O3_19  and  C13_20 
REMARK    6  A    between atoms: C13_20  and  C14_22 
REMARK    7  A    between atoms: C14_22  and  O5_23 
REMARK    8  A    between atoms: O5_23  and  C15_24 
REMARK    9  A    between atoms: N3_32  and  O6_33 
ROOT
HETATM    1  N2  UNL     1       4.592  19.794  51.402  1.00  0.00    -0.308 N 
ATOM      2  H2  UNL     1       4.656  18.971  52.000  1.00  0.00     0.170 HD
HETATM    3  C11 UNL     1       5.404  20.817  51.847  1.00  0.00     0.247 C 
HETATM    4  O2  UNL     1       5.402  21.984  51.375  1.00  0.00    -0.271 OA
ENDROOT
BRANCH   1   5
HETATM    5  C10 UNL     1       3.698  19.599  50.333  1.00  0.00     0.161 A 
HETATM    6  C8  UNL     1       2.339  19.597  50.345  1.00  0.00     0.083 A 
HETATM    7  N1  UNL     1       1.644  19.225  49.216  1.00  0.00    -0.223 N 
HETATM    8  C9  UNL     1       1.548  20.100  51.502  1.00  0.00     0.075 C 
HETATM    9  C6  UNL     1       2.253  18.861  48.085  1.00  0.00     0.092 A 
HETATM   10  C5  UNL     1       3.628  18.860  48.045  1.00  0.00     0.094 A 
HETATM   11  C7  UNL     1       1.570  18.486  46.948  1.00  0.00     0.041 A 
HETATM   12  C4  UNL     1       4.281  18.484  46.867  1.00  0.00     0.035 A 
HETATM   13  N3  UNL     1       4.303  19.216  49.134  1.00  0.00    -0.204 N 
HETATM   14  C3  UNL     1       3.570  18.114  45.746  1.00  0.00     0.009 A 
HETATM   15  C2  UNL     1       2.192  18.113  45.778  1.00  0.00    -0.060 A 
HETATM   16  C1  UNL     1       1.433  17.709  44.555  1.00  0.00     0.048 C 
BRANCH   7  17
HETATM   17  O1  UNL     1       0.282  19.236  49.282  1.00  0.00    -0.282 OA
ATOM     18  H1  UNL     1      -0.166  19.948  49.724  1.00  0.00     0.245 HD
ENDBRANCH   7  17
BRANCH  13  19
HETATM   19  O6  UNL     1       5.676  19.191  49.044  1.00  0.00    -0.281 OA
ATOM     20  H6  UNL     1       6.133  18.651  49.677  1.00  0.00     0.245 HD
ENDBRANCH  13  19
ENDBRANCH   1   5
BRANCH   3  21
HETATM   21  C12 UNL     1       6.376  20.570  52.964  1.00  0.00     0.281 C 
BRANCH  21  22
HETATM   22  O3  UNL     1       7.614  20.080  52.582  1.00  0.00    -0.310 OA
BRANCH  22  23
HETATM   23  C13 UNL     1       7.781  19.024  51.696  1.00  0.00     0.283 C 
HETATM   24  O4  UNL     1       7.015  18.031  51.775  1.00  0.00    -0.263 OA
BRANCH  23  25
HETATM   25  C14 UNL     1       8.830  19.001  50.644  1.00  0.00     0.286 C 
BRANCH  25  26
HETATM   26  O5  UNL     1       9.565  20.180  50.740  1.00  0.00    -0.342 OA
BRANCH  26  27
HETATM   27  C15 UNL     1       9.517  21.248  49.888  1.00  0.00     0.070 A 
HETATM   28  C16 UNL     1       8.793  22.383  50.153  1.00  0.00     0.038 A 
HETATM   29  C17 UNL     1       8.795  23.418  49.243  1.00  0.00     0.027 A 
HETATM   30  C18 UNL     1       9.512  23.339  48.068  1.00  0.00     0.040 A 
HETATM   31 CL1  UNL     1       9.518  24.647  46.913  1.00  0.00    -0.084 Cl
HETATM   32  C19 UNL     1      10.252  22.201  47.778  1.00  0.00    -0.038 A 
HETATM   33  C20 UNL     1      11.043  22.083  46.507  1.00  0.00     0.050 C 
HETATM   34  C21 UNL     1      10.228  21.184  48.709  1.00  0.00     0.045 A 
ENDBRANCH  26  27
ENDBRANCH  25  26
ENDBRANCH  23  25
ENDBRANCH  22  23
ENDBRANCH  21  22
ENDBRANCH   3  21
TORSDOF 9
ENDMDL
MODEL 3
REMARK VINA RESULT: -8.833104355      3.303      6.920
REMARK  9 active torsions:
REMARK  status: ('A' for Active; 'I' for Inactive)
REMARK    1  A    between atoms: N1_8  and  O1_9 
REMARK    2  A    between atoms: C10_13  and  N2_14 
REMARK       I    between atoms: N2_14  and  C11_16 
REMARK    3  A    between atoms: C11_16  and  C12_18 
REMARK    4  A    between atoms: C12_18  and  O3_19 
REMARK    5  A    between atoms: O3_19  and  C13_20 
REMARK    6  A    between atoms: C13_20  and  C14_22 
REMARK    7  A    between atoms: C14_22  and  O5_23 
REMARK    8  A    between atoms: O5_23  and  C15_24 
REMARK    9  A    between atoms: N3_32  and  O6_33 
ROOT
HETATM    1  N2  UNL     1       3.906  19.414  51.114  1.00  0.00    -0.308 N 
ATOM      2  H2  UNL     1       3.761  18.621  51.738  1.00  0.00     0.170 HD
HETATM    3  C11 UNL     1       4.333  20.534  51.796  1.00  0.00     0.247 C 
HETATM    4  O2  UNL     1       4.445  21.678  51.285  1.00  0.00    -0.271 OA
ENDROOT
BRANCH   1   5
HETATM    5  C10 UNL     1       3.620  19.087  49.775  1.00  0.00     0.161 A 
HETATM    6  C8  UNL     1       4.477  18.936  48.731  1.00  0.00     0.083 A 
HETATM    7  N1  UNL     1       3.982  18.772  47.456  1.00  0.00    -0.223 N 
HETATM    8  C9  UNL     1       5.950  18.818  48.914  1.00  0.00     0.075 C 
HETATM    9  C6  UNL     1       2.673  18.751  47.191  1.00  0.00     0.092 A 
HETATM   10  C5  UNL     1       1.786  18.896  48.231  1.00  0.00     0.094 A 
HETATM   11  C7  UNL     1       2.164  18.589  45.921  1.00  0.00     0.041 A 
HETATM   12  C4  UNL     1       0.411  18.874  47.970  1.00  0.00     0.035 A 
HETATM   13  N3  UNL     1       2.260  19.057  49.463  1.00  0.00    -0.204 N 
HETATM   14  C3  UNL     1      -0.067  18.709  46.689  1.00  0.00     0.009 A 
HETATM   15  C2  UNL     1       0.817  18.563  45.641  1.00  0.00    -0.060 A 
HETATM   16  C1  UNL     1       0.284  18.385  44.256  1.00  0.00     0.048 C 
BRANCH   7  17
HETATM   17  O1  UNL     1       4.883  18.630  46.443  1.00  0.00    -0.282 OA
ATOM     18  H1  UNL     1       5.302  19.396  46.070  1.00  0.00     0.245 HD
ENDBRANCH   7  17
BRANCH  13  19
HETATM   19  O6  UNL     1       1.329  19.205  50.467  1.00  0.00    -0.281 OA
ATOM     20  H6  UNL     1       1.541  18.808  51.304  1.00  0.00     0.245 HD
ENDBRANCH  13  19
ENDBRANCH   1   5
BRANCH   3  21
HETATM   21  C12 UNL     1       4.704  20.431  53.247  1.00  0.00     0.281 C 
BRANCH  21  22
HETATM   22  O3  UNL     1       5.354  21.533  53.777  1.00  0.00    -0.310 OA
BRANCH  22  23
HETATM   23  C13 UNL     1       6.729  21.719  53.713  1.00  0.00     0.283 C 
HETATM   24  O4  UNL     1       7.285  22.470  54.553  1.00  0.00    -0.263 OA
BRANCH  23  25
HETATM   25  C14 UNL     1       7.592  21.070  52.692  1.00  0.00     0.286 C 
BRANCH  25  26
HETATM   26  O5  UNL     1       7.687  21.927  51.598  1.00  0.00    -0.342 OA
BRANCH  26  27
HETATM   27  C15 UNL     1       8.504  21.783  50.512  1.00  0.00     0.070 A 
HETATM   28  C16 UNL     1       9.156  20.612  50.219  1.00  0.00     0.038 A 
HETATM   29  C17 UNL     1       9.964  20.545  49.104  1.00  0.00     0.027 A 
HETATM   30  C18 UNL     1      10.132  21.632  48.273  1.00  0.00     0.040 A 
HETATM   31 CL1  UNL     1      11.152  21.553  46.860  1.00  0.00    -0.084 Cl
HETATM   32  C19 UNL     1       9.482  22.827  48.549  1.00  0.00    -0.038 A 
HETATM   33  C20 UNL     1       9.643  24.030  47.665  1.00  0.00     0.050 C 
HETATM   34  C21 UNL     1       8.682  22.861  49.672  1.00  0.00     0.045 A 
ENDBRANCH  26  27
ENDBRANCH  25  26
ENDBRANCH  23  25
ENDBRANCH  22  23
ENDBRANCH  21  22
ENDBRANCH   3  21
TORSDOF 9
ENDMDL
MODEL 4
REMARK VINA RESULT: -8.816470158      3.197      7.076
REMARK  9 active torsions:
REMARK  status: ('A' for Active; 'I' for Inactive)
REMARK    1  A    between atoms: N1_8  and  O1_9 
REMARK    2  A    between atoms: C10_13  and  N2_14 
REMARK       I    between atoms: N2_14  and  C11_16 
REMARK    3  A    between atoms: C11_16  and  C12_18 
REMARK    4  A    between atoms: C12_18  and  O3_19 
REMARK    5  A    between atoms: O3_19  and  C13_20 
REMARK    6  A    between atoms: C13_20  and  C14_22 
REMARK    7  A    between atoms: C14_22  and  O5_23 
REMARK    8  A    between atoms: O5_23  and  C15_24 
REMARK    9  A    between atoms: N3_32  and  O6_33 
ROOT
HETATM    1  N2  UNL     1       4.820  18.244  51.229  1.00  0.00    -0.308 N 
ATOM      2  H2  UNL     1       4.947  17.238  51.337  1.00  0.00     0.170 HD
HETATM    3  C11 UNL     1       5.585  18.959  52.127  1.00  0.00     0.247 C 
HETATM    4  O2  UNL     1       5.504  20.202  52.299  1.00  0.00    -0.271 OA
ENDROOT
BRANCH   1   5
HETATM    5  C10 UNL     1       3.908  18.551  50.201  1.00  0.00     0.161 A 
HETATM    6  C8  UNL     1       2.590  18.868  50.296  1.00  0.00     0.083 A 
HETATM    7  N1  UNL     1       1.828  18.978  49.154  1.00  0.00    -0.223 N 
HETATM    8  C9  UNL     1       1.942  19.225  51.589  1.00  0.00     0.075 C 
HETATM    9  C6  UNL     1       2.334  18.788  47.932  1.00  0.00     0.092 A 
HETATM   10  C5  UNL     1       3.666  18.471  47.810  1.00  0.00     0.094 A 
HETATM   11  C7  UNL     1       1.583  18.894  46.781  1.00  0.00     0.041 A 
HETATM   12  C4  UNL     1       4.210  18.271  46.537  1.00  0.00     0.035 A 
HETATM   13  N3  UNL     1       4.404  18.362  48.910  1.00  0.00    -0.204 N 
HETATM   14  C3  UNL     1       3.434  18.385  45.405  1.00  0.00     0.009 A 
HETATM   15  C2  UNL     1       2.098  18.701  45.520  1.00  0.00    -0.060 A 
HETATM   16  C1  UNL     1       1.267  18.822  44.283  1.00  0.00     0.048 C 
BRANCH   7  17
HETATM   17  O1  UNL     1       0.510  19.294  49.303  1.00  0.00    -0.282 OA
ATOM     18  H1  UNL     1       0.048  19.040  50.093  1.00  0.00     0.245 HD
ENDBRANCH   7  17
BRANCH  13  19
HETATM   19  O6  UNL     1       5.730  18.037  48.733  1.00  0.00    -0.281 OA
ATOM     20  H6  UNL     1       5.911  17.232  48.262  1.00  0.00     0.245 HD
ENDBRANCH  13  19
ENDBRANCH   1   5
BRANCH   3  21
HETATM   21  C12 UNL     1       6.601  18.250  52.976  1.00  0.00     0.281 C 
BRANCH  21  22
HETATM   22  O3  UNL     1       7.911  18.331  52.533  1.00  0.00    -0.310 OA
BRANCH  22  23
HETATM   23  C13 UNL     1       8.306  18.009  51.242  1.00  0.00     0.283 C 
HETATM   24  O4  UNL     1       7.773  17.027  50.665  1.00  0.00    -0.263 OA
BRANCH  23  25
HETATM   25  C14 UNL     1       9.337  18.770  50.491  1.00  0.00     0.286 C 
BRANCH  25  26
HETATM   26  O5  UNL     1       9.201  20.118  50.814  1.00  0.00    -0.342 OA
BRANCH  26  27
HETATM   27  C15 UNL     1       9.287  21.179  49.958  1.00  0.00     0.070 A 
HETATM   28  C16 UNL     1       8.629  22.365  50.171  1.00  0.00     0.038 A 
HETATM   29  C17 UNL     1       8.765  23.390  49.260  1.00  0.00     0.027 A 
HETATM   30  C18 UNL     1       9.551  23.252  48.135  1.00  0.00     0.040 A 
HETATM   31 CL1  UNL     1       9.727  24.547  46.980  1.00  0.00    -0.084 Cl
HETATM   32  C19 UNL     1      10.226  22.062  47.899  1.00  0.00    -0.038 A 
HETATM   33  C20 UNL     1      11.090  21.878  46.685  1.00  0.00     0.050 C 
HETATM   34  C21 UNL     1      10.068  21.056  48.829  1.00  0.00     0.045 A 
ENDBRANCH  26  27
ENDBRANCH  25  26
ENDBRANCH  23  25
ENDBRANCH  22  23
ENDBRANCH  21  22
ENDBRANCH   3  21
TORSDOF 9
ENDMDL
MODEL 5
REMARK VINA RESULT: -8.715843476      0.776      1.354
REMARK  9 active torsions:
REMARK  status: ('A' for Active; 'I' for Inactive)
REMARK    1  A    between atoms: N1_8  and  O1_9 
REMARK    2  A    between atoms: C10_13  and  N2_14 
REMARK       I    between atoms: N2_14  and  C11_16 
REMARK    3  A    between atoms: C11_16  and  C12_18 
REMARK    4  A    between atoms: C12_18  and  O3_19 
REMARK    5  A    between atoms: O3_19  and  C13_20 
REMARK    6  A    between atoms: C13_20  and  C14_22 
REMARK    7  A    between atoms: C14_22  and  O5_23 
REMARK    8  A    between atoms: O5_23  and  C15_24 
REMARK    9  A    between atoms: N3_32  and  O6_33 
ROOT
HETATM    1  N2  UNL     1       7.455  19.484  52.704  1.00  0.00    -0.308 N 
ATOM      2  H2  UNL     1       7.892  20.019  53.454  1.00  0.00     0.170 HD
HETATM    3  C11 UNL     1       6.414  18.707  53.167  1.00  0.00     0.247 C 
HETATM    4  O2  UNL     1       5.806  17.848  52.477  1.00  0.00    -0.271 OA
ENDROOT
BRANCH   1   5
HETATM    5  C10 UNL     1       8.067  19.726  51.460  1.00  0.00     0.161 A 
HETATM    6  C8  UNL     1       8.626  18.838  50.596  1.00  0.00     0.083 A 
HETATM    7  N1  UNL     1       9.321  19.294  49.498  1.00  0.00    -0.223 N 
HETATM    8  C9  UNL     1       8.421  17.367  50.714  1.00  0.00     0.075 C 
HETATM    9  C6  UNL     1       9.472  20.595  49.234  1.00  0.00     0.092 A 
HETATM   10  C5  UNL     1       8.912  21.513  50.090  1.00  0.00     0.094 A 
HETATM   11  C7  UNL     1      10.165  21.066  48.139  1.00  0.00     0.041 A 
HETATM   12  C4  UNL     1       9.060  22.879  49.825  1.00  0.00     0.035 A 
HETATM   13  N3  UNL     1       8.242  21.076  51.152  1.00  0.00    -0.204 N 
HETATM   14  C3  UNL     1       9.758  23.318  48.723  1.00  0.00     0.009 A 
HETATM   15  C2  UNL     1      10.323  22.404  47.860  1.00  0.00    -0.060 A 
HETATM   16  C1  UNL     1      11.078  22.895  46.667  1.00  0.00     0.048 C 
BRANCH   7  17
HETATM   17  O1  UNL     1       9.866  18.363  48.664  1.00  0.00    -0.282 OA
ATOM     18  H1  UNL     1       9.576  18.308  47.761  1.00  0.00     0.245 HD
ENDBRANCH   7  17
BRANCH  13  19
HETATM   19  O6  UNL     1       7.707  22.036  51.981  1.00  0.00    -0.281 OA
ATOM     20  H6  UNL     1       8.318  22.648  52.372  1.00  0.00     0.245 HD
ENDBRANCH  13  19
ENDBRANCH   1   5
BRANCH   3  21
HETATM   21  C12 UNL     1       5.935  18.862  54.581  1.00  0.00     0.281 C 
BRANCH  21  22
HETATM   22  O3  UNL     1       5.219  20.018  54.846  1.00  0.00    -0.310 OA
BRANCH  22  23
HETATM   23  C13 UNL     1       4.826  20.919  53.866  1.00  0.00     0.283 C 
HETATM   24  O4  UNL     1       5.447  22.005  53.748  1.00  0.00    -0.263 OA
BRANCH  23  25
HETATM   25  C14 UNL     1       3.696  20.669  52.934  1.00  0.00     0.286 C 
BRANCH  25  26
HETATM   26  O5  UNL     1       4.103  21.034  51.653  1.00  0.00    -0.342 OA
BRANCH  26  27
HETATM   27  C15 UNL     1       3.966  20.300  50.509  1.00  0.00     0.070 A 
HETATM   28  C16 UNL     1       5.026  19.971  49.701  1.00  0.00     0.038 A 
HETATM   29  C17 UNL     1       4.807  19.227  48.562  1.00  0.00     0.027 A 
HETATM   30  C18 UNL     1       3.542  18.801  48.215  1.00  0.00     0.040 A 
HETATM   31 CL1  UNL     1       3.261  17.858  46.775  1.00  0.00    -0.084 Cl
HETATM   32  C19 UNL     1       2.455  19.120  49.017  1.00  0.00    -0.038 A 
HETATM   33  C20 UNL     1       1.065  18.673  48.667  1.00  0.00     0.050 C 
HETATM   34  C21 UNL     1       2.708  19.867  50.148  1.00  0.00     0.045 A 
ENDBRANCH  26  27
ENDBRANCH  25  26
ENDBRANCH  23  25
ENDBRANCH  22  23
ENDBRANCH  21  22
ENDBRANCH   3  21
TORSDOF 9
ENDMDL
