MODEL 1
REMARK VINA RESULT: -8.767928717      0.000      0.000
REMARK  6 active torsions:
REMARK  status: ('A' for Active; 'I' for Inactive)
REMARK    1  A    between atoms: O1_2  and  C2_3 
REMARK    2  A    between atoms: C5_6  and  C6_7 
REMARK    3  A    between atoms: C6_7  and  C7_8 
REMARK    4  A    between atoms: C7_8  and  N1_9 
REMARK       I    between atoms: N1_9  and  C8_11 
REMARK    5  A    between atoms: C8_11  and  C9_13 
REMARK    6  A    between atoms: C9_13  and  N2_14 
ROOT
HETATM    1  N2  UNL     1       8.095  20.296  50.613  1.00  0.00    -0.272 N 
HETATM    2  C10 UNL     1       7.517  21.507  50.786  1.00  0.00     0.253 A 
HETATM    3  O3  UNL     1       6.589  21.611  51.631  1.00  0.00    -0.268 OA
HETATM    4  C11 UNL     1       7.947  22.610  50.040  1.00  0.00     0.105 A 
HETATM    5  C12 UNL     1       8.966  22.448  49.128  1.00  0.00     0.054 A 
HETATM    6  N3  UNL     1       9.291  23.572  48.474  1.00  0.00    -0.349 N 
ATOM      7  H3  UNL     1       8.941  24.432  48.898  1.00  0.00     0.166 HD
HETATM    8  C13 UNL     1      10.014  23.750  47.337  1.00  0.00     0.080 C 
HETATM    9 BR1  UNL     1       9.731  25.411  46.470  1.00  0.00    -0.031 Br
HETATM   10  C14 UNL     1      10.897  22.850  46.793  1.00  0.00     0.037 C 
HETATM   11  C15 UNL     1      11.226  21.566  47.169  1.00  0.00     0.004 C 
HETATM   12  C16 UNL     1      10.600  20.772  48.101  1.00  0.00     0.019 C 
HETATM   13  C17 UNL     1       9.579  21.149  48.950  1.00  0.00     0.059 A 
HETATM   14  C18 UNL     1       9.100  20.108  49.723  1.00  0.00     0.263 A 
HETATM   15  O4  UNL     1       9.611  18.962  49.594  1.00  0.00    -0.267 OA
ENDROOT
BRANCH   1  16
HETATM   16  C9  UNL     1       7.633  19.182  51.393  1.00  0.00     0.238 C 
BRANCH  16  17
HETATM   17  C8  UNL     1       6.479  18.512  50.752  1.00  0.00     0.236 C 
HETATM   18  N1  UNL     1       5.158  18.928  51.006  1.00  0.00    -0.359 N 
ATOM     19  H1  UNL     1       5.000  19.708  51.644  1.00  0.00     0.162 HD
HETATM   20  O2  UNL     1       6.701  17.560  49.972  1.00  0.00    -0.272 OA
BRANCH  18  21
HETATM   21  C7  UNL     1       4.035  18.293  50.398  1.00  0.00     0.127 C 
BRANCH  21  22
HETATM   22  C6  UNL     1       2.766  19.081  50.370  1.00  0.00     0.058 C 
BRANCH  22  23
HETATM   23  C5  UNL     1       2.117  19.044  49.056  1.00  0.00    -0.057 A 
HETATM   24  C4  UNL     1       0.791  18.760  48.923  1.00  0.00     0.010 A 
HETATM   25  C3  UNL     1       0.216  18.747  47.649  1.00  0.00     0.037 A 
HETATM   26  C2  UNL     1       0.944  19.012  46.511  1.00  0.00     0.068 A 
HETATM   27  C20 UNL     1       2.284  19.294  46.682  1.00  0.00     0.037 A 
HETATM   28  C19 UNL     1       2.874  19.315  47.928  1.00  0.00     0.010 A 
BRANCH  26  29
HETATM   29  O1  UNL     1       0.370  19.000  45.237  1.00  0.00    -0.356 OA
HETATM   30  C1  UNL     1       1.094  19.617  44.191  1.00  0.00     0.210 C 
ENDBRANCH  26  29
ENDBRANCH  22  23
ENDBRANCH  21  22
ENDBRANCH  18  21
ENDBRANCH  16  17
ENDBRANCH   1  16
TORSDOF 6
ENDMDL
MODEL 2
REMARK VINA RESULT: -8.696363822      2.230      2.998
REMARK  6 active torsions:
REMARK  status: ('A' for Active; 'I' for Inactive)
REMARK    1  A    between atoms: O1_2  and  C2_3 
REMARK    2  A    between atoms: C5_6  and  C6_7 
REMARK    3  A    between atoms: C6_7  and  C7_8 
REMARK    4  A    between atoms: C7_8  and  N1_9 
REMARK       I    between atoms: N1_9  and  C8_11 
REMARK    5  A    between atoms: C8_11  and  C9_13 
REMARK    6  A    between atoms: C9_13  and  N2_14 
ROOT
HETATM    1  N2  UNL     1       8.428  20.288  50.717  1.00  0.00    -0.272 N 
HETATM    2  C10 UNL     1       7.890  21.504  50.968  1.00  0.00     0.253 A 
HETATM    3  O3  UNL     1       7.055  21.607  51.905  1.00  0.00    -0.268 OA
HETATM    4  C11 UNL     1       8.258  22.613  50.198  1.00  0.00     0.105 A 
HETATM    5  C12 UNL     1       9.176  22.452  49.183  1.00  0.00     0.054 A 
HETATM    6  N3  UNL     1       9.450  23.582  48.517  1.00  0.00    -0.349 N 
ATOM      7  H3  UNL     1       9.159  24.439  48.987  1.00  0.00     0.166 HD
HETATM    8  C13 UNL     1      10.054  23.769  47.313  1.00  0.00     0.080 C 
HETATM    9 BR1  UNL     1       9.710  25.447  46.506  1.00  0.00    -0.031 Br
HETATM   10  C14 UNL     1      10.862  22.865  46.668  1.00  0.00     0.037 C 
HETATM   11  C15 UNL     1      11.208  21.571  46.988  1.00  0.00     0.004 C 
HETATM   12  C16 UNL     1      10.669  20.770  47.968  1.00  0.00     0.019 C 
HETATM   13  C17 UNL     1       9.746  21.147  48.923  1.00  0.00     0.059 A 
HETATM   14  C18 UNL     1       9.332  20.100  49.726  1.00  0.00     0.263 A 
HETATM   15  O4  UNL     1       9.809  18.950  49.527  1.00  0.00    -0.267 OA
ENDROOT
BRANCH   1  16
HETATM   16  C9  UNL     1       8.031  19.167  51.524  1.00  0.00     0.238 C 
BRANCH  16  17
HETATM   17  C8  UNL     1       6.830  18.501  50.972  1.00  0.00     0.236 C 
HETATM   18  N1  UNL     1       6.674  18.302  49.587  1.00  0.00    -0.359 N 
ATOM     19  H1  UNL     1       7.408  18.625  48.956  1.00  0.00     0.162 HD
HETATM   20  O2  UNL     1       5.946  18.113  51.768  1.00  0.00    -0.272 OA
BRANCH  18  21
HETATM   21  C7  UNL     1       5.523  17.663  49.039  1.00  0.00     0.127 C 
BRANCH  21  22
HETATM   22  C6  UNL     1       4.496  18.562  48.432  1.00  0.00     0.058 C 
BRANCH  22  23
HETATM   23  C5  UNL     1       3.607  19.150  49.439  1.00  0.00    -0.057 A 
HETATM   24  C4  UNL     1       3.783  20.424  49.890  1.00  0.00     0.010 A 
HETATM   25  C3  UNL     1       2.902  20.942  50.844  1.00  0.00     0.037 A 
HETATM   26  C2  UNL     1       1.853  20.210  51.351  1.00  0.00     0.068 A 
HETATM   27  C20 UNL     1       1.704  18.924  50.873  1.00  0.00     0.037 A 
HETATM   28  C19 UNL     1       2.559  18.390  49.932  1.00  0.00     0.010 A 
BRANCH  26  29
HETATM   29  O1  UNL     1       0.972  20.728  52.304  1.00  0.00    -0.356 OA
HETATM   30  C1  UNL     1       1.381  20.690  53.657  1.00  0.00     0.210 C 
ENDBRANCH  26  29
ENDBRANCH  22  23
ENDBRANCH  21  22
ENDBRANCH  18  21
ENDBRANCH  16  17
ENDBRANCH   1  16
TORSDOF 6
ENDMDL
MODEL 3
REMARK VINA RESULT: -8.589463329      1.121      1.723
REMARK  6 active torsions:
REMARK  status: ('A' for Active; 'I' for Inactive)
REMARK    1  A    between atoms: O1_2  and  C2_3 
REMARK    2  A    between atoms: C5_6  and  C6_7 
REMARK    3  A    between atoms: C6_7  and  C7_8 
REMARK    4  A    between atoms: C7_8  and  N1_9 
REMARK       I    between atoms: N1_9  and  C8_11 
REMARK    5  A    between atoms: C8_11  and  C9_13 
REMARK    6  A    between atoms: C9_13  and  N2_14 
ROOT
HETATM    1  N2  UNL     1       7.839  20.311  50.456  1.00  0.00    -0.272 N 
HETATM    2  C10 UNL     1       7.302  21.544  50.606  1.00  0.00     0.253 A 
HETATM    3  O3  UNL     1       6.330  21.681  51.394  1.00  0.00    -0.268 OA
HETATM    4  C11 UNL     1       7.823  22.633  49.898  1.00  0.00     0.105 A 
HETATM    5  C12 UNL     1       8.888  22.434  49.048  1.00  0.00     0.054 A 
HETATM    6  N3  UNL     1       9.299  23.548  48.426  1.00  0.00    -0.349 N 
ATOM      7  H3  UNL     1       8.960  24.419  48.836  1.00  0.00     0.166 HD
HETATM    8  C13 UNL     1      10.096  23.704  47.336  1.00  0.00     0.080 C 
HETATM    9 BR1  UNL     1       9.937  25.381  46.470  1.00  0.00    -0.031 Br
HETATM   10  C14 UNL     1      10.972  22.771  46.838  1.00  0.00     0.037 C 
HETATM   11  C15 UNL     1      11.224  21.472  47.220  1.00  0.00     0.004 C 
HETATM   12  C16 UNL     1      10.509  20.698  48.105  1.00  0.00     0.019 C 
HETATM   13  C17 UNL     1       9.456  21.112  48.894  1.00  0.00     0.059 A 
HETATM   14  C18 UNL     1       8.886  20.086  49.626  1.00  0.00     0.263 A 
HETATM   15  O4  UNL     1       9.356  18.921  49.517  1.00  0.00    -0.267 OA
ENDROOT
BRANCH   1  16
HETATM   16  C9  UNL     1       7.284  19.211  51.196  1.00  0.00     0.238 C 
BRANCH  16  17
HETATM   17  C8  UNL     1       6.116  18.624  50.500  1.00  0.00     0.236 C 
HETATM   18  N1  UNL     1       6.140  18.374  49.114  1.00  0.00    -0.359 N 
ATOM     19  H1  UNL     1       6.982  18.603  48.585  1.00  0.00     0.162 HD
HETATM   20  O2  UNL     1       5.098  18.350  51.172  1.00  0.00    -0.272 OA
BRANCH  18  21
HETATM   21  C7  UNL     1       5.024  17.810  48.428  1.00  0.00     0.127 C 
BRANCH  21  22
HETATM   22  C6  UNL     1       4.443  18.632  47.325  1.00  0.00     0.058 C 
BRANCH  22  23
HETATM   23  C5  UNL     1       2.979  18.686  47.383  1.00  0.00    -0.057 A 
HETATM   24  C4  UNL     1       2.234  19.024  46.294  1.00  0.00     0.010 A 
HETATM   25  C3  UNL     1       0.840  19.051  46.397  1.00  0.00     0.037 A 
HETATM   26  C2  UNL     1       0.183  18.746  47.568  1.00  0.00     0.068 A 
HETATM   27  C20 UNL     1       0.969  18.409  48.652  1.00  0.00     0.037 A 
HETATM   28  C19 UNL     1       2.345  18.374  48.575  1.00  0.00     0.010 A 
BRANCH  26  29
HETATM   29  O1  UNL     1      -1.210  18.772  47.672  1.00  0.00    -0.356 OA
HETATM   30  C1  UNL     1      -1.917  17.628  47.236  1.00  0.00     0.210 C 
ENDBRANCH  26  29
ENDBRANCH  22  23
ENDBRANCH  21  22
ENDBRANCH  18  21
ENDBRANCH  16  17
ENDBRANCH   1  16
TORSDOF 6
ENDMDL
MODEL 4
REMARK VINA RESULT: -8.555449549      3.414      8.035
REMARK  6 active torsions:
REMARK  status: ('A' for Active; 'I' for Inactive)
REMARK    1  A    between atoms: O1_2  and  C2_3 
REMARK    2  A    between atoms: C5_6  and  C6_7 
REMARK    3  A    between atoms: C6_7  and  C7_8 
REMARK    4  A    between atoms: C7_8  and  N1_9 
REMARK       I    between atoms: N1_9  and  C8_11 
REMARK    5  A    between atoms: C8_11  and  C9_13 
REMARK    6  A    between atoms: C9_13  and  N2_14 
ROOT
HETATM    1  N2  UNL     1       3.588  19.630  51.595  1.00  0.00    -0.272 N 
HETATM    2  C10 UNL     1       2.305  19.985  51.839  1.00  0.00     0.253 A 
HETATM    3  O3  UNL     1       2.034  20.524  52.945  1.00  0.00    -0.268 OA
HETATM    4  C11 UNL     1       1.313  19.753  50.882  1.00  0.00     0.105 A 
HETATM    5  C12 UNL     1       1.657  19.161  49.687  1.00  0.00     0.054 A 
HETATM    6  N3  UNL     1       0.624  18.990  48.849  1.00  0.00    -0.349 N 
ATOM      7  H3  UNL     1      -0.209  19.533  49.079  1.00  0.00     0.166 HD
HETATM    8  C13 UNL     1       0.509  18.210  47.742  1.00  0.00     0.080 C 
HETATM    9 BR1  UNL     1      -1.272  17.832  47.221  1.00  0.00    -0.031 Br
HETATM   10  C14 UNL     1       1.549  17.696  47.006  1.00  0.00     0.037 C 
HETATM   11  C15 UNL     1       2.910  17.751  47.204  1.00  0.00     0.004 C 
HETATM   12  C16 UNL     1       3.586  18.189  48.320  1.00  0.00     0.019 C 
HETATM   13  C17 UNL     1       3.032  18.786  49.433  1.00  0.00     0.059 A 
HETATM   14  C18 UNL     1       3.956  19.047  50.429  1.00  0.00     0.263 A 
HETATM   15  O4  UNL     1       5.163  18.733  50.242  1.00  0.00    -0.267 OA
ENDROOT
BRANCH   1  16
HETATM   16  C9  UNL     1       4.587  19.881  52.597  1.00  0.00     0.238 C 
BRANCH  16  17
HETATM   17  C8  UNL     1       5.681  20.729  52.072  1.00  0.00     0.236 C 
HETATM   18  N1  UNL     1       6.990  20.229  51.928  1.00  0.00    -0.359 N 
ATOM     19  H1  UNL     1       7.181  19.262  52.191  1.00  0.00     0.162 HD
HETATM   20  O2  UNL     1       5.419  21.910  51.756  1.00  0.00    -0.272 OA
BRANCH  18  21
HETATM   21  C7  UNL     1       8.056  21.032  51.426  1.00  0.00     0.127 C 
BRANCH  21  22
HETATM   22  C6  UNL     1       8.998  20.363  50.481  1.00  0.00     0.058 C 
BRANCH  22  23
HETATM   23  C5  UNL     1       9.478  21.272  49.436  1.00  0.00    -0.057 A 
HETATM   24  C4  UNL     1      10.384  20.871  48.501  1.00  0.00     0.010 A 
HETATM   25  C3  UNL     1      10.804  21.773  47.519  1.00  0.00     0.037 A 
HETATM   26  C2  UNL     1      10.333  23.065  47.459  1.00  0.00     0.068 A 
HETATM   27  C20 UNL     1       9.418  23.439  48.422  1.00  0.00     0.037 A 
HETATM   28  C19 UNL     1       8.988  22.568  49.399  1.00  0.00     0.010 A 
BRANCH  26  29
HETATM   29  O1  UNL     1      10.751  23.968  46.478  1.00  0.00    -0.356 OA
HETATM   30  C1  UNL     1      10.045  25.188  46.372  1.00  0.00     0.210 C 
ENDBRANCH  26  29
ENDBRANCH  22  23
ENDBRANCH  21  22
ENDBRANCH  18  21
ENDBRANCH  16  17
ENDBRANCH   1  16
TORSDOF 6
ENDMDL
MODEL 5
REMARK VINA RESULT: -8.359560653      1.317      1.483
REMARK  6 active torsions:
REMARK  status: ('A' for Active; 'I' for Inactive)
REMARK    1  A    between atoms: O1_2  and  C2_3 
REMARK    2  A    between atoms: C5_6  and  C6_7 
REMARK    3  A    between atoms: C6_7  and  C7_8 
REMARK    4  A    between atoms: C7_8  and  N1_9 
REMARK       I    between atoms: N1_9  and  C8_11 
REMARK    5  A    between atoms: C8_11  and  C9_13 
REMARK    6  A    between atoms: C9_13  and  N2_14 
ROOT
HETATM    1  N2  UNL     1       8.076  20.337  50.610  1.00  0.00    -0.272 N 
HETATM    2  C10 UNL     1       7.553  21.573  50.779  1.00  0.00     0.253 A 
HETATM    3  O3  UNL     1       6.636  21.724  51.629  1.00  0.00    -0.268 OA
HETATM    4  C11 UNL     1       8.027  22.650  50.023  1.00  0.00     0.105 A 
HETATM    5  C12 UNL     1       9.032  22.437  49.105  1.00  0.00     0.054 A 
HETATM    6  N3  UNL     1       9.402  23.542  48.441  1.00  0.00    -0.349 N 
ATOM      7  H3  UNL     1       9.094  24.419  48.862  1.00  0.00     0.166 HD
HETATM    8  C13 UNL     1      10.124  23.680  47.298  1.00  0.00     0.080 C 
HETATM    9 BR1  UNL     1       9.910  25.345  46.422  1.00  0.00    -0.031 Br
HETATM   10  C14 UNL     1      10.963  22.737  46.755  1.00  0.00     0.037 C 
HETATM   11  C15 UNL     1      11.237  21.443  47.137  1.00  0.00     0.004 C 
HETATM   12  C16 UNL     1      10.582  20.683  48.079  1.00  0.00     0.019 C 
HETATM   13  C17 UNL     1       9.585  21.111  48.931  1.00  0.00     0.059 A 
HETATM   14  C18 UNL     1       9.065  20.097  49.715  1.00  0.00     0.263 A 
HETATM   15  O4  UNL     1       9.523  18.929  49.590  1.00  0.00    -0.267 OA
ENDROOT
BRANCH   1  16
HETATM   16  C9  UNL     1       7.570  19.249  51.401  1.00  0.00     0.238 C 
BRANCH  16  17
HETATM   17  C8  UNL     1       6.360  18.651  50.790  1.00  0.00     0.236 C 
HETATM   18  N1  UNL     1       5.090  19.235  50.961  1.00  0.00    -0.359 N 
ATOM     19  H1  UNL     1       5.008  20.087  51.517  1.00  0.00     0.162 HD
HETATM   20  O2  UNL     1       6.488  17.608  50.113  1.00  0.00    -0.272 OA
BRANCH  18  21
HETATM   21  C7  UNL     1       3.914  18.672  50.382  1.00  0.00     0.127 C 
BRANCH  21  22
HETATM   22  C6  UNL     1       3.183  19.533  49.406  1.00  0.00     0.058 C 
BRANCH  22  23
HETATM   23  C5  UNL     1       3.154  18.950  48.061  1.00  0.00    -0.057 A 
HETATM   24  C4  UNL     1       2.006  18.897  47.330  1.00  0.00     0.010 A 
HETATM   25  C3  UNL     1       2.033  18.339  46.048  1.00  0.00     0.037 A 
HETATM   26  C2  UNL     1       3.186  17.836  45.490  1.00  0.00     0.068 A 
HETATM   27  C20 UNL     1       4.330  17.905  46.258  1.00  0.00     0.037 A 
HETATM   28  C19 UNL     1       4.330  18.451  47.524  1.00  0.00     0.010 A 
BRANCH  26  29
HETATM   29  O1  UNL     1       3.214  17.279  44.209  1.00  0.00    -0.356 OA
HETATM   30  C1  UNL     1       3.244  15.868  44.113  1.00  0.00     0.210 C 
ENDBRANCH  26  29
ENDBRANCH  22  23
ENDBRANCH  21  22
ENDBRANCH  18  21
ENDBRANCH  16  17
ENDBRANCH   1  16
TORSDOF 6
ENDMDL
