MODEL 1
REMARK VINA RESULT: -8.447380446      0.000      0.000
REMARK  8 active torsions:
REMARK  status: ('A' for Active; 'I' for Inactive)
REMARK    1  A    between atoms: C2_2  and  N1_3 
REMARK       I    between atoms: N1_3  and  C3_4 
REMARK    2  A    between atoms: N1_3  and  C12_21 
REMARK    3  A    between atoms: C3_4  and  C4_6 
REMARK    4  A    between atoms: C4_6  and  O2_7 
REMARK    5  A    between atoms: O2_7  and  C5_8 
REMARK    6  A    between atoms: C5_8  and  C6_10 
REMARK       I    between atoms: C6_10  and  N2_12 
REMARK    7  A    between atoms: N2_12  and  C7_14 
REMARK    8  A    between atoms: C15_24  and  N4_25 
ROOT
HETATM    1  N1  UNL     1       4.141  19.624  50.008  1.00  0.00    -0.315 N 
HETATM    2  C3  UNL     1       4.401  20.890  50.556  1.00  0.00     0.248 C 
HETATM    3  O1  UNL     1       3.580  21.817  50.328  1.00  0.00    -0.271 OA
ENDROOT
BRANCH   2   4
HETATM    4  C4  UNL     1       5.583  21.181  51.358  1.00  0.00     0.282 C 
BRANCH   4   5
HETATM    5  O2  UNL     1       6.616  21.907  50.753  1.00  0.00    -0.304 OA
BRANCH   5   6
HETATM    6  C5  UNL     1       7.956  21.511  50.963  1.00  0.00     0.352 C 
HETATM    7  O3  UNL     1       8.538  22.052  51.943  1.00  0.00    -0.254 OA
BRANCH   6   8
HETATM    8  C6  UNL     1       8.656  20.553  50.132  1.00  0.00     0.322 C 
HETATM    9  O4  UNL     1       8.166  19.466  49.764  1.00  0.00    -0.261 OA
HETATM   10  N2  UNL     1       9.984  20.862  49.703  1.00  0.00    -0.304 N 
ATOM     11  H2  UNL     1      10.777  20.495  50.229  1.00  0.00     0.171 HD
BRANCH  10  12
HETATM   12  C7  UNL     1      10.200  21.601  48.655  1.00  0.00     0.107 A 
HETATM   13  C8  UNL     1       9.765  22.921  48.682  1.00  0.00     0.048 A 
HETATM   14  C9  UNL     1       9.994  23.744  47.576  1.00  0.00     0.005 A 
HETATM   15  C10 UNL     1      10.646  23.197  46.506  1.00  0.00     0.017 A 
HETATM   16  C11 UNL     1      11.061  21.877  46.525  1.00  0.00     0.089 A 
HETATM   17  N3  UNL     1      10.835  21.110  47.583  1.00  0.00    -0.352 N 
ATOM     18  H3  UNL     1      11.147  20.139  47.580  1.00  0.00     0.166 HD
ENDBRANCH  10  12
ENDBRANCH   6   8
ENDBRANCH   5   6
ENDBRANCH   4   5
ENDBRANCH   2   4
BRANCH   1  19
HETATM   19  C2  UNL     1       5.098  18.555  50.118  1.00  0.00     0.128 C 
HETATM   20  C1  UNL     1       4.642  17.229  50.565  1.00  0.00     0.027 C 
ENDBRANCH   1  19
BRANCH   1  21
HETATM   21  C12 UNL     1       2.956  19.351  49.236  1.00  0.00     0.054 A 
HETATM   22  C13 UNL     1       3.107  19.246  47.838  1.00  0.00     0.033 A 
HETATM   23  C14 UNL     1       2.038  18.983  47.018  1.00  0.00     0.038 A 
HETATM   24  C15 UNL     1       0.788  18.816  47.570  1.00  0.00     0.104 A 
HETATM   25  C16 UNL     1       0.599  18.911  48.923  1.00  0.00     0.057 A 
HETATM   26  C17 UNL     1       1.712  19.182  49.746  1.00  0.00     0.040 A 
HETATM   27 BR1  UNL     1       1.443  19.342  51.634  1.00  0.00    -0.049 Br
BRANCH  24  28
HETATM   28  N4  UNL     1      -0.317  18.538  46.733  1.00  0.00    -0.116 N 
HETATM   29  O5  UNL     1      -0.255  18.709  45.495  1.00  0.00    -0.532 OA
HETATM   30  O6  UNL     1      -1.475  18.077  47.300  1.00  0.00    -0.532 OA
ENDBRANCH  24  28
ENDBRANCH   1  21
TORSDOF 8
ENDMDL
MODEL 2
REMARK VINA RESULT: -8.387292074      1.191      1.613
REMARK  8 active torsions:
REMARK  status: ('A' for Active; 'I' for Inactive)
REMARK    1  A    between atoms: C2_2  and  N1_3 
REMARK       I    between atoms: N1_3  and  C3_4 
REMARK    2  A    between atoms: N1_3  and  C12_21 
REMARK    3  A    between atoms: C3_4  and  C4_6 
REMARK    4  A    between atoms: C4_6  and  O2_7 
REMARK    5  A    between atoms: O2_7  and  C5_8 
REMARK    6  A    between atoms: C5_8  and  C6_10 
REMARK       I    between atoms: C6_10  and  N2_12 
REMARK    7  A    between atoms: N2_12  and  C7_14 
REMARK    8  A    between atoms: C15_24  and  N4_25 
ROOT
HETATM    1  N1  UNL     1       4.559  19.526  51.425  1.00  0.00    -0.315 N 
HETATM    2  C3  UNL     1       5.161  20.773  51.657  1.00  0.00     0.248 C 
HETATM    3  O1  UNL     1       4.743  21.766  51.005  1.00  0.00    -0.271 OA
ENDROOT
BRANCH   2   4
HETATM    4  C4  UNL     1       6.254  20.965  52.602  1.00  0.00     0.282 C 
BRANCH   4   5
HETATM    5  O2  UNL     1       7.542  20.606  52.188  1.00  0.00    -0.304 OA
BRANCH   5   6
HETATM    6  C5  UNL     1       8.113  21.248  51.066  1.00  0.00     0.352 C 
HETATM    7  O3  UNL     1       8.508  22.431  51.256  1.00  0.00    -0.254 OA
BRANCH   6   8
HETATM    8  C6  UNL     1       8.255  20.628  49.764  1.00  0.00     0.322 C 
HETATM    9  O4  UNL     1       7.340  20.002  49.191  1.00  0.00    -0.261 OA
HETATM   10  N2  UNL     1       9.509  20.737  49.089  1.00  0.00    -0.304 N 
ATOM     11  H2  UNL     1      10.185  19.977  49.163  1.00  0.00     0.171 HD
BRANCH  10  12
HETATM   12  C7  UNL     1       9.806  21.787  48.381  1.00  0.00     0.107 A 
HETATM   13  C8  UNL     1      10.808  21.673  47.424  1.00  0.00     0.048 A 
HETATM   14  C9  UNL     1      11.140  22.780  46.638  1.00  0.00     0.005 A 
HETATM   15  C10 UNL     1      10.449  23.940  46.858  1.00  0.00     0.017 A 
HETATM   16  C11 UNL     1       9.459  24.006  47.823  1.00  0.00     0.089 A 
HETATM   17  N3  UNL     1       9.157  22.946  48.559  1.00  0.00    -0.352 N 
ATOM     18  H3  UNL     1       8.425  23.012  49.266  1.00  0.00     0.166 HD
ENDBRANCH  10  12
ENDBRANCH   6   8
ENDBRANCH   5   6
ENDBRANCH   4   5
ENDBRANCH   2   4
BRANCH   1  19
HETATM   19  C2  UNL     1       5.070  18.329  52.037  1.00  0.00     0.128 C 
HETATM   20  C1  UNL     1       6.073  17.528  51.315  1.00  0.00     0.027 C 
ENDBRANCH   1  19
BRANCH   1  21
HETATM   21  C12 UNL     1       3.466  19.362  50.503  1.00  0.00     0.054 A 
HETATM   22  C13 UNL     1       3.786  18.972  49.186  1.00  0.00     0.033 A 
HETATM   23  C14 UNL     1       2.812  18.784  48.236  1.00  0.00     0.038 A 
HETATM   24  C15 UNL     1       1.493  18.981  48.572  1.00  0.00     0.104 A 
HETATM   25  C16 UNL     1       1.140  19.360  49.840  1.00  0.00     0.057 A 
HETATM   26  C17 UNL     1       2.156  19.548  50.799  1.00  0.00     0.040 A 
HETATM   27 BR1  UNL     1       1.666  20.105  52.564  1.00  0.00    -0.049 Br
BRANCH  24  28
HETATM   28  N4  UNL     1       0.484  18.783  47.602  1.00  0.00    -0.116 N 
HETATM   29  O5  UNL     1      -0.675  18.444  47.928  1.00  0.00    -0.532 OA
HETATM   30  O6  UNL     1       0.794  18.965  46.280  1.00  0.00    -0.532 OA
ENDBRANCH  24  28
ENDBRANCH   1  21
TORSDOF 8
ENDMDL
MODEL 3
REMARK VINA RESULT: -8.372851471      3.607      6.051
REMARK  8 active torsions:
REMARK  status: ('A' for Active; 'I' for Inactive)
REMARK    1  A    between atoms: C2_2  and  N1_3 
REMARK       I    between atoms: N1_3  and  C3_4 
REMARK    2  A    between atoms: N1_3  and  C12_21 
REMARK    3  A    between atoms: C3_4  and  C4_6 
REMARK    4  A    between atoms: C4_6  and  O2_7 
REMARK    5  A    between atoms: O2_7  and  C5_8 
REMARK    6  A    between atoms: C5_8  and  C6_10 
REMARK       I    between atoms: C6_10  and  N2_12 
REMARK    7  A    between atoms: N2_12  and  C7_14 
REMARK    8  A    between atoms: C15_24  and  N4_25 
ROOT
HETATM    1  N1  UNL     1       5.071  20.176  52.146  1.00  0.00    -0.315 N 
HETATM    2  C3  UNL     1       5.897  20.955  51.321  1.00  0.00     0.248 C 
HETATM    3  O1  UNL     1       6.769  21.680  51.868  1.00  0.00    -0.271 OA
ENDROOT
BRANCH   2   4
HETATM    4  C4  UNL     1       5.780  20.973  49.869  1.00  0.00     0.282 C 
BRANCH   4   5
HETATM    5  O2  UNL     1       6.781  20.334  49.128  1.00  0.00    -0.304 OA
BRANCH   5   6
HETATM    6  C5  UNL     1       7.687  19.472  49.787  1.00  0.00     0.352 C 
HETATM    7  O3  UNL     1       7.277  18.295  49.982  1.00  0.00    -0.254 OA
BRANCH   6   8
HETATM    8  C6  UNL     1       9.009  19.870  50.227  1.00  0.00     0.322 C 
HETATM    9  O4  UNL     1       9.861  19.073  50.670  1.00  0.00    -0.261 OA
HETATM   10  N2  UNL     1       9.367  21.250  50.152  1.00  0.00    -0.304 N 
ATOM     11  H2  UNL     1       9.270  21.838  50.979  1.00  0.00     0.171 HD
BRANCH  10  12
HETATM   12  C7  UNL     1       9.815  21.773  49.047  1.00  0.00     0.107 A 
HETATM   13  C8  UNL     1       9.457  23.082  48.748  1.00  0.00     0.048 A 
HETATM   14  C9  UNL     1       9.932  23.675  47.575  1.00  0.00     0.005 A 
HETATM   15  C10 UNL     1      10.741  22.921  46.769  1.00  0.00     0.017 A 
HETATM   16  C11 UNL     1      11.070  21.621  47.109  1.00  0.00     0.089 A 
HETATM   17  N3  UNL     1      10.610  21.074  48.226  1.00  0.00    -0.352 N 
ATOM     18  H3  UNL     1      10.862  20.114  48.461  1.00  0.00     0.166 HD
ENDBRANCH  10  12
ENDBRANCH   6   8
ENDBRANCH   5   6
ENDBRANCH   4   5
ENDBRANCH   2   4
BRANCH   1  19
HETATM   19  C2  UNL     1       3.971  19.426  51.601  1.00  0.00     0.128 C 
HETATM   20  C1  UNL     1       2.613  19.989  51.676  1.00  0.00     0.027 C 
ENDBRANCH   1  19
BRANCH   1  21
HETATM   21  C12 UNL     1       5.217  20.156  53.579  1.00  0.00     0.054 A 
HETATM   22  C13 UNL     1       4.658  21.232  54.299  1.00  0.00     0.033 A 
HETATM   23  C14 UNL     1       4.741  21.299  55.668  1.00  0.00     0.038 A 
HETATM   24  C15 UNL     1       5.383  20.295  56.357  1.00  0.00     0.104 A 
HETATM   25  C16 UNL     1       5.939  19.233  55.694  1.00  0.00     0.057 A 
HETATM   26  C17 UNL     1       5.843  19.185  54.288  1.00  0.00     0.040 A 
HETATM   27 BR1  UNL     1       6.644  17.716  53.360  1.00  0.00    -0.049 Br
BRANCH  24  28
HETATM   28  N4  UNL     1       5.467  20.354  57.766  1.00  0.00    -0.116 N 
HETATM   29  O5  UNL     1       5.890  19.384  58.434  1.00  0.00    -0.532 OA
HETATM   30  O6  UNL     1       5.070  21.498  58.405  1.00  0.00    -0.532 OA
ENDBRANCH  24  28
ENDBRANCH   1  21
TORSDOF 8
ENDMDL
MODEL 4
REMARK VINA RESULT: -8.338907775      1.786      2.285
REMARK  8 active torsions:
REMARK  status: ('A' for Active; 'I' for Inactive)
REMARK    1  A    between atoms: C2_2  and  N1_3 
REMARK       I    between atoms: N1_3  and  C3_4 
REMARK    2  A    between atoms: N1_3  and  C12_21 
REMARK    3  A    between atoms: C3_4  and  C4_6 
REMARK    4  A    between atoms: C4_6  and  O2_7 
REMARK    5  A    between atoms: O2_7  and  C5_8 
REMARK    6  A    between atoms: C5_8  and  C6_10 
REMARK       I    between atoms: C6_10  and  N2_12 
REMARK    7  A    between atoms: N2_12  and  C7_14 
REMARK    8  A    between atoms: C15_24  and  N4_25 
ROOT
HETATM    1  N1  UNL     1       4.966  17.715  48.797  1.00  0.00    -0.315 N 
HETATM    2  C3  UNL     1       5.937  18.615  49.264  1.00  0.00     0.248 C 
HETATM    3  O1  UNL     1       5.935  19.785  48.801  1.00  0.00    -0.271 OA
ENDROOT
BRANCH   2   4
HETATM    4  C4  UNL     1       6.951  18.250  50.245  1.00  0.00     0.282 C 
BRANCH   4   5
HETATM    5  O2  UNL     1       7.250  19.179  51.248  1.00  0.00    -0.304 OA
BRANCH   5   6
HETATM    6  C5  UNL     1       8.374  20.022  51.099  1.00  0.00     0.352 C 
HETATM    7  O3  UNL     1       9.493  19.440  51.076  1.00  0.00    -0.254 OA
BRANCH   6   8
HETATM    8  C6  UNL     1       8.295  21.464  50.980  1.00  0.00     0.322 C 
HETATM    9  O4  UNL     1       8.447  22.248  51.939  1.00  0.00    -0.261 OA
HETATM   10  N2  UNL     1       8.033  22.029  49.694  1.00  0.00    -0.304 N 
ATOM     11  H2  UNL     1       7.077  22.283  49.445  1.00  0.00     0.171 HD
BRANCH  10  12
HETATM   12  C7  UNL     1       8.990  22.227  48.835  1.00  0.00     0.107 A 
HETATM   13  C8  UNL     1       9.152  23.507  48.317  1.00  0.00     0.048 A 
HETATM   14  C9  UNL     1      10.179  23.754  47.402  1.00  0.00     0.005 A 
HETATM   15  C10 UNL     1      10.986  22.704  47.059  1.00  0.00     0.017 A 
HETATM   16  C11 UNL     1      10.786  21.447  47.603  1.00  0.00     0.089 A 
HETATM   17  N3  UNL     1       9.806  21.230  48.469  1.00  0.00    -0.352 N 
ATOM     18  H3  UNL     1       9.673  20.298  48.860  1.00  0.00     0.166 HD
ENDBRANCH  10  12
ENDBRANCH   6   8
ENDBRANCH   5   6
ENDBRANCH   4   5
ENDBRANCH   2   4
BRANCH   1  19
HETATM   19  C2  UNL     1       4.988  16.330  49.183  1.00  0.00     0.128 C 
HETATM   20  C1  UNL     1       4.001  15.844  50.162  1.00  0.00     0.027 C 
ENDBRANCH   1  19
BRANCH   1  21
HETATM   21  C12 UNL     1       3.958  18.102  47.843  1.00  0.00     0.054 A 
HETATM   22  C13 UNL     1       4.193  17.780  46.490  1.00  0.00     0.033 A 
HETATM   23  C14 UNL     1       3.289  18.102  45.508  1.00  0.00     0.038 A 
HETATM   24  C15 UNL     1       2.125  18.754  45.848  1.00  0.00     0.104 A 
HETATM   25  C16 UNL     1       1.860  19.085  47.151  1.00  0.00     0.057 A 
HETATM   26  C17 UNL     1       2.803  18.744  48.142  1.00  0.00     0.040 A 
HETATM   27 BR1  UNL     1       2.445  19.231  49.958  1.00  0.00    -0.049 Br
BRANCH  24  28
HETATM   28  N4  UNL     1       1.187  19.083  44.844  1.00  0.00    -0.116 N 
HETATM   29  O5  UNL     1       1.250  20.169  44.224  1.00  0.00    -0.532 OA
HETATM   30  O6  UNL     1       0.189  18.191  44.554  1.00  0.00    -0.532 OA
ENDBRANCH  24  28
ENDBRANCH   1  21
TORSDOF 8
ENDMDL
MODEL 5
REMARK VINA RESULT: -8.326949213      2.740      8.050
REMARK  8 active torsions:
REMARK  status: ('A' for Active; 'I' for Inactive)
REMARK    1  A    between atoms: C2_2  and  N1_3 
REMARK       I    between atoms: N1_3  and  C3_4 
REMARK    2  A    between atoms: N1_3  and  C12_21 
REMARK    3  A    between atoms: C3_4  and  C4_6 
REMARK    4  A    between atoms: C4_6  and  O2_7 
REMARK    5  A    between atoms: O2_7  and  C5_8 
REMARK    6  A    between atoms: C5_8  and  C6_10 
REMARK       I    between atoms: C6_10  and  N2_12 
REMARK    7  A    between atoms: N2_12  and  C7_14 
REMARK    8  A    between atoms: C15_24  and  N4_25 
ROOT
HETATM    1  N1  UNL     1       6.586  20.172  51.145  1.00  0.00    -0.315 N 
HETATM    2  C3  UNL     1       5.286  19.907  50.686  1.00  0.00     0.248 C 
HETATM    3  O1  UNL     1       5.030  20.115  49.472  1.00  0.00    -0.271 OA
ENDROOT
BRANCH   2   4
HETATM    4  C4  UNL     1       4.222  19.419  51.554  1.00  0.00     0.282 C 
BRANCH   4   5
HETATM    5  O2  UNL     1       3.038  20.164  51.613  1.00  0.00    -0.304 OA
BRANCH   5   6
HETATM    6  C5  UNL     1       1.895  19.705  50.921  1.00  0.00     0.352 C 
HETATM    7  O3  UNL     1       0.898  20.479  50.941  1.00  0.00    -0.254 OA
BRANCH   6   8
HETATM    8  C6  UNL     1       1.825  18.438  50.223  1.00  0.00     0.322 C 
HETATM    9  O4  UNL     1       1.309  17.409  50.704  1.00  0.00    -0.261 OA
HETATM   10  N2  UNL     1       2.373  18.353  48.906  1.00  0.00    -0.304 N 
ATOM     11  H2  UNL     1       3.321  17.999  48.781  1.00  0.00     0.171 HD
BRANCH  10  12
HETATM   12  C7  UNL     1       1.686  18.718  47.864  1.00  0.00     0.107 A 
HETATM   13  C8  UNL     1       2.369  19.279  46.791  1.00  0.00     0.048 A 
HETATM   14  C9  UNL     1       1.660  19.669  45.651  1.00  0.00     0.005 A 
HETATM   15  C10 UNL     1       0.306  19.475  45.653  1.00  0.00     0.017 A 
HETATM   16  C11 UNL     1      -0.331  18.913  46.745  1.00  0.00     0.089 A 
HETATM   17  N3  UNL     1       0.358  18.548  47.818  1.00  0.00    -0.352 N 
ATOM     18  H3  UNL     1      -0.127  18.135  48.615  1.00  0.00     0.166 HD
ENDBRANCH  10  12
ENDBRANCH   6   8
ENDBRANCH   5   6
ENDBRANCH   4   5
ENDBRANCH   2   4
BRANCH   1  19
HETATM   19  C2  UNL     1       6.915  20.081  52.542  1.00  0.00     0.128 C 
HETATM   20  C1  UNL     1       6.855  21.296  53.372  1.00  0.00     0.027 C 
ENDBRANCH   1  19
BRANCH   1  21
HETATM   21  C12 UNL     1       7.630  20.633  50.266  1.00  0.00     0.054 A 
HETATM   22  C13 UNL     1       7.671  22.015  49.984  1.00  0.00     0.033 A 
HETATM   23  C14 UNL     1       8.632  22.551  49.162  1.00  0.00     0.038 A 
HETATM   24  C15 UNL     1       9.578  21.725  48.599  1.00  0.00     0.104 A 
HETATM   25  C16 UNL     1       9.572  20.378  48.848  1.00  0.00     0.057 A 
HETATM   26  C17 UNL     1       8.576  19.849  49.695  1.00  0.00     0.040 A 
HETATM   27 BR1  UNL     1       8.551  17.963  50.021  1.00  0.00    -0.049 Br
BRANCH  24  28
HETATM   28  N4  UNL     1      10.574  22.270  47.758  1.00  0.00    -0.116 N 
HETATM   29  O5  UNL     1      11.494  21.559  47.294  1.00  0.00    -0.532 OA
HETATM   30  O6  UNL     1      10.524  23.604  47.453  1.00  0.00    -0.532 OA
ENDBRANCH  24  28
ENDBRANCH   1  21
TORSDOF 8
ENDMDL
