MODEL 1
REMARK VINA RESULT: -7.774626152      0.000      0.000
REMARK  7 active torsions:
REMARK  status: ('A' for Active; 'I' for Inactive)
REMARK    1  A    between atoms: O1_2  and  C2_3 
REMARK    2  A    between atoms: C2_3  and  C3_4 
REMARK    3  A    between atoms: N3_13  and  C9_14 
REMARK    4  A    between atoms: C9_14  and  C10_15 
REMARK    5  A    between atoms: C10_15  and  C11_16 
REMARK    6  A    between atoms: C11_16  and  O2_17 
REMARK    7  A    between atoms: O2_17  and  C12_18 
ROOT
HETATM    1  C3  UNL     1       6.445  20.656  50.490  1.00  0.00     0.157 C 
HETATM    2  C4  UNL     1       5.128  21.230  50.811  1.00  0.00     0.253 C 
HETATM    3  C5  UNL     1       4.269  20.501  51.804  1.00  0.00     0.085 C 
HETATM    4  C6  UNL     1       3.138  21.080  50.943  1.00  0.00     0.296 C 
HETATM    5 BR1  UNL     1       1.646  19.917  50.695  1.00  0.00    -0.058 Br
HETATM    6  N1  UNL     1       4.110  21.087  49.840  1.00  0.00     0.113 N 
HETATM    7  C7  UNL     1       4.093  19.862  49.120  1.00  0.00     0.318 C 
HETATM    8  C8  UNL     1       5.426  19.305  48.764  1.00  0.00     0.266 A 
HETATM    9  N2  UNL     1       6.475  19.520  49.660  1.00  0.00    -0.301 N 
HETATM   10  N3  UNL     1       6.871  18.311  50.176  1.00  0.00    -0.119 NA
HETATM   11  S1  UNL     1       5.615  17.575  49.208  1.00  0.00     0.253 S 
HETATM   12  O3  UNL     1       4.492  17.039  50.021  1.00  0.00    -0.207 OA
HETATM   13  O4  UNL     1       6.107  16.707  48.117  1.00  0.00    -0.207 OA
ENDROOT
BRANCH  10  14
HETATM   14  C9  UNL     1       8.156  17.883  49.681  1.00  0.00     0.134 C 
BRANCH  14  15
HETATM   15  C10 UNL     1       9.288  18.265  50.598  1.00  0.00     0.044 C 
BRANCH  15  16
HETATM   16  C11 UNL     1      10.237  19.143  49.787  1.00  0.00     0.177 C 
BRANCH  16  17
HETATM   17  O2  UNL     1       9.937  20.477  50.121  1.00  0.00    -0.351 OA
BRANCH  17  18
HETATM   18  C12 UNL     1      10.081  21.471  49.168  1.00  0.00     0.068 A 
HETATM   19  C13 UNL     1      10.940  21.359  48.106  1.00  0.00     0.038 A 
HETATM   20  C14 UNL     1      11.044  22.368  47.194  1.00  0.00     0.029 A 
HETATM   21  C15 UNL     1      10.300  23.514  47.312  1.00  0.00     0.046 A 
HETATM   22  N4  UNL     1      10.383  24.591  46.377  1.00  0.00    -0.102 NA
HETATM   23  C16 UNL     1       9.443  23.613  48.381  1.00  0.00     0.029 A 
HETATM   24  C17 UNL     1       9.307  22.627  49.317  1.00  0.00     0.038 A 
ENDBRANCH  17  18
ENDBRANCH  16  17
ENDBRANCH  15  16
ENDBRANCH  14  15
ENDBRANCH  10  14
BRANCH   1  25
HETATM   25  C2  UNL     1       7.168  20.405  51.824  1.00  0.00     0.195 C 
BRANCH  25  26
HETATM   26  O1  UNL     1       7.432  21.667  52.352  1.00  0.00    -0.394 OA
HETATM   27  C1  UNL     1       7.268  21.703  53.731  1.00  0.00     0.201 C 
ENDBRANCH  25  26
ENDBRANCH   1  25
TORSDOF 7
ENDMDL
MODEL 2
REMARK VINA RESULT: -7.651948058      2.265      3.257
REMARK  7 active torsions:
REMARK  status: ('A' for Active; 'I' for Inactive)
REMARK    1  A    between atoms: O1_2  and  C2_3 
REMARK    2  A    between atoms: C2_3  and  C3_4 
REMARK    3  A    between atoms: N3_13  and  C9_14 
REMARK    4  A    between atoms: C9_14  and  C10_15 
REMARK    5  A    between atoms: C10_15  and  C11_16 
REMARK    6  A    between atoms: C11_16  and  O2_17 
REMARK    7  A    between atoms: O2_17  and  C12_18 
ROOT
HETATM    1  C3  UNL     1       2.645  20.494  50.609  1.00  0.00     0.157 C 
HETATM    2  C4  UNL     1       1.702  19.483  50.103  1.00  0.00     0.253 C 
HETATM    3  C5  UNL     1       1.956  18.046  50.462  1.00  0.00     0.085 C 
HETATM    4  C6  UNL     1       1.314  17.803  49.088  1.00  0.00     0.296 C 
HETATM    5 BR1  UNL     1       2.089  16.378  48.084  1.00  0.00    -0.058 Br
HETATM    6  N1  UNL     1       1.793  19.147  48.733  1.00  0.00     0.113 N 
HETATM    7  C7  UNL     1       3.101  19.106  48.179  1.00  0.00     0.318 C 
HETATM    8  C8  UNL     1       4.040  20.153  48.664  1.00  0.00     0.266 A 
HETATM    9  N2  UNL     1       3.905  20.577  49.988  1.00  0.00    -0.301 N 
HETATM   10  N3  UNL     1       5.032  20.216  50.685  1.00  0.00    -0.119 NA
HETATM   11  S1  UNL     1       5.621  19.496  49.204  1.00  0.00     0.253 S 
HETATM   12  O3  UNL     1       5.666  18.010  49.257  1.00  0.00    -0.207 OA
HETATM   13  O4  UNL     1       6.802  20.167  48.620  1.00  0.00    -0.207 OA
ENDROOT
BRANCH  10  14
HETATM   14  C9  UNL     1       5.867  21.342  51.023  1.00  0.00     0.134 C 
BRANCH  14  15
HETATM   15  C10 UNL     1       6.725  21.084  52.234  1.00  0.00     0.044 C 
BRANCH  15  16
HETATM   16  C11 UNL     1       8.156  20.913  51.732  1.00  0.00     0.177 C 
BRANCH  16  17
HETATM   17  O2  UNL     1       8.523  22.136  51.138  1.00  0.00    -0.351 OA
BRANCH  17  18
HETATM   18  C12 UNL     1       9.239  22.134  49.952  1.00  0.00     0.068 A 
HETATM   19  C13 UNL     1       9.928  21.036  49.506  1.00  0.00     0.038 A 
HETATM   20  C14 UNL     1      10.617  21.087  48.330  1.00  0.00     0.029 A 
HETATM   21  C15 UNL     1      10.641  22.226  47.567  1.00  0.00     0.046 A 
HETATM   22  N4  UNL     1      11.352  22.315  46.330  1.00  0.00    -0.102 NA
HETATM   23  C16 UNL     1       9.946  23.319  48.026  1.00  0.00     0.029 A 
HETATM   24  C17 UNL     1       9.242  23.311  49.197  1.00  0.00     0.038 A 
ENDBRANCH  17  18
ENDBRANCH  16  17
ENDBRANCH  15  16
ENDBRANCH  14  15
ENDBRANCH  10  14
BRANCH   1  25
HETATM   25  C2  UNL     1       2.772  20.277  52.126  1.00  0.00     0.195 C 
BRANCH  25  26
HETATM   26  O1  UNL     1       1.563  20.705  52.670  1.00  0.00    -0.394 OA
HETATM   27  C1  UNL     1       1.686  21.066  54.006  1.00  0.00     0.201 C 
ENDBRANCH  25  26
ENDBRANCH   1  25
TORSDOF 7
ENDMDL
MODEL 3
REMARK VINA RESULT: -7.460106124      2.006      3.308
REMARK  7 active torsions:
REMARK  status: ('A' for Active; 'I' for Inactive)
REMARK    1  A    between atoms: O1_2  and  C2_3 
REMARK    2  A    between atoms: C2_3  and  C3_4 
REMARK    3  A    between atoms: N3_13  and  C9_14 
REMARK    4  A    between atoms: C9_14  and  C10_15 
REMARK    5  A    between atoms: C10_15  and  C11_16 
REMARK    6  A    between atoms: C11_16  and  O2_17 
REMARK    7  A    between atoms: O2_17  and  C12_18 
ROOT
HETATM    1  C3  UNL     1       5.789  17.380  50.419  1.00  0.00     0.157 C 
HETATM    2  C4  UNL     1       4.576  17.015  49.668  1.00  0.00     0.253 C 
HETATM    3  C5  UNL     1       4.387  17.618  48.305  1.00  0.00     0.085 C 
HETATM    4  C6  UNL     1       2.904  17.518  48.690  1.00  0.00     0.296 C 
HETATM    5 BR1  UNL     1       1.825  18.977  48.103  1.00  0.00    -0.058 Br
HETATM    6  N1  UNL     1       3.359  17.603  50.086  1.00  0.00     0.113 N 
HETATM    7  C7  UNL     1       3.430  18.951  50.531  1.00  0.00     0.318 C 
HETATM    8  C8  UNL     1       4.640  19.305  51.322  1.00  0.00     0.266 A 
HETATM    9  N2  UNL     1       5.835  18.663  50.996  1.00  0.00    -0.301 N 
HETATM   10  N3  UNL     1       6.721  19.594  50.512  1.00  0.00    -0.119 NA
HETATM   11  S1  UNL     1       5.464  20.789  50.735  1.00  0.00     0.253 S 
HETATM   12  O3  UNL     1       4.921  21.309  49.452  1.00  0.00    -0.207 OA
HETATM   13  O4  UNL     1       5.749  21.794  51.781  1.00  0.00    -0.207 OA
ENDROOT
BRANCH  10  14
HETATM   14  C9  UNL     1       7.800  19.871  51.428  1.00  0.00     0.134 C 
BRANCH  14  15
HETATM   15  C10 UNL     1       9.156  19.699  50.796  1.00  0.00     0.044 C 
BRANCH  15  16
HETATM   16  C11 UNL     1       9.027  20.150  49.344  1.00  0.00     0.177 C 
BRANCH  16  17
HETATM   17  O2  UNL     1      10.272  20.696  48.980  1.00  0.00    -0.351 OA
BRANCH  17  18
HETATM   18  C12 UNL     1      10.317  21.841  48.202  1.00  0.00     0.068 A 
HETATM   19  C13 UNL     1      11.131  21.958  47.105  1.00  0.00     0.038 A 
HETATM   20  C14 UNL     1      11.138  23.109  46.372  1.00  0.00     0.029 A 
HETATM   21  C15 UNL     1      10.337  24.171  46.707  1.00  0.00     0.046 A 
HETATM   22  N4  UNL     1      10.318  25.390  45.962  1.00  0.00    -0.102 NA
HETATM   23  C16 UNL     1       9.527  24.040  47.808  1.00  0.00     0.029 A 
HETATM   24  C17 UNL     1       9.488  22.906  48.570  1.00  0.00     0.038 A 
ENDBRANCH  17  18
ENDBRANCH  16  17
ENDBRANCH  15  16
ENDBRANCH  14  15
ENDBRANCH  10  14
BRANCH   1  25
HETATM   25  C2  UNL     1       6.989  17.129  49.491  1.00  0.00     0.195 C 
BRANCH  25  26
HETATM   26  O1  UNL     1       7.891  16.375  50.238  1.00  0.00    -0.394 OA
HETATM   27  C1  UNL     1       9.090  16.173  49.565  1.00  0.00     0.201 C 
ENDBRANCH  25  26
ENDBRANCH   1  25
TORSDOF 7
ENDMDL
MODEL 4
REMARK VINA RESULT: -7.201359993      3.389      6.529
REMARK  7 active torsions:
REMARK  status: ('A' for Active; 'I' for Inactive)
REMARK    1  A    between atoms: O1_2  and  C2_3 
REMARK    2  A    between atoms: C2_3  and  C3_4 
REMARK    3  A    between atoms: N3_13  and  C9_14 
REMARK    4  A    between atoms: C9_14  and  C10_15 
REMARK    5  A    between atoms: C10_15  and  C11_16 
REMARK    6  A    between atoms: C11_16  and  O2_17 
REMARK    7  A    between atoms: O2_17  and  C12_18 
ROOT
HETATM    1  C3  UNL     1       6.562  19.963  52.248  1.00  0.00     0.157 C 
HETATM    2  C4  UNL     1       7.990  19.834  51.913  1.00  0.00     0.253 C 
HETATM    3  C5  UNL     1       8.419  20.200  50.521  1.00  0.00     0.085 C 
HETATM    4  C6  UNL     1       9.462  19.101  50.773  1.00  0.00     0.296 C 
HETATM    5 BR1  UNL     1       9.861  18.013  49.258  1.00  0.00    -0.058 Br
HETATM    6  N1  UNL     1       8.488  18.526  51.713  1.00  0.00     0.113 N 
HETATM    7  C7  UNL     1       7.615  17.611  51.064  1.00  0.00     0.318 C 
HETATM    8  C8  UNL     1       6.177  17.720  51.434  1.00  0.00     0.266 A 
HETATM    9  N2  UNL     1       5.683  18.990  51.736  1.00  0.00    -0.301 N 
HETATM   10  N3  UNL     1       4.757  19.342  50.786  1.00  0.00    -0.119 NA
HETATM   11  S1  UNL     1       5.082  17.807  50.013  1.00  0.00     0.253 S 
HETATM   12  O3  UNL     1       5.794  17.948  48.716  1.00  0.00    -0.207 OA
HETATM   13  O4  UNL     1       3.954  16.852  50.042  1.00  0.00    -0.207 OA
ENDROOT
BRANCH  10  14
HETATM   14  C9  UNL     1       3.406  19.336  51.290  1.00  0.00     0.134 C 
BRANCH  14  15
HETATM   15  C10 UNL     1       2.620  20.546  50.858  1.00  0.00     0.044 C 
BRANCH  15  16
HETATM   16  C11 UNL     1       1.274  20.040  50.349  1.00  0.00     0.177 C 
BRANCH  16  17
HETATM   17  O2  UNL     1       1.547  18.936  49.519  1.00  0.00    -0.351 OA
BRANCH  17  18
HETATM   18  C12 UNL     1       1.448  19.071  48.144  1.00  0.00     0.068 A 
HETATM   19  C13 UNL     1       0.248  19.033  47.482  1.00  0.00     0.038 A 
HETATM   20  C14 UNL     1       0.206  19.171  46.125  1.00  0.00     0.029 A 
HETATM   21  C15 UNL     1       1.351  19.351  45.391  1.00  0.00     0.046 A 
HETATM   22  N4  UNL     1       1.344  19.499  43.970  1.00  0.00    -0.102 NA
HETATM   23  C16 UNL     1       2.546  19.387  46.068  1.00  0.00     0.029 A 
HETATM   24  C17 UNL     1       2.634  19.253  47.425  1.00  0.00     0.038 A 
ENDBRANCH  17  18
ENDBRANCH  16  17
ENDBRANCH  15  16
ENDBRANCH  14  15
ENDBRANCH  10  14
BRANCH   1  25
HETATM   25  C2  UNL     1       6.130  21.385  51.850  1.00  0.00     0.195 C 
BRANCH  25  26
HETATM   26  O1  UNL     1       6.135  22.123  53.031  1.00  0.00    -0.394 OA
HETATM   27  C1  UNL     1       5.439  21.486  54.051  1.00  0.00     0.201 C 
ENDBRANCH  25  26
ENDBRANCH   1  25
TORSDOF 7
ENDMDL
MODEL 5
REMARK VINA RESULT: -7.131075103      2.202      3.646
REMARK  7 active torsions:
REMARK  status: ('A' for Active; 'I' for Inactive)
REMARK    1  A    between atoms: O1_2  and  C2_3 
REMARK    2  A    between atoms: C2_3  and  C3_4 
REMARK    3  A    between atoms: N3_13  and  C9_14 
REMARK    4  A    between atoms: C9_14  and  C10_15 
REMARK    5  A    between atoms: C10_15  and  C11_16 
REMARK    6  A    between atoms: C11_16  and  O2_17 
REMARK    7  A    between atoms: O2_17  and  C12_18 
ROOT
HETATM    1  C3  UNL     1       5.692  17.827  49.918  1.00  0.00     0.157 C 
HETATM    2  C4  UNL     1       5.015  17.611  48.629  1.00  0.00     0.253 C 
HETATM    3  C5  UNL     1       5.045  18.728  47.626  1.00  0.00     0.085 C 
HETATM    4  C6  UNL     1       3.676  18.148  47.243  1.00  0.00     0.296 C 
HETATM    5 BR1  UNL     1       2.359  19.445  46.773  1.00  0.00    -0.058 Br
HETATM    6  N1  UNL     1       3.602  17.661  48.629  1.00  0.00     0.113 N 
HETATM    7  C7  UNL     1       3.004  18.622  49.489  1.00  0.00     0.318 C 
HETATM    8  C8  UNL     1       3.670  18.809  50.806  1.00  0.00     0.266 A 
HETATM    9  N2  UNL     1       5.058  18.665  50.854  1.00  0.00    -0.301 N 
HETATM   10  N3  UNL     1       5.619  19.878  51.170  1.00  0.00    -0.119 NA
HETATM   11  S1  UNL     1       3.997  20.531  51.199  1.00  0.00     0.253 S 
HETATM   12  O3  UNL     1       3.725  21.465  50.073  1.00  0.00    -0.207 OA
HETATM   13  O4  UNL     1       3.529  20.961  52.533  1.00  0.00    -0.207 OA
ENDROOT
BRANCH  10  14
HETATM   14  C9  UNL     1       6.161  19.914  52.506  1.00  0.00     0.134 C 
BRANCH  14  15
HETATM   15  C10 UNL     1       7.188  21.001  52.685  1.00  0.00     0.044 C 
BRANCH  15  16
HETATM   16  C11 UNL     1       8.219  20.822  51.574  1.00  0.00     0.177 C 
BRANCH  16  17
HETATM   17  O2  UNL     1       8.405  22.089  50.990  1.00  0.00    -0.351 OA
BRANCH  17  18
HETATM   18  C12 UNL     1       9.126  22.202  49.813  1.00  0.00     0.068 A 
HETATM   19  C13 UNL     1       9.130  23.343  49.054  1.00  0.00     0.038 A 
HETATM   20  C14 UNL     1       9.859  23.401  47.902  1.00  0.00     0.029 A 
HETATM   21  C15 UNL     1      10.601  22.330  47.474  1.00  0.00     0.046 A 
HETATM   22  N4  UNL     1      11.376  22.357  46.273  1.00  0.00    -0.102 NA
HETATM   23  C16 UNL     1      10.588  21.193  48.244  1.00  0.00     0.029 A 
HETATM   24  C17 UNL     1       9.873  21.092  49.404  1.00  0.00     0.038 A 
ENDBRANCH  17  18
ENDBRANCH  16  17
ENDBRANCH  15  16
ENDBRANCH  14  15
ENDBRANCH  10  14
BRANCH   1  25
HETATM   25  C2  UNL     1       7.121  18.303  49.605  1.00  0.00     0.195 C 
BRANCH  25  26
HETATM   26  O1  UNL     1       7.853  17.147  49.342  1.00  0.00    -0.394 OA
HETATM   27  C1  UNL     1       9.221  17.388  49.310  1.00  0.00     0.201 C 
ENDBRANCH  25  26
ENDBRANCH   1  25
TORSDOF 7
ENDMDL
