MODEL 1
REMARK VINA RESULT: -8.448576728      0.000      0.000
REMARK  7 active torsions:
REMARK  status: ('A' for Active; 'I' for Inactive)
REMARK    1  A    between atoms: N2_5  and  C3_6 
REMARK    2  A    between atoms: C3_6  and  C4_7 
REMARK    3  A    between atoms: C4_7  and  C5_8 
REMARK    4  A    between atoms: C5_8  and  C6_9 
REMARK    5  A    between atoms: C6_9  and  N3_10 
REMARK    6  A    between atoms: C12_19  and  C13_20 
REMARK    7  A    between atoms: C13_20  and  C14_21 
ROOT
HETATM    1  C1  UNL     1       7.520  17.926  51.004  1.00  0.00     0.045 C 
HETATM    2  C2  UNL     1       6.823  18.987  51.365  1.00  0.00     0.054 A 
HETATM    3  N1  UNL     1       5.470  18.917  51.594  1.00  0.00    -0.296 N 
ATOM      4  H1  UNL     1       4.897  18.078  51.511  1.00  0.00     0.187 HD
HETATM    5  N2  UNL     1       5.041  20.098  51.934  1.00  0.00    -0.257 N 
HETATM    6  C11 UNL     1       6.041  20.975  51.947  1.00  0.00     0.274 A 
HETATM    7  O1  UNL     1       5.978  22.211  52.233  1.00  0.00    -0.266 OA
HETATM    8  C12 UNL     1       7.217  20.273  51.579  1.00  0.00     0.061 A 
ENDROOT
BRANCH   5   9
HETATM    9  C3  UNL     1       3.643  20.438  52.262  1.00  0.00     0.152 C 
BRANCH   9  10
HETATM   10  C4  UNL     1       2.958  20.756  50.971  1.00  0.00     0.023 C 
BRANCH  10  11
HETATM   11  C5  UNL     1       1.737  19.920  50.737  1.00  0.00     0.022 C 
BRANCH  11  12
HETATM   12  C6  UNL     1       2.071  18.651  49.956  1.00  0.00     0.130 C 
BRANCH  12  13
HETATM   13  N3  UNL     1       1.947  18.876  48.539  1.00  0.00    -0.336 N 
HETATM   14  C7  UNL     1       0.818  18.984  47.830  1.00  0.00     0.185 A 
HETATM   15  N4  UNL     1       1.131  19.191  46.539  1.00  0.00    -0.354 N 
HETATM   16  C8  UNL     1       0.202  19.364  45.430  1.00  0.00     0.156 C 
HETATM   17  C9  UNL     1       2.454  19.213  46.418  1.00  0.00     0.128 A 
HETATM   18  C10 UNL     1       2.975  19.013  47.693  1.00  0.00     0.098 A 
HETATM   19 BR1  UNL     1       4.844  18.952  48.105  1.00  0.00    -0.030 Br
ENDBRANCH  12  13
ENDBRANCH  11  12
ENDBRANCH  10  11
ENDBRANCH   9  10
ENDBRANCH   5   9
BRANCH   8  20
HETATM   20  C13 UNL     1       8.387  20.867  51.499  1.00  0.00     0.031 C 
BRANCH  20  21
HETATM   21  C14 UNL     1       9.064  21.287  50.304  1.00  0.00    -0.032 A 
HETATM   22  C15 UNL     1       9.976  20.461  49.632  1.00  0.00     0.014 A 
HETATM   23  C16 UNL     1      10.580  20.857  48.462  1.00  0.00     0.040 A 
HETATM   24  C17 UNL     1      10.311  22.089  47.895  1.00  0.00     0.105 A 
HETATM   25  C18 UNL     1       9.419  22.925  48.532  1.00  0.00     0.105 A 
HETATM   26  O3  UNL     1      10.737  22.764  46.766  1.00  0.00    -0.323 OA
HETATM   27  C19 UNL     1       8.820  22.525  49.699  1.00  0.00     0.051 A 
HETATM   28  O2  UNL     1       9.309  24.109  47.778  1.00  0.00    -0.323 OA
HETATM   29  C20 UNL     1      10.244  24.078  46.742  1.00  0.00     0.352 C 
ENDBRANCH  20  21
ENDBRANCH   8  20
TORSDOF 7
ENDMDL
MODEL 2
REMARK VINA RESULT: -8.193734137      0.590      1.237
REMARK  7 active torsions:
REMARK  status: ('A' for Active; 'I' for Inactive)
REMARK    1  A    between atoms: N2_5  and  C3_6 
REMARK    2  A    between atoms: C3_6  and  C4_7 
REMARK    3  A    between atoms: C4_7  and  C5_8 
REMARK    4  A    between atoms: C5_8  and  C6_9 
REMARK    5  A    between atoms: C6_9  and  N3_10 
REMARK    6  A    between atoms: C12_19  and  C13_20 
REMARK    7  A    between atoms: C13_20  and  C14_21 
ROOT
HETATM    1  C1  UNL     1       7.653  17.936  50.933  1.00  0.00     0.045 C 
HETATM    2  C2  UNL     1       6.941  18.981  51.312  1.00  0.00     0.054 A 
HETATM    3  N1  UNL     1       5.603  18.874  51.601  1.00  0.00    -0.296 N 
ATOM      4  H1  UNL     1       5.051  18.017  51.553  1.00  0.00     0.187 HD
HETATM    5  N2  UNL     1       5.154  20.046  51.945  1.00  0.00    -0.257 N 
HETATM    6  C11 UNL     1       6.127  20.951  51.905  1.00  0.00     0.274 A 
HETATM    7  O1  UNL     1       6.040  22.189  52.179  1.00  0.00    -0.266 OA
HETATM    8  C12 UNL     1       7.306  20.280  51.494  1.00  0.00     0.061 A 
ENDROOT
BRANCH   5   9
HETATM    9  C3  UNL     1       3.762  20.350  52.330  1.00  0.00     0.152 C 
BRANCH   9  10
HETATM   10  C4  UNL     1       3.014  20.640  51.068  1.00  0.00     0.023 C 
BRANCH  10  11
HETATM   11  C5  UNL     1       1.815  19.761  50.884  1.00  0.00     0.022 C 
BRANCH  11  12
HETATM   12  C6  UNL     1       2.149  18.530  50.044  1.00  0.00     0.130 C 
BRANCH  12  13
HETATM   13  N3  UNL     1       1.980  18.809  48.641  1.00  0.00    -0.336 N 
HETATM   14  C7  UNL     1       0.830  18.922  47.968  1.00  0.00     0.185 A 
HETATM   15  N4  UNL     1       1.102  19.187  46.678  1.00  0.00    -0.354 N 
HETATM   16  C8  UNL     1       0.139  19.385  45.604  1.00  0.00     0.156 C 
HETATM   17  C9  UNL     1       2.421  19.242  46.522  1.00  0.00     0.128 A 
HETATM   18  C10 UNL     1       2.981  19.001  47.773  1.00  0.00     0.098 A 
HETATM   19 BR1  UNL     1       4.862  18.962  48.132  1.00  0.00    -0.030 Br
ENDBRANCH  12  13
ENDBRANCH  11  12
ENDBRANCH  10  11
ENDBRANCH   9  10
ENDBRANCH   5   9
BRANCH   8  20
HETATM   20  C13 UNL     1       8.453  20.906  51.356  1.00  0.00     0.031 C 
BRANCH  20  21
HETATM   21  C14 UNL     1       8.935  21.583  50.184  1.00  0.00    -0.032 A 
HETATM   22  C15 UNL     1       8.487  22.861  49.823  1.00  0.00     0.014 A 
HETATM   23  C16 UNL     1       8.994  23.518  48.725  1.00  0.00     0.040 A 
HETATM   24  C17 UNL     1       9.969  22.944  47.931  1.00  0.00     0.105 A 
HETATM   25  C18 UNL     1      10.429  21.688  48.259  1.00  0.00     0.105 A 
HETATM   26  O3  UNL     1      10.662  23.327  46.797  1.00  0.00    -0.323 OA
HETATM   27  C19 UNL     1       9.922  21.037  49.355  1.00  0.00     0.051 A 
HETATM   28  O2  UNL     1      11.407  21.316  47.317  1.00  0.00    -0.323 OA
HETATM   29  C20 UNL     1      11.456  22.279  46.307  1.00  0.00     0.352 C 
ENDBRANCH  20  21
ENDBRANCH   8  20
TORSDOF 7
ENDMDL
MODEL 3
REMARK VINA RESULT: -8.172286141      1.077      1.126
REMARK  7 active torsions:
REMARK  status: ('A' for Active; 'I' for Inactive)
REMARK    1  A    between atoms: N2_5  and  C3_6 
REMARK    2  A    between atoms: C3_6  and  C4_7 
REMARK    3  A    between atoms: C4_7  and  C5_8 
REMARK    4  A    between atoms: C5_8  and  C6_9 
REMARK    5  A    between atoms: C6_9  and  N3_10 
REMARK    6  A    between atoms: C12_19  and  C13_20 
REMARK    7  A    between atoms: C13_20  and  C14_21 
ROOT
HETATM    1  C1  UNL     1       7.692  18.054  49.825  1.00  0.00     0.045 C 
HETATM    2  C2  UNL     1       6.954  19.061  50.252  1.00  0.00     0.054 A 
HETATM    3  N1  UNL     1       5.589  18.958  50.362  1.00  0.00    -0.296 N 
ATOM      4  H1  UNL     1       5.035  18.132  50.134  1.00  0.00     0.187 HD
HETATM    5  N2  UNL     1       5.118  20.087  50.805  1.00  0.00    -0.257 N 
HETATM    6  C11 UNL     1       6.101  20.961  51.003  1.00  0.00     0.274 A 
HETATM    7  O1  UNL     1       5.998  22.154  51.428  1.00  0.00    -0.266 OA
HETATM    8  C12 UNL     1       7.312  20.314  50.650  1.00  0.00     0.061 A 
ENDROOT
BRANCH   5   9
HETATM    9  C3  UNL     1       3.693  20.380  51.057  1.00  0.00     0.152 C 
BRANCH   9  10
HETATM   10  C4  UNL     1       2.933  19.125  50.770  1.00  0.00     0.023 C 
BRANCH  10  11
HETATM   11  C5  UNL     1       1.846  19.319  49.757  1.00  0.00     0.022 C 
BRANCH  11  12
HETATM   12  C6  UNL     1       1.717  18.106  48.838  1.00  0.00     0.130 C 
BRANCH  12  13
HETATM   13  N3  UNL     1       2.023  18.463  47.476  1.00  0.00    -0.336 N 
HETATM   14  C7  UNL     1       1.274  19.188  46.639  1.00  0.00     0.185 A 
HETATM   15  N4  UNL     1       1.914  19.295  45.461  1.00  0.00    -0.354 N 
HETATM   16  C8  UNL     1       1.449  20.000  44.274  1.00  0.00     0.156 C 
HETATM   17  C9  UNL     1       3.067  18.639  45.540  1.00  0.00     0.128 A 
HETATM   18  C10 UNL     1       3.137  18.109  46.825  1.00  0.00     0.098 A 
HETATM   19 BR1  UNL     1       4.598  17.062  47.489  1.00  0.00    -0.030 Br
ENDBRANCH  12  13
ENDBRANCH  11  12
ENDBRANCH  10  11
ENDBRANCH   9  10
ENDBRANCH   5   9
BRANCH   8  20
HETATM   20  C13 UNL     1       8.476  20.918  50.735  1.00  0.00     0.031 C 
BRANCH  20  21
HETATM   21  C14 UNL     1       9.227  21.506  49.661  1.00  0.00    -0.032 A 
HETATM   22  C15 UNL     1      10.331  20.866  49.083  1.00  0.00     0.014 A 
HETATM   23  C16 UNL     1      11.010  21.419  48.023  1.00  0.00     0.040 A 
HETATM   24  C17 UNL     1      10.631  22.633  47.480  1.00  0.00     0.105 A 
HETATM   25  C18 UNL     1       9.549  23.288  48.027  1.00  0.00     0.105 A 
HETATM   26  O3  UNL     1      11.088  23.432  46.448  1.00  0.00    -0.323 OA
HETATM   27  C19 UNL     1       8.874  22.732  49.084  1.00  0.00     0.051 A 
HETATM   28  O2  UNL     1       9.355  24.488  47.317  1.00  0.00    -0.323 OA
HETATM   29  C20 UNL     1      10.407  24.660  46.415  1.00  0.00     0.352 C 
ENDBRANCH  20  21
ENDBRANCH   8  20
TORSDOF 7
ENDMDL
MODEL 4
REMARK VINA RESULT: -8.022205073      1.668      2.034
REMARK  7 active torsions:
REMARK  status: ('A' for Active; 'I' for Inactive)
REMARK    1  A    between atoms: N2_5  and  C3_6 
REMARK    2  A    between atoms: C3_6  and  C4_7 
REMARK    3  A    between atoms: C4_7  and  C5_8 
REMARK    4  A    between atoms: C5_8  and  C6_9 
REMARK    5  A    between atoms: C6_9  and  N3_10 
REMARK    6  A    between atoms: C12_19  and  C13_20 
REMARK    7  A    between atoms: C13_20  and  C14_21 
ROOT
HETATM    1  C1  UNL     1       8.012  18.291  49.696  1.00  0.00     0.045 C 
HETATM    2  C2  UNL     1       7.189  19.199  50.187  1.00  0.00     0.054 A 
HETATM    3  N1  UNL     1       5.848  18.947  50.342  1.00  0.00    -0.296 N 
ATOM      4  H1  UNL     1       5.376  18.075  50.103  1.00  0.00     0.187 HD
HETATM    5  N2  UNL     1       5.278  20.004  50.843  1.00  0.00    -0.257 N 
HETATM    6  C11 UNL     1       6.170  20.970  51.039  1.00  0.00     0.274 A 
HETATM    7  O1  UNL     1       5.959  22.131  51.511  1.00  0.00    -0.266 OA
HETATM    8  C12 UNL     1       7.428  20.469  50.618  1.00  0.00     0.061 A 
ENDROOT
BRANCH   5   9
HETATM    9  C3  UNL     1       3.841  20.134  51.157  1.00  0.00     0.152 C 
BRANCH   9  10
HETATM   10  C4  UNL     1       3.104  20.077  49.857  1.00  0.00     0.023 C 
BRANCH  10  11
HETATM   11  C5  UNL     1       2.223  18.871  49.737  1.00  0.00     0.022 C 
BRANCH  11  12
HETATM   12  C6  UNL     1       1.609  18.765  48.343  1.00  0.00     0.130 C 
BRANCH  12  13
HETATM   13  N3  UNL     1       2.566  18.242  47.402  1.00  0.00    -0.336 N 
HETATM   14  C7  UNL     1       3.485  17.295  47.621  1.00  0.00     0.185 A 
HETATM   15  N4  UNL     1       4.181  17.092  46.488  1.00  0.00    -0.354 N 
HETATM   16  C8  UNL     1       5.273  16.149  46.290  1.00  0.00     0.156 C 
HETATM   17  C9  UNL     1       3.713  17.905  45.547  1.00  0.00     0.128 A 
HETATM   18  C10 UNL     1       2.683  18.638  46.129  1.00  0.00     0.098 A 
HETATM   19 BR1  UNL     1       1.648  19.969  45.220  1.00  0.00    -0.030 Br
ENDBRANCH  12  13
ENDBRANCH  11  12
ENDBRANCH  10  11
ENDBRANCH   9  10
ENDBRANCH   5   9
BRANCH   8  20
HETATM   20  C13 UNL     1       8.524  21.191  50.684  1.00  0.00     0.031 C 
BRANCH  20  21
HETATM   21  C14 UNL     1       9.223  21.806  49.590  1.00  0.00    -0.032 A 
HETATM   22  C15 UNL     1      10.333  21.205  48.980  1.00  0.00     0.014 A 
HETATM   23  C16 UNL     1      10.962  21.783  47.902  1.00  0.00     0.040 A 
HETATM   24  C17 UNL     1      10.524  22.981  47.371  1.00  0.00     0.105 A 
HETATM   25  C18 UNL     1       9.435  23.597  47.949  1.00  0.00     0.105 A 
HETATM   26  O3  UNL     1      10.923  23.797  46.328  1.00  0.00    -0.323 OA
HETATM   27  C19 UNL     1       8.811  23.018  49.024  1.00  0.00     0.051 A 
HETATM   28  O2  UNL     1       9.178  24.790  47.246  1.00  0.00    -0.323 OA
HETATM   29  C20 UNL     1      10.198  24.999  46.316  1.00  0.00     0.352 C 
ENDBRANCH  20  21
ENDBRANCH   8  20
TORSDOF 7
ENDMDL
MODEL 5
REMARK VINA RESULT: -8.012102518      1.138      1.197
REMARK  7 active torsions:
REMARK  status: ('A' for Active; 'I' for Inactive)
REMARK    1  A    between atoms: N2_5  and  C3_6 
REMARK    2  A    between atoms: C3_6  and  C4_7 
REMARK    3  A    between atoms: C4_7  and  C5_8 
REMARK    4  A    between atoms: C5_8  and  C6_9 
REMARK    5  A    between atoms: C6_9  and  N3_10 
REMARK    6  A    between atoms: C12_19  and  C13_20 
REMARK    7  A    between atoms: C13_20  and  C14_21 
ROOT
HETATM    1  C1  UNL     1       6.992  18.479  53.039  1.00  0.00     0.045 C 
HETATM    2  C2  UNL     1       6.394  19.463  52.395  1.00  0.00     0.054 A 
HETATM    3  N1  UNL     1       5.032  19.488  52.221  1.00  0.00    -0.296 N 
ATOM      4  H1  UNL     1       4.378  18.780  52.555  1.00  0.00     0.187 HD
HETATM    5  N2  UNL     1       4.713  20.562  51.559  1.00  0.00    -0.257 N 
HETATM    6  C11 UNL     1       5.798  21.275  51.272  1.00  0.00     0.274 A 
HETATM    7  O1  UNL     1       5.852  22.376  50.639  1.00  0.00    -0.266 OA
HETATM    8  C12 UNL     1       6.911  20.579  51.808  1.00  0.00     0.061 A 
ENDROOT
BRANCH   5   9
HETATM    9  C3  UNL     1       3.344  20.952  51.170  1.00  0.00     0.152 C 
BRANCH   9  10
HETATM   10  C4  UNL     1       2.439  19.835  51.581  1.00  0.00     0.023 C 
BRANCH  10  11
HETATM   11  C5  UNL     1       1.700  19.228  50.429  1.00  0.00     0.022 C 
BRANCH  11  12
HETATM   12  C6  UNL     1       2.482  18.070  49.812  1.00  0.00     0.130 C 
BRANCH  12  13
HETATM   13  N3  UNL     1       2.847  18.370  48.450  1.00  0.00    -0.336 N 
HETATM   14  C7  UNL     1       2.027  18.676  47.440  1.00  0.00     0.185 A 
HETATM   15  N4  UNL     1       2.760  18.886  46.332  1.00  0.00    -0.354 N 
HETATM   16  C8  UNL     1       2.264  19.242  45.009  1.00  0.00     0.156 C 
HETATM   17  C9  UNL     1       4.044  18.713  46.629  1.00  0.00     0.128 A 
HETATM   18  C10 UNL     1       4.100  18.385  47.980  1.00  0.00     0.098 A 
HETATM   19 BR1  UNL     1       5.715  18.026  48.944  1.00  0.00    -0.030 Br
ENDBRANCH  12  13
ENDBRANCH  11  12
ENDBRANCH  10  11
ENDBRANCH   9  10
ENDBRANCH   5   9
BRANCH   8  20
HETATM   20  C13 UNL     1       8.139  21.030  51.690  1.00  0.00     0.031 C 
BRANCH  20  21
HETATM   21  C14 UNL     1       8.922  21.107  50.488  1.00  0.00    -0.032 A 
HETATM   22  C15 UNL     1       9.358  19.963  49.806  1.00  0.00     0.014 A 
HETATM   23  C16 UNL     1      10.064  20.053  48.629  1.00  0.00     0.040 A 
HETATM   24  C17 UNL     1      10.373  21.277  48.067  1.00  0.00     0.105 A 
HETATM   25  C18 UNL     1       9.958  22.421  48.714  1.00  0.00     0.105 A 
HETATM   26  O3  UNL     1      11.046  21.695  46.933  1.00  0.00    -0.323 OA
HETATM   27  C19 UNL     1       9.254  22.327  49.887  1.00  0.00     0.051 A 
HETATM   28  O2  UNL     1      10.384  23.532  47.962  1.00  0.00    -0.323 OA
HETATM   29  C20 UNL     1      11.196  23.090  46.915  1.00  0.00     0.352 C 
ENDBRANCH  20  21
ENDBRANCH   8  20
TORSDOF 7
ENDMDL
