MODEL 1
REMARK VINA RESULT: -6.648120713      0.000      0.000
REMARK  9 active torsions:
REMARK  status: ('A' for Active; 'I' for Inactive)
REMARK    1  A    between atoms: C3_4  and  C4_5 
REMARK       I    between atoms: C4_5  and  N2_7 
REMARK    2  A    between atoms: N2_7  and  C5_9 
REMARK    3  A    between atoms: C8_12  and  C9_13 
REMARK    4  A    between atoms: C12_16  and  N3_17 
REMARK    5  A    between atoms: N3_17  and  C13_18 
REMARK    6  A    between atoms: N3_17  and  C15_22 
REMARK    7  A    between atoms: C13_18  and  C14_19 
REMARK    8  A    between atoms: C14_19  and  O2_20 
REMARK    9  A    between atoms: C15_22  and  C16_23 
ROOT
HETATM    1  C5  UNL     1       5.556  21.154  51.926  1.00  0.00     0.122 A 
HETATM    2  C6  UNL     1       5.757  21.365  50.582  1.00  0.00     0.052 A 
HETATM    3  C7  UNL     1       4.973  20.723  49.617  1.00  0.00     0.035 A 
HETATM    4  C8  UNL     1       3.995  19.878  50.042  1.00  0.00     0.058 A 
HETATM    5  N4  UNL     1       3.811  19.682  51.359  1.00  0.00    -0.298 N 
ATOM      6  H4  UNL     1       3.076  19.047  51.668  1.00  0.00     0.187 HD
HETATM    7  N5  UNL     1       4.552  20.288  52.259  1.00  0.00    -0.285 N 
ATOM      8  H5  UNL     1       4.372  20.104  53.246  1.00  0.00     0.188 HD
ENDROOT
BRANCH   4   9
HETATM    9  C9  UNL     1       3.127  19.178  49.082  1.00  0.00    -0.008 A 
HETATM   10  C10 UNL     1       1.773  19.200  49.255  1.00  0.00     0.016 A 
HETATM   11  C11 UNL     1       0.914  18.552  48.385  1.00  0.00     0.030 A 
HETATM   12  C12 UNL     1       1.383  17.848  47.297  1.00  0.00     0.030 A 
HETATM   13  C17 UNL     1       2.773  17.831  47.130  1.00  0.00     0.030 A 
HETATM   14  C18 UNL     1       3.615  18.482  48.006  1.00  0.00     0.016 A 
BRANCH  12  15
HETATM   15  N3  UNL     1       0.514  17.160  46.404  1.00  0.00    -0.378 N 
BRANCH  15  16
HETATM   16  C13 UNL     1      -0.421  16.198  46.972  1.00  0.00     0.149 C 
BRANCH  16  17
HETATM   17  C14 UNL     1      -1.854  16.466  46.686  1.00  0.00     0.183 C 
BRANCH  17  18
HETATM   18  O2  UNL     1      -2.315  17.666  47.175  1.00  0.00    -0.399 OA
ATOM     19  H2  UNL     1      -2.985  17.585  47.843  1.00  0.00     0.209 HD
ENDBRANCH  17  18
ENDBRANCH  16  17
ENDBRANCH  15  16
BRANCH  15  20
HETATM   20  C15 UNL     1       0.518  17.418  44.987  1.00  0.00     0.134 C 
BRANCH  20  21
HETATM   21  C16 UNL     1       0.087  18.847  44.685  1.00  0.00     0.105 C 
HETATM   22 BR1  UNL     1       1.597  19.946  44.189  1.00  0.00    -0.095 Br
ENDBRANCH  20  21
ENDBRANCH  15  20
ENDBRANCH  12  15
ENDBRANCH   4   9
BRANCH   1  23
HETATM   23  N2  UNL     1       6.247  21.710  52.862  1.00  0.00    -0.310 N 
HETATM   24  C4  UNL     1       5.927  21.782  54.225  1.00  0.00     0.258 C 
HETATM   25  O1  UNL     1       4.777  22.159  54.565  1.00  0.00    -0.271 OA
ATOM     26  H2  UNL     1       7.124  22.147  52.580  1.00  0.00     0.170 HD
BRANCH  24  27
HETATM   27  C3  UNL     1       6.847  21.441  55.323  1.00  0.00     0.344 C 
HETATM   28  C2  UNL     1       6.705  22.398  56.496  1.00  0.00     0.320 C 
HETATM   29  N1  UNL     1       5.901  21.738  57.491  1.00  0.00     0.115 N 
HETATM   30  C1  UNL     1       6.679  21.556  58.690  1.00  0.00     0.312 C 
HETATM   31  C20 UNL     1       5.562  20.441  56.958  1.00  0.00     0.542 C 
HETATM   32  N6  UNL     1       6.566  20.190  55.979  1.00  0.00     0.127 N 
HETATM   33  C19 UNL     1       6.386  19.065  55.137  1.00  0.00     0.313 C 
ENDBRANCH  24  27
ENDBRANCH   1  23
TORSDOF 9
ENDMDL
MODEL 2
REMARK VINA RESULT: -6.543319610      1.648      2.206
REMARK  9 active torsions:
REMARK  status: ('A' for Active; 'I' for Inactive)
REMARK    1  A    between atoms: C3_4  and  C4_5 
REMARK       I    between atoms: C4_5  and  N2_7 
REMARK    2  A    between atoms: N2_7  and  C5_9 
REMARK    3  A    between atoms: C8_12  and  C9_13 
REMARK    4  A    between atoms: C12_16  and  N3_17 
REMARK    5  A    between atoms: N3_17  and  C13_18 
REMARK    6  A    between atoms: N3_17  and  C15_22 
REMARK    7  A    between atoms: C13_18  and  C14_19 
REMARK    8  A    between atoms: C14_19  and  O2_20 
REMARK    9  A    between atoms: C15_22  and  C16_23 
ROOT
HETATM    1  C5  UNL     1       5.808  21.295  52.216  1.00  0.00     0.122 A 
HETATM    2  C6  UNL     1       6.097  21.449  50.881  1.00  0.00     0.052 A 
HETATM    3  C7  UNL     1       5.260  20.929  49.888  1.00  0.00     0.035 A 
HETATM    4  C8  UNL     1       4.140  20.261  50.277  1.00  0.00     0.058 A 
HETATM    5  N4  UNL     1       3.871  20.118  51.586  1.00  0.00    -0.298 N 
ATOM      6  H4  UNL     1       3.030  19.616  51.868  1.00  0.00     0.187 HD
HETATM    7  N5  UNL     1       4.663  20.609  52.512  1.00  0.00    -0.285 N 
ATOM      8  H5  UNL     1       4.414  20.473  53.492  1.00  0.00     0.188 HD
ENDROOT
BRANCH   4   9
HETATM    9  C9  UNL     1       3.211  19.697  49.285  1.00  0.00    -0.008 A 
HETATM   10  C10 UNL     1       3.650  19.443  48.016  1.00  0.00     0.016 A 
HETATM   11  C11 UNL     1       2.814  18.920  47.045  1.00  0.00     0.030 A 
HETATM   12  C12 UNL     1       1.493  18.630  47.308  1.00  0.00     0.030 A 
HETATM   13  C17 UNL     1       1.054  18.895  48.611  1.00  0.00     0.030 A 
HETATM   14  C18 UNL     1       1.900  19.416  49.568  1.00  0.00     0.016 A 
BRANCH  12  15
HETATM   15  N3  UNL     1       0.616  18.110  46.315  1.00  0.00    -0.378 N 
BRANCH  15  16
HETATM   16  C13 UNL     1       1.083  18.099  44.935  1.00  0.00     0.149 C 
BRANCH  16  17
HETATM   17  C14 UNL     1       0.576  19.209  44.088  1.00  0.00     0.183 C 
BRANCH  17  18
HETATM   18  O2  UNL     1       1.355  20.343  44.114  1.00  0.00    -0.399 OA
ATOM     19  H2  UNL     1       1.179  20.955  43.410  1.00  0.00     0.209 HD
ENDBRANCH  17  18
ENDBRANCH  16  17
ENDBRANCH  15  16
BRANCH  15  20
HETATM   20  C15 UNL     1      -0.680  17.576  46.647  1.00  0.00     0.134 C 
BRANCH  20  21
HETATM   21  C16 UNL     1      -0.741  16.077  46.386  1.00  0.00     0.105 C 
HETATM   22 BR1  UNL     1       0.257  15.091  47.715  1.00  0.00    -0.095 Br
ENDBRANCH  20  21
ENDBRANCH  15  20
ENDBRANCH  12  15
ENDBRANCH   4   9
BRANCH   1  23
HETATM   23  N2  UNL     1       6.541  21.745  53.178  1.00  0.00    -0.310 N 
HETATM   24  C4  UNL     1       6.180  21.889  54.524  1.00  0.00     0.258 C 
HETATM   25  O1  UNL     1       5.094  22.454  54.810  1.00  0.00    -0.271 OA
ATOM     26  H2  UNL     1       7.489  22.029  52.930  1.00  0.00     0.170 HD
BRANCH  24  27
HETATM   27  C3  UNL     1       6.985  21.420  55.665  1.00  0.00     0.344 C 
HETATM   28  C2  UNL     1       6.888  22.366  56.851  1.00  0.00     0.320 C 
HETATM   29  N1  UNL     1       5.953  21.791  57.782  1.00  0.00     0.115 N 
HETATM   30  C1  UNL     1       6.630  21.494  59.018  1.00  0.00     0.312 C 
HETATM   31  C20 UNL     1       5.493  20.554  57.197  1.00  0.00     0.542 C 
HETATM   32  N6  UNL     1       6.517  20.200  56.272  1.00  0.00     0.127 N 
HETATM   33  C19 UNL     1       6.255  19.121  55.393  1.00  0.00     0.313 C 
ENDBRANCH  24  27
ENDBRANCH   1  23
TORSDOF 9
ENDMDL
MODEL 3
REMARK VINA RESULT: -6.442355718      4.226      5.673
REMARK  9 active torsions:
REMARK  status: ('A' for Active; 'I' for Inactive)
REMARK    1  A    between atoms: C3_4  and  C4_5 
REMARK       I    between atoms: C4_5  and  N2_7 
REMARK    2  A    between atoms: N2_7  and  C5_9 
REMARK    3  A    between atoms: C8_12  and  C9_13 
REMARK    4  A    between atoms: C12_16  and  N3_17 
REMARK    5  A    between atoms: N3_17  and  C13_18 
REMARK    6  A    between atoms: N3_17  and  C15_22 
REMARK    7  A    between atoms: C13_18  and  C14_19 
REMARK    8  A    between atoms: C14_19  and  O2_20 
REMARK    9  A    between atoms: C15_22  and  C16_23 
ROOT
HETATM    1  C5  UNL     1       7.580  20.483  49.559  1.00  0.00     0.122 A 
HETATM    2  C6  UNL     1       6.405  21.145  49.822  1.00  0.00     0.052 A 
HETATM    3  C7  UNL     1       5.166  20.604  49.462  1.00  0.00     0.035 A 
HETATM    4  C8  UNL     1       5.149  19.395  48.840  1.00  0.00     0.058 A 
HETATM    5  N4  UNL     1       6.307  18.760  48.590  1.00  0.00    -0.298 N 
ATOM      6  H4  UNL     1       6.284  17.853  48.123  1.00  0.00     0.187 HD
HETATM    7  N5  UNL     1       7.466  19.275  48.930  1.00  0.00    -0.285 N 
ATOM      8  H5  UNL     1       8.316  18.752  48.716  1.00  0.00     0.188 HD
ENDROOT
BRANCH   4   9
HETATM    9  C9  UNL     1       3.880  18.764  48.443  1.00  0.00    -0.008 A 
HETATM   10  C10 UNL     1       3.900  17.588  47.747  1.00  0.00     0.016 A 
HETATM   11  C11 UNL     1       2.735  16.958  47.344  1.00  0.00     0.030 A 
HETATM   12  C12 UNL     1       1.494  17.487  47.623  1.00  0.00     0.030 A 
HETATM   13  C17 UNL     1       1.486  18.692  48.335  1.00  0.00     0.030 A 
HETATM   14  C18 UNL     1       2.655  19.307  48.731  1.00  0.00     0.016 A 
BRANCH  12  15
HETATM   15  N3  UNL     1       0.288  16.862  47.198  1.00  0.00    -0.378 N 
BRANCH  15  16
HETATM   16  C13 UNL     1      -0.073  15.592  47.814  1.00  0.00     0.149 C 
BRANCH  16  17
HETATM   17  C14 UNL     1      -1.445  15.110  47.510  1.00  0.00     0.183 C 
BRANCH  17  18
HETATM   18  O2  UNL     1      -2.366  15.360  48.500  1.00  0.00    -0.399 OA
ATOM     19  H2  UNL     1      -2.680  14.583  48.948  1.00  0.00     0.209 HD
ENDBRANCH  17  18
ENDBRANCH  16  17
ENDBRANCH  15  16
BRANCH  15  20
HETATM   20  C15 UNL     1      -0.579  17.465  46.219  1.00  0.00     0.134 C 
BRANCH  20  21
HETATM   21  C16 UNL     1       0.083  17.509  44.849  1.00  0.00     0.105 C 
HETATM   22 BR1  UNL     1       0.870  19.240  44.503  1.00  0.00    -0.095 Br
ENDBRANCH  20  21
ENDBRANCH  15  20
ENDBRANCH  12  15
ENDBRANCH   4   9
BRANCH   1  23
HETATM   23  N2  UNL     1       8.752  20.930  49.860  1.00  0.00    -0.310 N 
HETATM   24  C4  UNL     1       9.912  20.866  49.077  1.00  0.00     0.258 C 
HETATM   25  O1  UNL     1      10.238  19.771  48.553  1.00  0.00    -0.271 OA
ATOM     26  H2  UNL     1       8.845  21.380  50.771  1.00  0.00     0.170 HD
BRANCH  24  27
HETATM   27  C3  UNL     1      10.807  22.004  48.806  1.00  0.00     0.344 C 
HETATM   28  C2  UNL     1      11.139  22.121  47.327  1.00  0.00     0.320 C 
HETATM   29  N1  UNL     1      10.302  23.157  46.781  1.00  0.00     0.115 N 
HETATM   30  C1  UNL     1      11.128  24.232  46.294  1.00  0.00     0.312 C 
HETATM   31  C20 UNL     1       9.491  23.652  47.868  1.00  0.00     0.542 C 
HETATM   32  N6  UNL     1      10.222  23.300  49.039  1.00  0.00     0.127 N 
HETATM   33  C19 UNL     1       9.576  23.483  50.287  1.00  0.00     0.313 C 
ENDBRANCH  24  27
ENDBRANCH   1  23
TORSDOF 9
ENDMDL
MODEL 4
REMARK VINA RESULT: -6.365388284      4.442      5.915
REMARK  9 active torsions:
REMARK  status: ('A' for Active; 'I' for Inactive)
REMARK    1  A    between atoms: C3_4  and  C4_5 
REMARK       I    between atoms: C4_5  and  N2_7 
REMARK    2  A    between atoms: N2_7  and  C5_9 
REMARK    3  A    between atoms: C8_12  and  C9_13 
REMARK    4  A    between atoms: C12_16  and  N3_17 
REMARK    5  A    between atoms: N3_17  and  C13_18 
REMARK    6  A    between atoms: N3_17  and  C15_22 
REMARK    7  A    between atoms: C13_18  and  C14_19 
REMARK    8  A    between atoms: C14_19  and  O2_20 
REMARK    9  A    between atoms: C15_22  and  C16_23 
ROOT
HETATM    1  C5  UNL     1       7.533  20.610  49.605  1.00  0.00     0.122 A 
HETATM    2  C6  UNL     1       6.348  21.211  49.959  1.00  0.00     0.052 A 
HETATM    3  C7  UNL     1       5.114  20.671  49.582  1.00  0.00     0.035 A 
HETATM    4  C8  UNL     1       5.111  19.525  48.849  1.00  0.00     0.058 A 
HETATM    5  N4  UNL     1       6.277  18.949  48.510  1.00  0.00    -0.298 N 
ATOM      6  H4  UNL     1       6.265  18.090  47.961  1.00  0.00     0.187 HD
HETATM    7  N5  UNL     1       7.432  19.463  48.868  1.00  0.00    -0.285 N 
ATOM      8  H5  UNL     1       8.289  18.986  48.585  1.00  0.00     0.188 HD
ENDROOT
BRANCH   4   9
HETATM    9  C9  UNL     1       3.848  18.898  48.427  1.00  0.00    -0.008 A 
HETATM   10  C10 UNL     1       2.976  18.435  49.370  1.00  0.00     0.016 A 
HETATM   11  C11 UNL     1       1.779  17.831  49.025  1.00  0.00     0.030 A 
HETATM   12  C12 UNL     1       1.407  17.664  47.709  1.00  0.00     0.030 A 
HETATM   13  C17 UNL     1       2.309  18.141  46.751  1.00  0.00     0.030 A 
HETATM   14  C18 UNL     1       3.498  18.742  47.111  1.00  0.00     0.016 A 
BRANCH  12  15
HETATM   15  N3  UNL     1       0.189  17.027  47.338  1.00  0.00    -0.378 N 
BRANCH  15  16
HETATM   16  C13 UNL     1      -0.766  17.794  46.551  1.00  0.00     0.149 C 
BRANCH  16  17
HETATM   17  C14 UNL     1      -1.144  19.112  47.125  1.00  0.00     0.183 C 
BRANCH  17  18
HETATM   18  O2  UNL     1      -2.453  19.196  47.537  1.00  0.00    -0.399 OA
ATOM     19  H2  UNL     1      -2.573  19.131  48.477  1.00  0.00     0.209 HD
ENDBRANCH  17  18
ENDBRANCH  16  17
ENDBRANCH  15  16
BRANCH  15  20
HETATM   20  C15 UNL     1      -0.092  15.659  47.689  1.00  0.00     0.134 C 
BRANCH  20  21
HETATM   21  C16 UNL     1      -1.525  15.283  47.337  1.00  0.00     0.105 C 
HETATM   22 BR1  UNL     1      -2.352  14.264  48.756  1.00  0.00    -0.095 Br
ENDBRANCH  20  21
ENDBRANCH  15  20
ENDBRANCH  12  15
ENDBRANCH   4   9
BRANCH   1  23
HETATM   23  N2  UNL     1       8.701  21.059  49.917  1.00  0.00    -0.310 N 
HETATM   24  C4  UNL     1       9.896  20.880  49.209  1.00  0.00     0.258 C 
HETATM   25  O1  UNL     1      10.215  19.726  48.827  1.00  0.00    -0.271 OA
ATOM     26  H2  UNL     1       8.761  21.607  50.776  1.00  0.00     0.170 HD
BRANCH  24  27
HETATM   27  C3  UNL     1      10.837  21.959  48.861  1.00  0.00     0.344 C 
HETATM   28  C2  UNL     1      11.177  21.955  47.380  1.00  0.00     0.320 C 
HETATM   29  N1  UNL     1      10.384  22.982  46.756  1.00  0.00     0.115 N 
HETATM   30  C1  UNL     1      11.254  23.985  46.198  1.00  0.00     0.312 C 
HETATM   31  C20 UNL     1       9.592  23.586  47.800  1.00  0.00     0.542 C 
HETATM   32  N6  UNL     1      10.305  23.291  48.998  1.00  0.00     0.127 N 
HETATM   33  C19 UNL     1       9.664  23.589  50.226  1.00  0.00     0.313 C 
ENDBRANCH  24  27
ENDBRANCH   1  23
TORSDOF 9
ENDMDL
MODEL 5
REMARK VINA RESULT: -6.350689945      4.197      5.631
REMARK  9 active torsions:
REMARK  status: ('A' for Active; 'I' for Inactive)
REMARK    1  A    between atoms: C3_4  and  C4_5 
REMARK       I    between atoms: C4_5  and  N2_7 
REMARK    2  A    between atoms: N2_7  and  C5_9 
REMARK    3  A    between atoms: C8_12  and  C9_13 
REMARK    4  A    between atoms: C12_16  and  N3_17 
REMARK    5  A    between atoms: N3_17  and  C13_18 
REMARK    6  A    between atoms: N3_17  and  C15_22 
REMARK    7  A    between atoms: C13_18  and  C14_19 
REMARK    8  A    between atoms: C14_19  and  O2_20 
REMARK    9  A    between atoms: C15_22  and  C16_23 
ROOT
HETATM    1  C5  UNL     1       7.204  20.563  49.575  1.00  0.00     0.122 A 
HETATM    2  C6  UNL     1       6.035  21.158  49.986  1.00  0.00     0.052 A 
HETATM    3  C7  UNL     1       4.790  20.719  49.522  1.00  0.00     0.035 A 
HETATM    4  C8  UNL     1       4.760  19.678  48.647  1.00  0.00     0.058 A 
HETATM    5  N4  UNL     1       5.912  19.107  48.255  1.00  0.00    -0.298 N 
ATOM      6  H4  UNL     1       5.880  18.327  47.599  1.00  0.00     0.187 HD
HETATM    7  N5  UNL     1       7.077  19.526  48.694  1.00  0.00    -0.285 N 
ATOM      8  H5  UNL     1       7.922  19.057  48.365  1.00  0.00     0.188 HD
ENDROOT
BRANCH   4   9
HETATM    9  C9  UNL     1       3.485  19.160  48.128  1.00  0.00    -0.008 A 
HETATM   10  C10 UNL     1       3.260  19.148  46.780  1.00  0.00     0.016 A 
HETATM   11  C11 UNL     1       2.075  18.678  46.242  1.00  0.00     0.030 A 
HETATM   12  C12 UNL     1       1.059  18.198  47.039  1.00  0.00     0.030 A 
HETATM   13  C17 UNL     1       1.300  18.216  48.418  1.00  0.00     0.030 A 
HETATM   14  C18 UNL     1       2.487  18.687  48.939  1.00  0.00     0.016 A 
BRANCH  12  15
HETATM   15  N3  UNL     1      -0.173  17.730  46.502  1.00  0.00    -0.378 N 
BRANCH  15  16
HETATM   16  C13 UNL     1      -1.406  18.210  47.109  1.00  0.00     0.149 C 
BRANCH  16  17
HETATM   17  C14 UNL     1      -2.527  17.235  47.119  1.00  0.00     0.183 C 
BRANCH  17  18
HETATM   18  O2  UNL     1      -3.638  17.656  47.813  1.00  0.00    -0.399 OA
ATOM     19  H2  UNL     1      -4.061  16.976  48.324  1.00  0.00     0.209 HD
ENDBRANCH  17  18
ENDBRANCH  16  17
ENDBRANCH  15  16
BRANCH  15  20
HETATM   20  C15 UNL     1      -0.221  16.838  45.371  1.00  0.00     0.134 C 
BRANCH  20  21
HETATM   21  C16 UNL     1       0.346  15.469  45.725  1.00  0.00     0.105 C 
HETATM   22 BR1  UNL     1       2.042  15.163  44.849  1.00  0.00    -0.095 Br
ENDBRANCH  20  21
ENDBRANCH  15  20
ENDBRANCH  12  15
ENDBRANCH   4   9
BRANCH   1  23
HETATM   23  N2  UNL     1       8.381  20.924  49.961  1.00  0.00    -0.310 N 
HETATM   24  C4  UNL     1       9.600  20.665  49.321  1.00  0.00     0.258 C 
HETATM   25  O1  UNL     1       9.857  19.494  48.943  1.00  0.00    -0.271 OA
ATOM     26  H2  UNL     1       8.429  21.457  50.829  1.00  0.00     0.170 HD
BRANCH  24  27
HETATM   27  C3  UNL     1      10.635  21.676  49.044  1.00  0.00     0.344 C 
HETATM   28  C2  UNL     1      11.075  21.649  47.590  1.00  0.00     0.320 C 
HETATM   29  N1  UNL     1      10.400  22.728  46.917  1.00  0.00     0.115 N 
HETATM   30  C1  UNL     1      11.374  23.668  46.425  1.00  0.00     0.312 C 
HETATM   31  C20 UNL     1       9.581  23.386  47.907  1.00  0.00     0.542 C 
HETATM   32  N6  UNL     1      10.187  23.042  49.150  1.00  0.00     0.127 N 
HETATM   33  C19 UNL     1       9.485  23.384  50.332  1.00  0.00     0.313 C 
ENDBRANCH  24  27
ENDBRANCH   1  23
TORSDOF 9
ENDMDL
