MODEL 1
REMARK VINA RESULT: -8.163472125      0.000      0.000
REMARK  8 active torsions:
REMARK  status: ('A' for Active; 'I' for Inactive)
REMARK    1  A    between atoms: C3_3  and  N1_4 
REMARK    2  A    between atoms: N1_4  and  C4_5 
REMARK    3  A    between atoms: N1_4  and  C13_17 
REMARK    4  A    between atoms: C4_5  and  C5_6 
REMARK    5  A    between atoms: C5_6  and  S1_7 
REMARK    6  A    between atoms: S1_7  and  C6_9 
REMARK    7  A    between atoms: C6_9  and  C7_10 
REMARK    8  A    between atoms: C14_18  and  N2_19 
ROOT
HETATM    1  C1  UNL     1       6.426  17.174  49.007  1.00  0.00     0.014 C 
HETATM    2  C2  UNL     1       6.030  17.727  49.999  1.00  0.00    -0.098 C 
HETATM    3  C3  UNL     1       5.547  18.409  51.173  1.00  0.00     0.216 C 
ENDROOT
BRANCH   3   4
HETATM    4  N1  UNL     1       5.529  19.877  51.019  1.00  0.00    -0.362 N 
BRANCH   4   5
HETATM    5  C4  UNL     1       4.953  20.334  49.800  1.00  0.00     0.137 C 
BRANCH   5   6
HETATM    6  C5  UNL     1       3.569  20.965  49.963  1.00  0.00     0.129 C 
BRANCH   6   7
HETATM    7  S1  UNL     1       2.424  19.644  49.721  1.00  0.00     0.020 S 
HETATM    8  O1  UNL     1       1.957  18.913  51.136  1.00  0.00    -0.258 OA
BRANCH   7   9
HETATM    9  C6  UNL     1       2.786  18.555  48.423  1.00  0.00     0.149 C 
BRANCH   9  10
HETATM   10  C7  UNL     1       2.090  18.830  47.157  1.00  0.00    -0.025 A 
HETATM   11  C8  UNL     1       0.761  19.084  47.031  1.00  0.00     0.010 A 
HETATM   12  C9  UNL     1       0.156  19.371  45.809  1.00  0.00     0.001 A 
HETATM   13  C10 UNL     1       0.905  19.407  44.685  1.00  0.00     0.002 A 
HETATM   14  C11 UNL     1       2.251  19.159  44.758  1.00  0.00     0.024 A 
HETATM   15  C12 UNL     1       2.833  18.875  45.970  1.00  0.00     0.041 A 
HETATM   16 CL1  UNL     1       4.543  18.567  46.009  1.00  0.00    -0.084 Cl
ENDBRANCH   9  10
ENDBRANCH   7   9
ENDBRANCH   6   7
ENDBRANCH   5   6
ENDBRANCH   4   5
BRANCH   4  17
HETATM   17  C13 UNL     1       6.054  20.611  52.080  1.00  0.00     0.145 A 
HETATM   18  C14 UNL     1       7.333  21.099  52.071  1.00  0.00     0.154 A 
HETATM   19  N3  UNL     1       7.793  21.853  53.131  1.00  0.00    -0.292 N 
HETATM   20  C19 UNL     1       6.992  22.106  54.169  1.00  0.00     0.328 A 
ATOM     21  H3  UNL     1       8.746  22.218  53.122  1.00  0.00     0.172 HD
HETATM   22  O4  UNL     1       7.475  22.809  55.120  1.00  0.00    -0.247 OA
HETATM   23  N4  UNL     1       5.733  21.645  54.220  1.00  0.00    -0.273 N 
HETATM   24  C20 UNL     1       5.265  20.913  53.201  1.00  0.00     0.279 A 
ATOM     25  H4  UNL     1       5.141  21.851  55.025  1.00  0.00     0.173 HD
HETATM   26  O5  UNL     1       4.081  20.458  53.208  1.00  0.00    -0.265 OA
BRANCH  18  27
HETATM   27  N2  UNL     1       8.196  20.805  51.001  1.00  0.00    -0.227 N 
HETATM   28  C15 UNL     1       8.971  19.633  50.877  1.00  0.00     0.256 A 
HETATM   29  O2  UNL     1       9.001  18.688  51.687  1.00  0.00    -0.268 OA
HETATM   30  C16 UNL     1       9.743  19.704  49.640  1.00  0.00     0.080 A 
HETATM   31  C17 UNL     1       9.462  20.849  49.038  1.00  0.00     0.080 A 
HETATM   32  C18 UNL     1       8.479  21.591  49.865  1.00  0.00     0.256 A 
HETATM   33  O3  UNL     1       8.056  22.717  49.502  1.00  0.00    -0.268 OA
ENDBRANCH  18  27
ENDBRANCH   4  17
ENDBRANCH   3   4
TORSDOF 8
ENDMDL
MODEL 2
REMARK VINA RESULT: -8.139021837      1.279      2.018
REMARK  8 active torsions:
REMARK  status: ('A' for Active; 'I' for Inactive)
REMARK    1  A    between atoms: C3_3  and  N1_4 
REMARK    2  A    between atoms: N1_4  and  C4_5 
REMARK    3  A    between atoms: N1_4  and  C13_17 
REMARK    4  A    between atoms: C4_5  and  C5_6 
REMARK    5  A    between atoms: C5_6  and  S1_7 
REMARK    6  A    between atoms: S1_7  and  C6_9 
REMARK    7  A    between atoms: C6_9  and  C7_10 
REMARK    8  A    between atoms: C14_18  and  N2_19 
ROOT
HETATM    1  C1  UNL     1       1.710  20.521  50.763  1.00  0.00     0.014 C 
HETATM    2  C2  UNL     1       2.877  20.766  50.608  1.00  0.00    -0.098 C 
HETATM    3  C3  UNL     1       4.282  21.036  50.429  1.00  0.00     0.216 C 
ENDROOT
BRANCH   3   4
HETATM    4  N1  UNL     1       5.145  20.166  51.253  1.00  0.00    -0.362 N 
BRANCH   4   5
HETATM    5  C4  UNL     1       5.201  18.812  50.819  1.00  0.00     0.137 C 
BRANCH   5   6
HETATM    6  C5  UNL     1       5.506  18.648  49.328  1.00  0.00     0.129 C 
BRANCH   6   7
HETATM    7  S1  UNL     1       4.182  17.673  48.687  1.00  0.00     0.020 S 
HETATM    8  O1  UNL     1       3.873  16.314  49.587  1.00  0.00    -0.258 OA
BRANCH   7   9
HETATM    9  C6  UNL     1       4.182  17.427  46.972  1.00  0.00     0.149 C 
BRANCH   9  10
HETATM   10  C7  UNL     1       3.248  18.272  46.213  1.00  0.00    -0.025 A 
HETATM   11  C8  UNL     1       2.538  19.311  46.725  1.00  0.00     0.010 A 
HETATM   12  C9  UNL     1       1.689  20.103  45.954  1.00  0.00     0.001 A 
HETATM   13  C10 UNL     1       1.553  19.846  44.634  1.00  0.00     0.002 A 
HETATM   14  C11 UNL     1       2.248  18.810  44.069  1.00  0.00     0.024 A 
HETATM   15  C12 UNL     1       3.079  18.037  44.843  1.00  0.00     0.041 A 
HETATM   16 CL1  UNL     1       3.939  16.734  44.078  1.00  0.00    -0.084 Cl
ENDBRANCH   9  10
ENDBRANCH   7   9
ENDBRANCH   6   7
ENDBRANCH   5   6
ENDBRANCH   4   5
BRANCH   4  17
HETATM   17  C13 UNL     1       5.794  20.780  52.321  1.00  0.00     0.145 A 
HETATM   18  C14 UNL     1       7.104  21.170  52.256  1.00  0.00     0.154 A 
HETATM   19  N3  UNL     1       7.689  21.810  53.329  1.00  0.00    -0.292 N 
HETATM   20  C19 UNL     1       6.978  22.049  54.434  1.00  0.00     0.328 A 
ATOM     21  H3  UNL     1       8.666  22.102  53.278  1.00  0.00     0.172 HD
HETATM   22  O4  UNL     1       7.576  22.643  55.394  1.00  0.00    -0.247 OA
HETATM   23  N4  UNL     1       5.693  21.681  54.542  1.00  0.00    -0.273 N 
HETATM   24  C20 UNL     1       5.104  21.060  53.511  1.00  0.00     0.279 A 
ATOM     25  H4  UNL     1       5.171  21.873  55.397  1.00  0.00     0.173 HD
HETATM   26  O5  UNL     1       3.890  20.697  53.570  1.00  0.00    -0.265 OA
BRANCH  18  27
HETATM   27  N2  UNL     1       7.871  20.889  51.112  1.00  0.00    -0.227 N 
HETATM   28  C15 UNL     1       8.594  19.700  50.887  1.00  0.00     0.256 A 
HETATM   29  O2  UNL     1       8.655  18.725  51.660  1.00  0.00    -0.268 OA
HETATM   30  C16 UNL     1       9.269  19.792  49.596  1.00  0.00     0.080 A 
HETATM   31  C17 UNL     1       8.981  20.966  49.058  1.00  0.00     0.080 A 
HETATM   32  C18 UNL     1       8.091  21.707  49.984  1.00  0.00     0.256 A 
HETATM   33  O3  UNL     1       7.679  22.858  49.694  1.00  0.00    -0.268 OA
ENDBRANCH  18  27
ENDBRANCH   4  17
ENDBRANCH   3   4
TORSDOF 8
ENDMDL
MODEL 3
REMARK VINA RESULT: -8.081319796      2.170      3.929
REMARK  8 active torsions:
REMARK  status: ('A' for Active; 'I' for Inactive)
REMARK    1  A    between atoms: C3_3  and  N1_4 
REMARK    2  A    between atoms: N1_4  and  C4_5 
REMARK    3  A    between atoms: N1_4  and  C13_17 
REMARK    4  A    between atoms: C4_5  and  C5_6 
REMARK    5  A    between atoms: C5_6  and  S1_7 
REMARK    6  A    between atoms: S1_7  and  C6_9 
REMARK    7  A    between atoms: C6_9  and  C7_10 
REMARK    8  A    between atoms: C14_18  and  N2_19 
ROOT
HETATM    1  C1  UNL     1       2.037  20.412  52.364  1.00  0.00     0.014 C 
HETATM    2  C2  UNL     1       2.952  20.578  51.601  1.00  0.00    -0.098 C 
HETATM    3  C3  UNL     1       4.050  20.752  50.682  1.00  0.00     0.216 C 
ENDROOT
BRANCH   3   4
HETATM    4  N1  UNL     1       4.959  19.591  50.646  1.00  0.00    -0.362 N 
BRANCH   4   5
HETATM    5  C4  UNL     1       4.314  18.332  50.803  1.00  0.00     0.137 C 
BRANCH   5   6
HETATM    6  C5  UNL     1       4.030  17.609  49.485  1.00  0.00     0.129 C 
BRANCH   6   7
HETATM    7  S1  UNL     1       2.271  17.530  49.367  1.00  0.00     0.020 S 
HETATM    8  O1  UNL     1       1.715  16.063  48.827  1.00  0.00    -0.258 OA
BRANCH   7   9
HETATM    9  C6  UNL     1       1.495  18.908  48.660  1.00  0.00     0.149 C 
BRANCH   9  10
HETATM   10  C7  UNL     1       1.596  19.008  47.197  1.00  0.00    -0.025 A 
HETATM   11  C8  UNL     1       2.753  18.952  46.485  1.00  0.00     0.010 A 
HETATM   12  C9  UNL     1       2.791  19.019  45.094  1.00  0.00     0.001 A 
HETATM   13  C10 UNL     1       1.638  19.142  44.399  1.00  0.00     0.002 A 
HETATM   14  C11 UNL     1       0.445  19.201  45.070  1.00  0.00     0.024 A 
HETATM   15  C12 UNL     1       0.423  19.136  46.442  1.00  0.00     0.041 A 
HETATM   16 CL1  UNL     1      -1.116  19.216  47.245  1.00  0.00    -0.084 Cl
ENDBRANCH   9  10
ENDBRANCH   7   9
ENDBRANCH   6   7
ENDBRANCH   5   6
ENDBRANCH   4   5
BRANCH   4  17
HETATM   17  C13 UNL     1       6.308  19.875  50.449  1.00  0.00     0.145 A 
HETATM   18  C14 UNL     1       7.177  20.064  51.490  1.00  0.00     0.154 A 
HETATM   19  N3  UNL     1       8.513  20.306  51.240  1.00  0.00    -0.292 N 
HETATM   20  C19 UNL     1       8.959  20.357  49.983  1.00  0.00     0.328 A 
ATOM     21  H3  UNL     1       9.160  20.444  52.017  1.00  0.00     0.172 HD
HETATM   22  O4  UNL     1      10.205  20.586  49.816  1.00  0.00    -0.247 OA
HETATM   23  N4  UNL     1       8.143  20.181  48.933  1.00  0.00    -0.273 N 
HETATM   24  C20 UNL     1       6.842  19.943  49.152  1.00  0.00     0.279 A 
ATOM     25  H4  UNL     1       8.507  20.227  47.982  1.00  0.00     0.173 HD
HETATM   26  O5  UNL     1       6.035  19.769  48.190  1.00  0.00    -0.265 OA
BRANCH  18  27
HETATM   27  N2  UNL     1       6.709  20.050  52.815  1.00  0.00    -0.227 N 
HETATM   28  C15 UNL     1       6.683  18.919  53.658  1.00  0.00     0.256 A 
HETATM   29  O2  UNL     1       7.073  17.776  53.358  1.00  0.00    -0.268 OA
HETATM   30  C16 UNL     1       6.117  19.303  54.948  1.00  0.00     0.080 A 
HETATM   31  C17 UNL     1       5.812  20.590  54.903  1.00  0.00     0.080 A 
HETATM   32  C18 UNL     1       6.170  21.116  53.563  1.00  0.00     0.256 A 
HETATM   33  O3  UNL     1       5.973  22.323  53.274  1.00  0.00    -0.268 OA
ENDBRANCH  18  27
ENDBRANCH   4  17
ENDBRANCH   3   4
TORSDOF 8
ENDMDL
MODEL 4
REMARK VINA RESULT: -8.063172316      2.186      4.137
REMARK  8 active torsions:
REMARK  status: ('A' for Active; 'I' for Inactive)
REMARK    1  A    between atoms: C3_3  and  N1_4 
REMARK    2  A    between atoms: N1_4  and  C4_5 
REMARK    3  A    between atoms: N1_4  and  C13_17 
REMARK    4  A    between atoms: C4_5  and  C5_6 
REMARK    5  A    between atoms: C5_6  and  S1_7 
REMARK    6  A    between atoms: S1_7  and  C6_9 
REMARK    7  A    between atoms: C6_9  and  C7_10 
REMARK    8  A    between atoms: C14_18  and  N2_19 
ROOT
HETATM    1  C1  UNL     1       2.020  20.338  52.323  1.00  0.00     0.014 C 
HETATM    2  C2  UNL     1       2.948  20.529  51.583  1.00  0.00    -0.098 C 
HETATM    3  C3  UNL     1       4.062  20.734  50.691  1.00  0.00     0.216 C 
ENDROOT
BRANCH   3   4
HETATM    4  N1  UNL     1       4.975  19.575  50.637  1.00  0.00    -0.362 N 
BRANCH   4   5
HETATM    5  C4  UNL     1       4.333  18.312  50.772  1.00  0.00     0.137 C 
BRANCH   5   6
HETATM    6  C5  UNL     1       4.086  17.594  49.443  1.00  0.00     0.129 C 
BRANCH   6   7
HETATM    7  S1  UNL     1       2.331  17.474  49.299  1.00  0.00     0.020 S 
HETATM    8  O1  UNL     1       1.820  16.011  48.704  1.00  0.00    -0.258 OA
BRANCH   7   9
HETATM    9  C6  UNL     1       1.528  18.854  48.627  1.00  0.00     0.149 C 
BRANCH   9  10
HETATM   10  C7  UNL     1       1.616  18.985  47.165  1.00  0.00    -0.025 A 
HETATM   11  C8  UNL     1       2.764  18.931  46.441  1.00  0.00     0.010 A 
HETATM   12  C9  UNL     1       2.788  19.028  45.051  1.00  0.00     0.001 A 
HETATM   13  C10 UNL     1       1.630  19.180  44.371  1.00  0.00     0.002 A 
HETATM   14  C11 UNL     1       0.445  19.239  45.056  1.00  0.00     0.024 A 
HETATM   15  C12 UNL     1       0.437  19.144  46.426  1.00  0.00     0.041 A 
HETATM   16 CL1  UNL     1      -1.093  19.225  47.247  1.00  0.00    -0.084 Cl
ENDBRANCH   9  10
ENDBRANCH   7   9
ENDBRANCH   6   7
ENDBRANCH   5   6
ENDBRANCH   4   5
BRANCH   4  17
HETATM   17  C13 UNL     1       6.324  19.866  50.445  1.00  0.00     0.145 A 
HETATM   18  C14 UNL     1       7.190  20.044  51.489  1.00  0.00     0.154 A 
HETATM   19  N3  UNL     1       8.525  20.293  51.246  1.00  0.00    -0.292 N 
HETATM   20  C19 UNL     1       8.974  20.363  49.989  1.00  0.00     0.328 A 
ATOM     21  H3  UNL     1       9.171  20.424  52.025  1.00  0.00     0.172 HD
HETATM   22  O4  UNL     1      10.219  20.598  49.827  1.00  0.00    -0.247 OA
HETATM   23  N4  UNL     1       8.159  20.198  48.937  1.00  0.00    -0.273 N 
HETATM   24  C20 UNL     1       6.859  19.953  49.150  1.00  0.00     0.279 A 
ATOM     25  H4  UNL     1       8.525  20.258  47.986  1.00  0.00     0.173 HD
HETATM   26  O5  UNL     1       6.054  19.789  48.185  1.00  0.00    -0.265 OA
BRANCH  18  27
HETATM   27  N2  UNL     1       6.720  20.011  52.814  1.00  0.00    -0.227 N 
HETATM   28  C15 UNL     1       6.218  21.118  53.528  1.00  0.00     0.256 A 
HETATM   29  O2  UNL     1       6.110  22.280  53.094  1.00  0.00    -0.268 OA
HETATM   30  C16 UNL     1       5.844  20.685  54.872  1.00  0.00     0.080 A 
HETATM   31  C17 UNL     1       6.101  19.391  54.980  1.00  0.00     0.080 A 
HETATM   32  C18 UNL     1       6.662  18.911  53.693  1.00  0.00     0.256 A 
HETATM   33  O3  UNL     1       6.990  17.707  53.547  1.00  0.00    -0.268 OA
ENDBRANCH  18  27
ENDBRANCH   4  17
ENDBRANCH   3   4
TORSDOF 8
ENDMDL
MODEL 5
REMARK VINA RESULT: -8.054067596      2.338      4.030
REMARK  8 active torsions:
REMARK  status: ('A' for Active; 'I' for Inactive)
REMARK    1  A    between atoms: C3_3  and  N1_4 
REMARK    2  A    between atoms: N1_4  and  C4_5 
REMARK    3  A    between atoms: N1_4  and  C13_17 
REMARK    4  A    between atoms: C4_5  and  C5_6 
REMARK    5  A    between atoms: C5_6  and  S1_7 
REMARK    6  A    between atoms: S1_7  and  C6_9 
REMARK    7  A    between atoms: C6_9  and  C7_10 
REMARK    8  A    between atoms: C14_18  and  N2_19 
ROOT
HETATM    1  C1  UNL     1       7.293  17.104  53.254  1.00  0.00     0.014 C 
HETATM    2  C2  UNL     1       7.405  18.187  52.743  1.00  0.00    -0.098 C 
HETATM    3  C3  UNL     1       7.523  19.479  52.113  1.00  0.00     0.216 C 
ENDROOT
BRANCH   3   4
HETATM    4  N1  UNL     1       7.292  19.431  50.656  1.00  0.00    -0.362 N 
BRANCH   4   5
HETATM    5  C4  UNL     1       6.044  18.862  50.277  1.00  0.00     0.137 C 
BRANCH   5   6
HETATM    6  C5  UNL     1       5.711  19.025  48.792  1.00  0.00     0.129 C 
BRANCH   6   7
HETATM    7  S1  UNL     1       3.964  19.265  48.731  1.00  0.00     0.020 S 
HETATM    8  O1  UNL     1       3.305  19.662  50.202  1.00  0.00    -0.258 OA
BRANCH   7   9
HETATM    9  C6  UNL     1       3.068  18.092  47.825  1.00  0.00     0.149 C 
BRANCH   9  10
HETATM   10  C7  UNL     1       2.444  18.590  46.590  1.00  0.00    -0.025 A 
HETATM   11  C8  UNL     1       3.017  18.568  45.358  1.00  0.00     0.010 A 
HETATM   12  C9  UNL     1       2.368  19.024  44.212  1.00  0.00     0.001 A 
HETATM   13  C10 UNL     1       1.111  19.512  44.305  1.00  0.00     0.002 A 
HETATM   14  C11 UNL     1       0.489  19.555  45.525  1.00  0.00     0.024 A 
HETATM   15  C12 UNL     1       1.142  19.103  46.646  1.00  0.00     0.041 A 
HETATM   16 CL1  UNL     1       0.309  19.179  48.170  1.00  0.00    -0.084 Cl
ENDBRANCH   9  10
ENDBRANCH   7   9
ENDBRANCH   6   7
ENDBRANCH   5   6
ENDBRANCH   4   5
BRANCH   4  17
HETATM   17  C13 UNL     1       8.304  19.959  49.858  1.00  0.00     0.145 A 
HETATM   18  C14 UNL     1       9.339  19.196  49.388  1.00  0.00     0.154 A 
HETATM   19  N3  UNL     1      10.296  19.758  48.569  1.00  0.00    -0.292 N 
HETATM   20  C19 UNL     1      10.215  21.049  48.234  1.00  0.00     0.328 A 
ATOM     21  H3  UNL     1      11.066  19.189  48.218  1.00  0.00     0.172 HD
HETATM   22  O4  UNL     1      11.132  21.512  47.474  1.00  0.00    -0.247 OA
HETATM   23  N4  UNL     1       9.220  21.833  48.674  1.00  0.00    -0.273 N 
HETATM   24  C20 UNL     1       8.278  21.308  49.469  1.00  0.00     0.279 A 
ATOM     25  H4  UNL     1       9.181  22.816  48.406  1.00  0.00     0.173 HD
HETATM   26  O5  UNL     1       7.320  22.012  49.907  1.00  0.00    -0.265 OA
BRANCH  18  27
HETATM   27  N2  UNL     1       9.454  17.847  49.766  1.00  0.00    -0.227 N 
HETATM   28  C15 UNL     1      10.217  17.366  50.850  1.00  0.00     0.256 A 
HETATM   29  O2  UNL     1      10.893  18.061  51.633  1.00  0.00    -0.268 OA
HETATM   30  C16 UNL     1      10.093  15.913  50.910  1.00  0.00     0.080 A 
HETATM   31  C17 UNL     1       9.303  15.521  49.924  1.00  0.00     0.080 A 
HETATM   32  C18 UNL     1       8.866  16.717  49.162  1.00  0.00     0.256 A 
HETATM   33  O3  UNL     1       8.106  16.602  48.169  1.00  0.00    -0.268 OA
ENDBRANCH  18  27
ENDBRANCH   4  17
ENDBRANCH   3   4
TORSDOF 8
ENDMDL
