MODEL 1
REMARK VINA RESULT: -7.778856577      0.000      0.000
REMARK  10 active torsions:
REMARK  status: ('A' for Active; 'I' for Inactive)
REMARK    1  A    between atoms: C2_2  and  O1_3 
REMARK    2  A    between atoms: O1_3  and  C3_4 
REMARK    3  A    between atoms: C3_4  and  C4_6 
REMARK    4  A    between atoms: C4_6  and  C5_7 
REMARK    5  A    between atoms: C5_7  and  C6_8 
REMARK    6  A    between atoms: C9_11  and  C10_12 
REMARK    7  A    between atoms: N1_14  and  O3_16 
REMARK    8  A    between atoms: O3_16  and  C12_17 
REMARK    9  A    between atoms: C12_17  and  C13_18 
REMARK   10  A    between atoms: C14_21  and  C15_22 
ROOT
HETATM    1  C10 UNL     1       4.344  19.045  48.817  1.00  0.00     0.072 C 
HETATM    2  C11 UNL     1       3.841  18.817  47.445  1.00  0.00     0.077 C 
HETATM    3  N1  UNL     1       4.278  18.043  46.561  1.00  0.00    -0.267 N 
ATOM      4  H1  UNL     1       3.741  18.088  45.696  1.00  0.00     0.194 HD
HETATM    5  C14 UNL     1       2.525  19.594  47.388  1.00  0.00     0.165 C 
HETATM    6  C21 UNL     1       1.999  19.019  48.705  1.00  0.00     0.238 C 
HETATM    7  O5  UNL     1       0.894  18.570  48.893  1.00  0.00    -0.272 OA
HETATM    8  N3  UNL     1       3.138  19.159  49.607  1.00  0.00    -0.319 N 
HETATM    9  C22 UNL     1       2.983  19.376  51.015  1.00  0.00     0.159 C 
ENDROOT
BRANCH   1  10
HETATM   10  C9  UNL     1       5.582  19.287  49.186  1.00  0.00    -0.007 A 
HETATM   11  C8  UNL     1       6.035  20.608  49.303  1.00  0.00     0.014 A 
HETATM   12  C7  UNL     1       7.342  20.945  49.568  1.00  0.00     0.012 A 
HETATM   13  C6  UNL     1       8.311  19.988  49.744  1.00  0.00    -0.040 A 
HETATM   14  C24 UNL     1       7.905  18.682  49.640  1.00  0.00     0.012 A 
HETATM   15  C23 UNL     1       6.569  18.347  49.367  1.00  0.00     0.014 A 
BRANCH  13  16
HETATM   16  C5  UNL     1       9.569  20.294  50.014  1.00  0.00    -0.006 C 
BRANCH  16  17
HETATM   17  C4  UNL     1      10.555  20.641  48.962  1.00  0.00     0.139 C 
BRANCH  17  18
HETATM   18  C3  UNL     1      10.396  22.028  48.490  1.00  0.00     0.262 C 
HETATM   19  O2  UNL     1      10.325  22.954  49.369  1.00  0.00    -0.265 OA
BRANCH  18  20
HETATM   20  O1  UNL     1      10.318  22.396  47.153  1.00  0.00    -0.322 OA
BRANCH  20  21
HETATM   21  C2  UNL     1      11.139  23.414  46.617  1.00  0.00     0.174 C 
HETATM   22  C1  UNL     1      10.334  24.675  46.368  1.00  0.00     0.034 C 
ENDBRANCH  20  21
ENDBRANCH  18  20
ENDBRANCH  17  18
ENDBRANCH  16  17
ENDBRANCH  13  16
ENDBRANCH   1  10
BRANCH   3  23
HETATM   23  O3  UNL     1       5.293  17.169  46.499  1.00  0.00    -0.271 OA
BRANCH  23  24
HETATM   24  C12 UNL     1       5.209  15.859  45.984  1.00  0.00     0.300 C 
BRANCH  24  25
HETATM   25  C13 UNL     1       3.863  15.532  45.460  1.00  0.00     0.257 C 
HETATM   26  N2  UNL     1       3.572  15.931  44.125  1.00  0.00    -0.060 NA
HETATM   27  O4  UNL     1       3.050  14.934  46.188  1.00  0.00    -0.274 OA
ENDBRANCH  24  25
ENDBRANCH  23  24
ENDBRANCH   3  23
BRANCH   5  28
HETATM   28  C15 UNL     1       1.691  19.194  46.266  1.00  0.00    -0.039 A 
HETATM   29  C16 UNL     1       0.939  18.026  46.298  1.00  0.00     0.011 A 
HETATM   30  C17 UNL     1       0.164  17.673  45.218  1.00  0.00     0.043 A 
HETATM   31  C18 UNL     1       0.130  18.475  44.101  1.00  0.00     0.116 A 
HETATM   32  F1  UNL     1      -0.655  18.080  43.053  1.00  0.00    -0.206 F 
HETATM   33  C19 UNL     1       0.871  19.619  44.077  1.00  0.00     0.043 A 
HETATM   34  C20 UNL     1       1.650  19.991  45.142  1.00  0.00     0.011 A 
ENDBRANCH   5  28
TORSDOF 10
ENDMDL
MODEL 2
REMARK VINA RESULT: -7.769549785      3.772      8.409
REMARK  10 active torsions:
REMARK  status: ('A' for Active; 'I' for Inactive)
REMARK    1  A    between atoms: C2_2  and  O1_3 
REMARK    2  A    between atoms: O1_3  and  C3_4 
REMARK    3  A    between atoms: C3_4  and  C4_6 
REMARK    4  A    between atoms: C4_6  and  C5_7 
REMARK    5  A    between atoms: C5_7  and  C6_8 
REMARK    6  A    between atoms: C9_11  and  C10_12 
REMARK    7  A    between atoms: N1_14  and  O3_16 
REMARK    8  A    between atoms: O3_16  and  C12_17 
REMARK    9  A    between atoms: C12_17  and  C13_18 
REMARK   10  A    between atoms: C14_21  and  C15_22 
ROOT
HETATM    1  C10 UNL     1       5.753  18.228  49.564  1.00  0.00     0.072 C 
HETATM    2  C11 UNL     1       6.334  19.560  49.284  1.00  0.00     0.077 C 
HETATM    3  N1  UNL     1       5.811  20.692  49.409  1.00  0.00    -0.267 N 
ATOM      4  H1  UNL     1       6.438  21.449  49.139  1.00  0.00     0.194 HD
HETATM    5  C14 UNL     1       7.808  19.278  48.991  1.00  0.00     0.165 C 
HETATM    6  C21 UNL     1       8.000  18.393  50.224  1.00  0.00     0.238 C 
HETATM    7  O5  UNL     1       8.912  18.461  51.012  1.00  0.00    -0.272 OA
HETATM    8  N3  UNL     1       6.844  17.504  50.179  1.00  0.00    -0.319 N 
HETATM    9  C22 UNL     1       6.884  16.160  50.677  1.00  0.00     0.159 C 
ENDROOT
BRANCH   1  10
HETATM   10  C9  UNL     1       4.592  17.761  49.163  1.00  0.00    -0.007 A 
HETATM   11  C8  UNL     1       4.361  17.528  47.801  1.00  0.00     0.014 A 
HETATM   12  C7  UNL     1       3.141  17.153  47.287  1.00  0.00     0.012 A 
HETATM   13  C6  UNL     1       2.045  16.976  48.094  1.00  0.00    -0.040 A 
HETATM   14  C24 UNL     1       2.232  17.192  49.435  1.00  0.00     0.012 A 
HETATM   15  C23 UNL     1       3.480  17.576  49.950  1.00  0.00     0.014 A 
BRANCH  13  16
HETATM   16  C5  UNL     1       0.868  16.601  47.619  1.00  0.00    -0.006 C 
BRANCH  16  17
HETATM   17  C4  UNL     1       0.273  17.188  46.395  1.00  0.00     0.139 C 
BRANCH  17  18
HETATM   18  C3  UNL     1      -0.196  18.569  46.613  1.00  0.00     0.262 C 
HETATM   19  O2  UNL     1      -0.887  18.806  47.663  1.00  0.00    -0.265 OA
BRANCH  18  20
HETATM   20  O1  UNL     1       0.062  19.628  45.754  1.00  0.00    -0.322 OA
BRANCH  20  21
HETATM   21  C2  UNL     1       1.378  19.950  45.352  1.00  0.00     0.174 C 
HETATM   22  C1  UNL     1       1.563  19.695  43.868  1.00  0.00     0.034 C 
ENDBRANCH  20  21
ENDBRANCH  18  20
ENDBRANCH  17  18
ENDBRANCH  16  17
ENDBRANCH  13  16
ENDBRANCH   1  10
BRANCH   3  23
HETATM   23  O3  UNL     1       4.612  21.132  49.820  1.00  0.00    -0.271 OA
BRANCH  23  24
HETATM   24  C12 UNL     1       4.090  20.977  51.120  1.00  0.00     0.300 C 
BRANCH  24  25
HETATM   25  C13 UNL     1       5.143  20.823  52.149  1.00  0.00     0.257 C 
HETATM   26  N2  UNL     1       5.873  21.991  52.509  1.00  0.00    -0.060 NA
HETATM   27  O4  UNL     1       5.349  19.704  52.652  1.00  0.00    -0.274 OA
ENDBRANCH  24  25
ENDBRANCH  23  24
ENDBRANCH   3  23
BRANCH   5  28
HETATM   28  C15 UNL     1       8.629  20.476  49.066  1.00  0.00    -0.039 A 
HETATM   29  C16 UNL     1       8.266  21.559  49.859  1.00  0.00     0.011 A 
HETATM   30  C17 UNL     1       9.061  22.679  49.905  1.00  0.00     0.043 A 
HETATM   31  C18 UNL     1      10.221  22.733  49.167  1.00  0.00     0.116 A 
HETATM   32  F1  UNL     1      10.978  23.870  49.246  1.00  0.00    -0.206 F 
HETATM   33  C19 UNL     1      10.571  21.667  48.392  1.00  0.00     0.043 A 
HETATM   34  C20 UNL     1       9.793  20.539  48.331  1.00  0.00     0.011 A 
ENDBRANCH   5  28
TORSDOF 10
ENDMDL
MODEL 3
REMARK VINA RESULT: -7.679599729      5.089      9.116
REMARK  10 active torsions:
REMARK  status: ('A' for Active; 'I' for Inactive)
REMARK    1  A    between atoms: C2_2  and  O1_3 
REMARK    2  A    between atoms: O1_3  and  C3_4 
REMARK    3  A    between atoms: C3_4  and  C4_6 
REMARK    4  A    between atoms: C4_6  and  C5_7 
REMARK    5  A    between atoms: C5_7  and  C6_8 
REMARK    6  A    between atoms: C9_11  and  C10_12 
REMARK    7  A    between atoms: N1_14  and  O3_16 
REMARK    8  A    between atoms: O3_16  and  C12_17 
REMARK    9  A    between atoms: C12_17  and  C13_18 
REMARK   10  A    between atoms: C14_21  and  C15_22 
ROOT
HETATM    1  C10 UNL     1       4.600  20.342  51.971  1.00  0.00     0.072 C 
HETATM    2  C11 UNL     1       5.732  20.621  52.883  1.00  0.00     0.077 C 
HETATM    3  N1  UNL     1       6.807  21.220  52.647  1.00  0.00    -0.267 N 
ATOM      4  H1  UNL     1       7.420  21.268  53.461  1.00  0.00     0.194 HD
HETATM    5  C14 UNL     1       5.226  20.191  54.260  1.00  0.00     0.165 C 
HETATM    6  C21 UNL     1       3.898  20.940  54.130  1.00  0.00     0.238 C 
HETATM    7  O5  UNL     1       3.402  21.656  54.966  1.00  0.00    -0.272 OA
HETATM    8  N3  UNL     1       3.435  20.567  52.798  1.00  0.00    -0.319 N 
HETATM    9  C22 UNL     1       2.044  20.462  52.466  1.00  0.00     0.159 C 
ENDROOT
BRANCH   1  10
HETATM   10  C9  UNL     1       4.653  19.820  50.766  1.00  0.00    -0.007 A 
HETATM   11  C8  UNL     1       4.535  20.644  49.639  1.00  0.00     0.014 A 
HETATM   12  C7  UNL     1       4.462  20.167  48.350  1.00  0.00     0.012 A 
HETATM   13  C6  UNL     1       4.505  18.822  48.078  1.00  0.00    -0.040 A 
HETATM   14  C24 UNL     1       4.624  17.983  49.156  1.00  0.00     0.012 A 
HETATM   15  C23 UNL     1       4.696  18.479  50.468  1.00  0.00     0.014 A 
BRANCH  13  16
HETATM   16  C5  UNL     1       4.452  18.347  46.844  1.00  0.00    -0.006 C 
BRANCH  16  17
HETATM   17  C4  UNL     1       3.409  18.754  45.872  1.00  0.00     0.139 C 
BRANCH  17  18
HETATM   18  C3  UNL     1       2.252  17.841  45.886  1.00  0.00     0.262 C 
HETATM   19  O2  UNL     1       2.035  17.134  44.843  1.00  0.00    -0.265 OA
BRANCH  18  20
HETATM   20  O1  UNL     1       1.380  17.700  46.958  1.00  0.00    -0.322 OA
BRANCH  20  21
HETATM   21  C2  UNL     1       0.617  18.789  47.437  1.00  0.00     0.174 C 
HETATM   22  C1  UNL     1       1.033  19.154  48.850  1.00  0.00     0.034 C 
ENDBRANCH  20  21
ENDBRANCH  18  20
ENDBRANCH  17  18
ENDBRANCH  16  17
ENDBRANCH  13  16
ENDBRANCH   1  10
BRANCH   3  23
HETATM   23  O3  UNL     1       7.333  21.814  51.565  1.00  0.00    -0.271 OA
BRANCH  23  24
HETATM   24  C12 UNL     1       8.472  21.366  50.865  1.00  0.00     0.300 C 
BRANCH  24  25
HETATM   25  C13 UNL     1       8.562  21.922  49.496  1.00  0.00     0.257 C 
HETATM   26  N2  UNL     1       8.489  23.338  49.365  1.00  0.00    -0.060 NA
HETATM   27  O4  UNL     1       8.695  21.151  48.529  1.00  0.00    -0.274 OA
ENDBRANCH  24  25
ENDBRANCH  23  24
ENDBRANCH   3  23
BRANCH   5  28
HETATM   28  C15 UNL     1       6.034  20.730  55.343  1.00  0.00    -0.039 A 
HETATM   29  C16 UNL     1       6.642  21.976  55.246  1.00  0.00     0.011 A 
HETATM   30  C17 UNL     1       7.404  22.455  56.285  1.00  0.00     0.043 A 
HETATM   31  C18 UNL     1       7.566  21.704  57.426  1.00  0.00     0.116 A 
HETATM   32  F1  UNL     1       8.334  22.225  58.432  1.00  0.00    -0.206 F 
HETATM   33  C19 UNL     1       6.966  20.483  57.514  1.00  0.00     0.043 A 
HETATM   34  C20 UNL     1       6.202  19.985  56.490  1.00  0.00     0.011 A 
ENDBRANCH   5  28
TORSDOF 10
ENDMDL
MODEL 4
REMARK VINA RESULT: -7.658573838      5.051      9.001
REMARK  10 active torsions:
REMARK  status: ('A' for Active; 'I' for Inactive)
REMARK    1  A    between atoms: C2_2  and  O1_3 
REMARK    2  A    between atoms: O1_3  and  C3_4 
REMARK    3  A    between atoms: C3_4  and  C4_6 
REMARK    4  A    between atoms: C4_6  and  C5_7 
REMARK    5  A    between atoms: C5_7  and  C6_8 
REMARK    6  A    between atoms: C9_11  and  C10_12 
REMARK    7  A    between atoms: N1_14  and  O3_16 
REMARK    8  A    between atoms: O3_16  and  C12_17 
REMARK    9  A    between atoms: C12_17  and  C13_18 
REMARK   10  A    between atoms: C14_21  and  C15_22 
ROOT
HETATM    1  C10 UNL     1       4.438  20.371  51.952  1.00  0.00     0.072 C 
HETATM    2  C11 UNL     1       5.598  20.627  52.835  1.00  0.00     0.077 C 
HETATM    3  N1  UNL     1       6.683  21.194  52.569  1.00  0.00    -0.267 N 
ATOM      4  H1  UNL     1       7.315  21.232  53.368  1.00  0.00     0.194 HD
HETATM    5  C14 UNL     1       5.112  20.224  54.228  1.00  0.00     0.165 C 
HETATM    6  C21 UNL     1       3.802  21.008  54.121  1.00  0.00     0.238 C 
HETATM    7  O5  UNL     1       3.345  21.746  54.960  1.00  0.00    -0.272 OA
HETATM    8  N3  UNL     1       3.299  20.636  52.803  1.00  0.00    -0.319 N 
HETATM    9  C22 UNL     1       1.898  20.566  52.504  1.00  0.00     0.159 C 
ENDROOT
BRANCH   1  10
HETATM   10  C9  UNL     1       4.449  19.837  50.752  1.00  0.00    -0.007 A 
HETATM   11  C8  UNL     1       4.227  18.462  50.592  1.00  0.00     0.014 A 
HETATM   12  C7  UNL     1       4.338  17.807  49.388  1.00  0.00     0.012 A 
HETATM   13  C6  UNL     1       4.676  18.472  48.235  1.00  0.00    -0.040 A 
HETATM   14  C24 UNL     1       4.898  19.820  48.350  1.00  0.00     0.012 A 
HETATM   15  C23 UNL     1       4.785  20.480  49.584  1.00  0.00     0.014 A 
BRANCH  13  16
HETATM   16  C5  UNL     1       4.772  17.859  47.066  1.00  0.00    -0.006 C 
BRANCH  16  17
HETATM   17  C4  UNL     1       4.003  18.283  45.872  1.00  0.00     0.139 C 
BRANCH  17  18
HETATM   18  C3  UNL     1       2.548  18.169  46.081  1.00  0.00     0.262 C 
HETATM   19  O2  UNL     1       2.033  16.999  46.073  1.00  0.00    -0.265 OA
BRANCH  18  20
HETATM   20  O1  UNL     1       1.699  19.249  46.283  1.00  0.00    -0.322 OA
BRANCH  20  21
HETATM   21  C2  UNL     1       0.751  19.637  45.309  1.00  0.00     0.174 C 
HETATM   22  C1  UNL     1       1.438  19.990  44.004  1.00  0.00     0.034 C 
ENDBRANCH  20  21
ENDBRANCH  18  20
ENDBRANCH  17  18
ENDBRANCH  16  17
ENDBRANCH  13  16
ENDBRANCH   1  10
BRANCH   3  23
HETATM   23  O3  UNL     1       7.200  21.762  51.470  1.00  0.00    -0.271 OA
BRANCH  23  24
HETATM   24  C12 UNL     1       8.409  21.383  50.850  1.00  0.00     0.300 C 
BRANCH  24  25
HETATM   25  C13 UNL     1       8.558  21.943  49.487  1.00  0.00     0.257 C 
HETATM   26  N2  UNL     1       8.504  23.360  49.359  1.00  0.00    -0.060 NA
HETATM   27  O4  UNL     1       8.721  21.174  48.523  1.00  0.00    -0.274 OA
ENDBRANCH  24  25
ENDBRANCH  23  24
ENDBRANCH   3  23
BRANCH   5  28
HETATM   28  C15 UNL     1       5.959  20.751  55.286  1.00  0.00    -0.039 A 
HETATM   29  C16 UNL     1       6.557  22.001  55.186  1.00  0.00     0.011 A 
HETATM   30  C17 UNL     1       7.356  22.468  56.202  1.00  0.00     0.043 A 
HETATM   31  C18 UNL     1       7.567  21.700  57.323  1.00  0.00     0.116 A 
HETATM   32  F1  UNL     1       8.372  22.209  58.306  1.00  0.00    -0.206 F 
HETATM   33  C19 UNL     1       6.977  20.475  57.415  1.00  0.00     0.043 A 
HETATM   34  C20 UNL     1       6.176  19.988  56.414  1.00  0.00     0.011 A 
ENDBRANCH   5  28
TORSDOF 10
ENDMDL
MODEL 5
REMARK VINA RESULT: -7.592112963      1.010      1.482
REMARK  10 active torsions:
REMARK  status: ('A' for Active; 'I' for Inactive)
REMARK    1  A    between atoms: C2_2  and  O1_3 
REMARK    2  A    between atoms: O1_3  and  C3_4 
REMARK    3  A    between atoms: C3_4  and  C4_6 
REMARK    4  A    between atoms: C4_6  and  C5_7 
REMARK    5  A    between atoms: C5_7  and  C6_8 
REMARK    6  A    between atoms: C9_11  and  C10_12 
REMARK    7  A    between atoms: N1_14  and  O3_16 
REMARK    8  A    between atoms: O3_16  and  C12_17 
REMARK    9  A    between atoms: C12_17  and  C13_18 
REMARK   10  A    between atoms: C14_21  and  C15_22 
ROOT
HETATM    1  C10 UNL     1       4.330  19.042  48.819  1.00  0.00     0.072 C 
HETATM    2  C11 UNL     1       3.840  18.823  47.440  1.00  0.00     0.077 C 
HETATM    3  N1  UNL     1       4.284  18.053  46.557  1.00  0.00    -0.267 N 
ATOM      4  H1  UNL     1       3.756  18.104  45.686  1.00  0.00     0.194 HD
HETATM    5  C14 UNL     1       2.527  19.604  47.375  1.00  0.00     0.165 C 
HETATM    6  C21 UNL     1       1.986  19.023  48.683  1.00  0.00     0.238 C 
HETATM    7  O5  UNL     1       0.878  18.575  48.857  1.00  0.00    -0.272 OA
HETATM    8  N3  UNL     1       3.116  19.155  49.597  1.00  0.00    -0.319 N 
HETATM    9  C22 UNL     1       2.948  19.365  51.005  1.00  0.00     0.159 C 
ENDROOT
BRANCH   1  10
HETATM   10  C9  UNL     1       5.565  19.279  49.201  1.00  0.00    -0.007 A 
HETATM   11  C8  UNL     1       6.029  20.597  49.302  1.00  0.00     0.014 A 
HETATM   12  C7  UNL     1       7.335  20.927  49.580  1.00  0.00     0.012 A 
HETATM   13  C6  UNL     1       8.292  19.964  49.786  1.00  0.00    -0.040 A 
HETATM   14  C24 UNL     1       7.876  18.661  49.699  1.00  0.00     0.012 A 
HETATM   15  C23 UNL     1       6.540  18.334  49.413  1.00  0.00     0.014 A 
BRANCH  13  16
HETATM   16  C5  UNL     1       9.549  20.264  50.069  1.00  0.00    -0.006 C 
BRANCH  16  17
HETATM   17  C4  UNL     1      10.531  20.664  49.034  1.00  0.00     0.139 C 
BRANCH  17  18
HETATM   18  C3  UNL     1      10.315  22.047  48.570  1.00  0.00     0.262 C 
HETATM   19  O2  UNL     1      10.259  22.972  49.451  1.00  0.00    -0.265 OA
BRANCH  18  20
HETATM   20  O1  UNL     1      10.166  22.411  47.238  1.00  0.00    -0.322 OA
BRANCH  20  21
HETATM   21  C2  UNL     1      11.086  23.275  46.601  1.00  0.00     0.174 C 
HETATM   22  C1  UNL     1      10.449  24.624  46.323  1.00  0.00     0.034 C 
ENDBRANCH  20  21
ENDBRANCH  18  20
ENDBRANCH  17  18
ENDBRANCH  16  17
ENDBRANCH  13  16
ENDBRANCH   1  10
BRANCH   3  23
HETATM   23  O3  UNL     1       5.298  17.177  46.499  1.00  0.00    -0.271 OA
BRANCH  23  24
HETATM   24  C12 UNL     1       5.255  15.851  46.977  1.00  0.00     0.300 C 
BRANCH  24  25
HETATM   25  C13 UNL     1       6.475  15.080  46.646  1.00  0.00     0.257 C 
HETATM   26  N2  UNL     1       7.614  15.279  47.478  1.00  0.00    -0.060 NA
HETATM   27  O4  UNL     1       6.464  14.303  45.675  1.00  0.00    -0.274 OA
ENDBRANCH  24  25
ENDBRANCH  23  24
ENDBRANCH   3  23
BRANCH   5  28
HETATM   28  C15 UNL     1       1.703  19.212  46.242  1.00  0.00    -0.039 A 
HETATM   29  C16 UNL     1       1.637  19.984  45.087  1.00  0.00     0.011 A 
HETATM   30  C17 UNL     1       0.845  19.588  44.036  1.00  0.00     0.043 A 
HETATM   31  C18 UNL     1       0.114  18.425  44.121  1.00  0.00     0.116 A 
HETATM   32  F1  UNL     1      -0.659  18.076  43.049  1.00  0.00    -0.206 F 
HETATM   33  C19 UNL     1       0.184  17.674  45.257  1.00  0.00     0.043 A 
HETATM   34  C20 UNL     1       0.967  18.049  46.317  1.00  0.00     0.011 A 
ENDBRANCH   5  28
TORSDOF 10
ENDMDL
