MODEL 1
REMARK VINA RESULT: -4.578926126      0.000      0.000
REMARK  3 active torsions:
REMARK  status: ('A' for Active; 'I' for Inactive)
REMARK    1  A    between atoms: N1_1  and  C1_5 
REMARK    2  A    between atoms: C1_5  and  C2_6 
REMARK    3  A    between atoms: C2_6  and  C3_7 
ROOT
HETATM    1  C3  UNL     1       2.312  21.164 -21.553  1.00  0.00    -0.008 C 
HETATM    2  C4  UNL     1       3.028  21.009 -20.227  1.00  0.00     0.009 C 
HETATM    3  C5  UNL     1       2.079  20.020 -19.536  1.00  0.00     0.069 C 
HETATM    4  C6  UNL     1       1.936  18.969 -20.636  1.00  0.00     0.226 C 
HETATM    5  C7  UNL     1       2.098  19.716 -21.942  1.00  0.00     0.073 C 
HETATM    6  N2  UNL     1       0.709  18.248 -20.548  1.00  0.00    -0.041 N 
ATOM      7  H21 UNL     1       0.119  18.343 -21.375  1.00  0.00     0.280 HD
ATOM      8  H22 UNL     1       0.048  18.645 -19.881  1.00  0.00     0.280 HD
HETATM    9  C8  UNL     1       1.084  16.871 -20.252  1.00  0.00     0.262 C 
HETATM   10  C9  UNL     1       2.448  17.088 -19.592  1.00  0.00     0.198 C 
HETATM   11  O1  UNL     1       2.982  18.071 -20.454  1.00  0.00    -0.353 OA
ENDROOT
BRANCH   1  12
HETATM   12  C2  UNL     1       3.157  21.870 -22.580  1.00  0.00     0.032 C 
BRANCH  12  13
HETATM   13  C1  UNL     1       2.409  22.204 -23.826  1.00  0.00     0.230 C 
BRANCH  13  14
HETATM   14  N1  UNL     1       1.286  23.060 -23.448  1.00  0.00    -0.079 N 
ATOM     15  H13 UNL     1       0.709  22.657 -22.710  1.00  0.00     0.274 HD
ATOM     16  H12 UNL     1       1.577  23.899 -22.947  1.00  0.00     0.274 HD
ATOM     17  H11 UNL     1       0.760  23.267 -24.297  1.00  0.00     0.274 HD
ENDBRANCH  13  14
ENDBRANCH  12  13
ENDBRANCH   1  12
TORSDOF 3
ENDMDL
MODEL 2
REMARK VINA RESULT: -4.119484742      1.759      4.656
REMARK  3 active torsions:
REMARK  status: ('A' for Active; 'I' for Inactive)
REMARK    1  A    between atoms: N1_1  and  C1_5 
REMARK    2  A    between atoms: C1_5  and  C2_6 
REMARK    3  A    between atoms: C2_6  and  C3_7 
ROOT
HETATM    1  C3  UNL     1       2.879  19.116 -19.694  1.00  0.00    -0.008 C 
HETATM    2  C4  UNL     1       2.136  20.358 -19.246  1.00  0.00     0.009 C 
HETATM    3  C5  UNL     1       2.879  21.415 -20.075  1.00  0.00     0.069 C 
HETATM    4  C6  UNL     1       2.833  20.759 -21.454  1.00  0.00     0.226 C 
HETATM    5  C7  UNL     1       2.824  19.267 -21.199  1.00  0.00     0.073 C 
HETATM    6  N2  UNL     1       3.904  21.179 -22.297  1.00  0.00    -0.041 N 
ATOM      7  H21 UNL     1       4.508  20.416 -22.602  1.00  0.00     0.280 HD
ATOM      8  H22 UNL     1       4.622  21.714 -21.810  1.00  0.00     0.280 HD
HETATM    9  C8  UNL     1       3.277  21.903 -23.395  1.00  0.00     0.262 C 
HETATM   10  C9  UNL     1       1.972  22.347 -22.730  1.00  0.00     0.198 C 
HETATM   11  O1  UNL     1       1.637  21.162 -22.038  1.00  0.00    -0.353 OA
ENDROOT
BRANCH   1  12
HETATM   12  C2  UNL     1       2.189  17.850 -19.261  1.00  0.00     0.032 C 
BRANCH  12  13
HETATM   13  C1  UNL     1       1.553  17.112 -20.390  1.00  0.00     0.230 C 
BRANCH  13  14
HETATM   14  N1  UNL     1       0.595  16.170 -19.815  1.00  0.00    -0.079 N 
ATOM     15  H13 UNL     1       0.941  15.717 -18.969  1.00  0.00     0.274 HD
ATOM     16  H12 UNL     1      -0.214  16.631 -19.396  1.00  0.00     0.274 HD
ATOM     17  H11 UNL     1       0.339  15.507 -20.547  1.00  0.00     0.274 HD
ENDBRANCH  13  14
ENDBRANCH  12  13
ENDBRANCH   1  12
TORSDOF 3
ENDMDL
MODEL 3
REMARK VINA RESULT: -3.982754126      1.425      1.588
REMARK  3 active torsions:
REMARK  status: ('A' for Active; 'I' for Inactive)
REMARK    1  A    between atoms: N1_1  and  C1_5 
REMARK    2  A    between atoms: C1_5  and  C2_6 
REMARK    3  A    between atoms: C2_6  and  C3_7 
ROOT
HETATM    1  C3  UNL     1       2.481  21.262 -21.722  1.00  0.00    -0.008 C 
HETATM    2  C4  UNL     1       2.996  21.131 -20.304  1.00  0.00     0.009 C 
HETATM    3  C5  UNL     1       1.934  20.182 -19.731  1.00  0.00     0.069 C 
HETATM    4  C6  UNL     1       1.924  19.103 -20.813  1.00  0.00     0.226 C 
HETATM    5  C7  UNL     1       2.288  19.809 -22.101  1.00  0.00     0.073 C 
HETATM    6  N2  UNL     1       0.680  18.410 -20.884  1.00  0.00    -0.041 N 
ATOM      7  H21 UNL     1       0.216  18.493 -21.788  1.00  0.00     0.280 HD
ATOM      8  H22 UNL     1      -0.060  18.839 -20.328  1.00  0.00     0.280 HD
HETATM    9  C8  UNL     1       0.975  17.035 -20.502  1.00  0.00     0.262 C 
HETATM   10  C9  UNL     1       2.236  17.242 -19.659  1.00  0.00     0.198 C 
HETATM   11  O1  UNL     1       2.911  18.189 -20.461  1.00  0.00    -0.353 OA
ENDROOT
BRANCH   1  12
HETATM   12  C2  UNL     1       3.480  21.921 -22.635  1.00  0.00     0.032 C 
BRANCH  12  13
HETATM   13  C1  UNL     1       4.891  21.746 -22.186  1.00  0.00     0.230 C 
BRANCH  13  14
HETATM   14  N1  UNL     1       5.751  22.381 -23.183  1.00  0.00    -0.079 N 
ATOM     15  H13 UNL     1       5.855  21.824 -24.032  1.00  0.00     0.274 HD
ATOM     16  H12 UNL     1       5.322  23.200 -23.614  1.00  0.00     0.274 HD
ATOM     17  H11 UNL     1       6.641  22.590 -22.732  1.00  0.00     0.274 HD
ENDBRANCH  13  14
ENDBRANCH  12  13
ENDBRANCH   1  12
TORSDOF 3
ENDMDL
MODEL 4
REMARK VINA RESULT: -3.818845751      1.917      4.307
REMARK  3 active torsions:
REMARK  status: ('A' for Active; 'I' for Inactive)
REMARK    1  A    between atoms: N1_1  and  C1_5 
REMARK    2  A    between atoms: C1_5  and  C2_6 
REMARK    3  A    between atoms: C2_6  and  C3_7 
ROOT
HETATM    1  C3  UNL     1       1.395  17.395 -20.853  1.00  0.00    -0.008 C 
HETATM    2  C4  UNL     1       2.325  17.418 -19.658  1.00  0.00     0.009 C 
HETATM    3  C5  UNL     1       3.342  18.460 -20.145  1.00  0.00     0.069 C 
HETATM    4  C6  UNL     1       2.396  19.570 -20.599  1.00  0.00     0.226 C 
HETATM    5  C7  UNL     1       1.131  18.872 -21.049  1.00  0.00     0.073 C 
HETATM    6  N2  UNL     1       2.970  20.400 -21.608  1.00  0.00    -0.041 N 
ATOM      7  H21 UNL     1       2.447  20.400 -22.483  1.00  0.00     0.280 HD
ATOM      8  H22 UNL     1       3.844  20.037 -21.988  1.00  0.00     0.280 HD
HETATM    9  C8  UNL     1       3.098  21.720 -21.003  1.00  0.00     0.262 C 
HETATM   10  C9  UNL     1       3.158  21.344 -19.520  1.00  0.00     0.198 C 
HETATM   11  O1  UNL     1       2.149  20.355 -19.479  1.00  0.00    -0.353 OA
ENDROOT
BRANCH   1  12
HETATM   12  C2  UNL     1       0.113  16.660 -20.565  1.00  0.00     0.032 C 
BRANCH  12  13
HETATM   13  C1  UNL     1      -1.059  17.566 -20.397  1.00  0.00     0.230 C 
BRANCH  13  14
HETATM   14  N1  UNL     1      -1.448  18.032 -21.727  1.00  0.00    -0.079 N 
ATOM     15  H13 UNL     1      -0.903  18.835 -22.042  1.00  0.00     0.274 HD
ATOM     16  H12 UNL     1      -1.177  17.388 -22.469  1.00  0.00     0.274 HD
ATOM     17  H11 UNL     1      -2.451  18.215 -21.706  1.00  0.00     0.274 HD
ENDBRANCH  13  14
ENDBRANCH  12  13
ENDBRANCH   1  12
TORSDOF 3
ENDMDL
MODEL 5
REMARK VINA RESULT: -2.926356951      1.923      4.692
REMARK  3 active torsions:
REMARK  status: ('A' for Active; 'I' for Inactive)
REMARK    1  A    between atoms: N1_1  and  C1_5 
REMARK    2  A    between atoms: C1_5  and  C2_6 
REMARK    3  A    between atoms: C2_6  and  C3_7 
ROOT
HETATM    1  C3  UNL     1       0.926  18.058 -21.320  1.00  0.00    -0.008 C 
HETATM    2  C4  UNL     1       1.811  17.928 -20.098  1.00  0.00     0.009 C 
HETATM    3  C5  UNL     1       3.000  18.788 -20.550  1.00  0.00     0.069 C 
HETATM    4  C6  UNL     1       2.264  20.039 -21.027  1.00  0.00     0.226 C 
HETATM    5  C7  UNL     1       0.915  19.559 -21.517  1.00  0.00     0.073 C 
HETATM    6  N2  UNL     1       2.996  20.763 -22.014  1.00  0.00    -0.041 N 
ATOM      7  H21 UNL     1       2.508  20.849 -22.905  1.00  0.00     0.280 HD
ATOM      8  H22 UNL     1       3.809  20.261 -22.370  1.00  0.00     0.280 HD
HETATM    9  C8  UNL     1       3.322  22.043 -21.399  1.00  0.00     0.262 C 
HETATM   10  C9  UNL     1       3.275  21.663 -19.917  1.00  0.00     0.198 C 
HETATM   11  O1  UNL     1       2.116  20.854 -19.911  1.00  0.00    -0.353 OA
ENDROOT
BRANCH   1  12
HETATM   12  C2  UNL     1      -0.467  17.545 -21.073  1.00  0.00     0.032 C 
BRANCH  12  13
HETATM   13  C1  UNL     1      -0.594  16.777 -19.801  1.00  0.00     0.230 C 
BRANCH  13  14
HETATM   14  N1  UNL     1       0.284  15.613 -19.902  1.00  0.00    -0.079 N 
ATOM     15  H13 UNL     1       0.977  15.700 -20.646  1.00  0.00     0.274 HD
ATOM     16  H12 UNL     1       0.936  15.538 -19.121  1.00  0.00     0.274 HD
ATOM     17  H11 UNL     1      -0.310  14.789 -20.004  1.00  0.00     0.274 HD
ENDBRANCH  13  14
ENDBRANCH  12  13
ENDBRANCH   1  12
TORSDOF 3
ENDMDL
