MODEL 1
REMARK VINA RESULT: -6.899971227      0.000      0.000
REMARK  3 active torsions:
REMARK  status: ('A' for Active; 'I' for Inactive)
REMARK       I    between atoms: C1_4  and  N3_6 
REMARK    1  A    between atoms: C4_9  and  N4_10 
REMARK    2  A    between atoms: N4_10  and  C5_12 
REMARK    3  A    between atoms: N8_17  and  O1_18 
ROOT
HETATM    1  N1  UNL     1       5.246 -15.351  -1.204  1.00  0.00    -0.374 N 
ATOM      2  H11 UNL     1       4.310 -14.999  -1.002  1.00  0.00     0.158 HD
ATOM      3  H12 UNL     1       5.428 -15.800  -2.102  1.00  0.00     0.158 HD
HETATM    4  C1  UNL     1       6.155 -15.213  -0.313  1.00  0.00     0.184 C 
HETATM    5  N2  UNL     1       7.456 -15.703  -0.594  1.00  0.00    -0.064 NA
HETATM    6  N3  UNL     1       5.901 -14.587   0.939  1.00  0.00    -0.354 N 
HETATM    7  C2  UNL     1       5.477 -15.284   2.139  1.00  0.00     0.127 C 
HETATM    8  C3  UNL     1       6.225 -14.551   3.212  1.00  0.00     0.047 C 
HETATM    9  C4  UNL     1       6.133 -13.119   2.736  1.00  0.00     0.119 C 
HETATM   10  C6  UNL     1       6.015 -13.172   1.234  1.00  0.00     0.151 C 
ENDROOT
BRANCH   9  11
HETATM   11  N4  UNL     1       7.309 -12.404   3.174  1.00  0.00    -0.216 N 
ATOM     12  H4  UNL     1       8.148 -12.397   2.594  1.00  0.00     0.178 HD
BRANCH  11  13
HETATM   13  C5  UNL     1       7.298 -11.775   4.300  1.00  0.00     0.731 A 
HETATM   14  N5  UNL     1       7.929 -12.039   5.457  1.00  0.00    -0.115 N 
HETATM   15  N6  UNL     1       7.621 -11.111   6.360  1.00  0.00     0.009 NA
ATOM     16  H5  UNL     1       8.551 -12.831   5.618  1.00  0.00     0.203 HD
HETATM   17  N7  UNL     1       6.790 -10.253   5.774  1.00  0.00     0.037 NA
HETATM   18  N8  UNL     1       6.591 -10.655   4.516  1.00  0.00     0.030 N 
BRANCH  18  19
HETATM   19  O1  UNL     1       5.779  -9.988   3.629  1.00  0.00    -0.256 OA
ATOM     20  H1  UNL     1       5.735  -9.052   3.471  1.00  0.00     0.247 HD
ENDBRANCH  18  19
ENDBRANCH  11  13
ENDBRANCH   9  11
TORSDOF 3
ENDMDL
MODEL 2
REMARK VINA RESULT: -6.771268121      2.247      5.380
REMARK  3 active torsions:
REMARK  status: ('A' for Active; 'I' for Inactive)
REMARK       I    between atoms: C1_4  and  N3_6 
REMARK    1  A    between atoms: C4_9  and  N4_10 
REMARK    2  A    between atoms: N4_10  and  C5_12 
REMARK    3  A    between atoms: N8_17  and  O1_18 
ROOT
HETATM    1  N1  UNL     1       6.279 -10.512   6.137  1.00  0.00    -0.374 N 
ATOM      2  H11 UNL     1       5.548  -9.843   5.898  1.00  0.00     0.158 HD
ATOM      3  H12 UNL     1       6.537 -10.644   7.115  1.00  0.00     0.158 HD
HETATM    4  C1  UNL     1       6.846 -11.161   5.189  1.00  0.00     0.184 C 
HETATM    5  N2  UNL     1       7.863 -12.092   5.522  1.00  0.00    -0.064 NA
HETATM    6  N3  UNL     1       6.487 -10.978   3.825  1.00  0.00    -0.354 N 
HETATM    7  C2  UNL     1       7.115 -10.026   2.928  1.00  0.00     0.127 C 
HETATM    8  C3  UNL     1       7.149 -10.784   1.635  1.00  0.00     0.047 C 
HETATM    9  C4  UNL     1       5.816 -11.497   1.652  1.00  0.00     0.119 C 
HETATM   10  C6  UNL     1       5.453 -11.692   3.102  1.00  0.00     0.151 C 
ENDROOT
BRANCH   9  11
HETATM   11  N4  UNL     1       5.944 -12.747   0.940  1.00  0.00    -0.216 N 
ATOM     12  H4  UNL     1       5.988 -12.752  -0.080  1.00  0.00     0.178 HD
BRANCH  11  13
HETATM   13  C5  UNL     1       6.003 -13.857   1.593  1.00  0.00     0.731 A 
HETATM   14  N5  UNL     1       6.895 -14.294   2.498  1.00  0.00    -0.115 N 
HETATM   15  N6  UNL     1       6.555 -15.512   2.914  1.00  0.00     0.009 NA
ATOM     16  H5  UNL     1       7.710 -13.771   2.819  1.00  0.00     0.203 HD
HETATM   17  N7  UNL     1       5.442 -15.850   2.270  1.00  0.00     0.037 NA
HETATM   18  N8  UNL     1       5.101 -14.842   1.464  1.00  0.00     0.030 N 
BRANCH  18  19
HETATM   19  O1  UNL     1       3.993 -14.866   0.650  1.00  0.00    -0.256 OA
ATOM     20  H1  UNL     1       3.079 -14.829   0.911  1.00  0.00     0.247 HD
ENDBRANCH  18  19
ENDBRANCH  11  13
ENDBRANCH   9  11
TORSDOF 3
ENDMDL
MODEL 3
REMARK VINA RESULT: -6.745359762      2.377      3.410
REMARK  3 active torsions:
REMARK  status: ('A' for Active; 'I' for Inactive)
REMARK       I    between atoms: C1_4  and  N3_6 
REMARK    1  A    between atoms: C4_9  and  N4_10 
REMARK    2  A    between atoms: N4_10  and  C5_12 
REMARK    3  A    between atoms: N8_17  and  O1_18 
ROOT
HETATM    1  N1  UNL     1       7.819 -17.116   3.496  1.00  0.00    -0.374 N 
ATOM      2  H11 UNL     1       8.526 -17.102   2.760  1.00  0.00     0.158 HD
ATOM      3  H12 UNL     1       7.994 -17.649   4.348  1.00  0.00     0.158 HD
HETATM    4  C1  UNL     1       6.735 -16.459   3.312  1.00  0.00     0.184 C 
HETATM    5  N2  UNL     1       5.752 -16.479   4.335  1.00  0.00    -0.064 NA
HETATM    6  N3  UNL     1       6.491 -15.716   2.124  1.00  0.00    -0.354 N 
HETATM    7  C2  UNL     1       5.829 -16.242   0.944  1.00  0.00     0.127 C 
HETATM    8  C3  UNL     1       5.015 -15.069   0.488  1.00  0.00     0.047 C 
HETATM    9  C4  UNL     1       5.957 -13.914   0.744  1.00  0.00     0.119 C 
HETATM   10  C6  UNL     1       6.851 -14.333   1.883  1.00  0.00     0.151 C 
ENDROOT
BRANCH   9  11
HETATM   11  N4  UNL     1       5.180 -12.736   1.053  1.00  0.00    -0.216 N 
ATOM     12  H4  UNL     1       4.185 -12.708   0.830  1.00  0.00     0.178 HD
BRANCH  11  13
HETATM   13  C5  UNL     1       5.745 -11.721   1.613  1.00  0.00     0.731 A 
HETATM   14  N5  UNL     1       6.567 -10.787   1.106  1.00  0.00    -0.115 N 
HETATM   15  N6  UNL     1       6.908  -9.922   2.058  1.00  0.00     0.009 NA
ATOM     16  H5  UNL     1       6.882 -10.747   0.136  1.00  0.00     0.203 HD
HETATM   17  N7  UNL     1       6.300 -10.307   3.175  1.00  0.00     0.037 NA
HETATM   18  N8  UNL     1       5.588 -11.405   2.907  1.00  0.00     0.030 N 
BRANCH  18  19
HETATM   19  O1  UNL     1       4.834 -12.066   3.849  1.00  0.00    -0.256 OA
ATOM     20  H1  UNL     1       5.119 -12.403   4.690  1.00  0.00     0.247 HD
ENDBRANCH  18  19
ENDBRANCH  11  13
ENDBRANCH   9  11
TORSDOF 3
ENDMDL
MODEL 4
REMARK VINA RESULT: -6.648736847      1.396      1.745
REMARK  3 active torsions:
REMARK  status: ('A' for Active; 'I' for Inactive)
REMARK       I    between atoms: C1_4  and  N3_6 
REMARK    1  A    between atoms: C4_9  and  N4_10 
REMARK    2  A    between atoms: N4_10  and  C5_12 
REMARK    3  A    between atoms: N8_17  and  O1_18 
ROOT
HETATM    1  N1  UNL     1       5.890 -15.400  -2.010  1.00  0.00    -0.374 N 
ATOM      2  H11 UNL     1       4.917 -15.106  -1.928  1.00  0.00     0.158 HD
ATOM      3  H12 UNL     1       6.265 -15.640  -2.928  1.00  0.00     0.158 HD
HETATM    4  C1  UNL     1       6.602 -15.457  -0.946  1.00  0.00     0.184 C 
HETATM    5  N2  UNL     1       7.955 -15.866  -1.060  1.00  0.00    -0.064 NA
HETATM    6  N3  UNL     1       6.079 -15.122   0.334  1.00  0.00    -0.354 N 
HETATM    7  C2  UNL     1       5.466 -16.069   1.247  1.00  0.00     0.127 C 
HETATM    8  C3  UNL     1       5.953 -15.585   2.579  1.00  0.00     0.047 C 
HETATM    9  C4  UNL     1       5.885 -14.084   2.413  1.00  0.00     0.119 C 
HETATM   10  C6  UNL     1       6.064 -13.807   0.942  1.00  0.00     0.151 C 
ENDROOT
BRANCH   9  11
HETATM   11  N4  UNL     1       6.918 -13.476   3.221  1.00  0.00    -0.216 N 
ATOM     12  H4  UNL     1       7.805 -13.959   3.362  1.00  0.00     0.178 HD
BRANCH  11  13
HETATM   13  C5  UNL     1       6.716 -12.324   3.763  1.00  0.00     0.731 A 
HETATM   14  N5  UNL     1       5.826 -11.361   3.468  1.00  0.00    -0.115 N 
HETATM   15  N6  UNL     1       5.983 -10.333   4.298  1.00  0.00     0.009 NA
ATOM     16  H5  UNL     1       5.134 -11.411   2.720  1.00  0.00     0.203 HD
HETATM   17  N7  UNL     1       6.976 -10.644   5.125  1.00  0.00     0.037 NA
HETATM   18  N8  UNL     1       7.427 -11.859   4.802  1.00  0.00     0.030 N 
BRANCH  18  19
HETATM   19  O1  UNL     1       8.458 -12.484   5.462  1.00  0.00    -0.256 OA
ATOM     20  H1  UNL     1       8.660 -13.412   5.479  1.00  0.00     0.247 HD
ENDBRANCH  18  19
ENDBRANCH  11  13
ENDBRANCH   9  11
TORSDOF 3
ENDMDL
MODEL 5
REMARK VINA RESULT: -6.632127951      1.185      1.285
REMARK  3 active torsions:
REMARK  status: ('A' for Active; 'I' for Inactive)
REMARK       I    between atoms: C1_4  and  N3_6 
REMARK    1  A    between atoms: C4_9  and  N4_10 
REMARK    2  A    between atoms: N4_10  and  C5_12 
REMARK    3  A    between atoms: N8_17  and  O1_18 
ROOT
HETATM    1  N1  UNL     1       5.851 -15.560  -2.150  1.00  0.00    -0.374 N 
ATOM      2  H11 UNL     1       4.864 -15.322  -2.048  1.00  0.00     0.158 HD
ATOM      3  H12 UNL     1       6.209 -15.828  -3.067  1.00  0.00     0.158 HD
HETATM    4  C1  UNL     1       6.601 -15.511  -1.113  1.00  0.00     0.184 C 
HETATM    5  N2  UNL     1       7.973 -15.842  -1.255  1.00  0.00    -0.064 NA
HETATM    6  N3  UNL     1       6.102 -15.137   0.166  1.00  0.00    -0.354 N 
HETATM    7  C2  UNL     1       5.582 -16.066   1.152  1.00  0.00     0.127 C 
HETATM    8  C3  UNL     1       6.084 -15.477   2.437  1.00  0.00     0.047 C 
HETATM    9  C4  UNL     1       5.915 -13.995   2.191  1.00  0.00     0.119 C 
HETATM   10  C6  UNL     1       6.025 -13.792   0.701  1.00  0.00     0.151 C 
ENDROOT
BRANCH   9  11
HETATM   11  N4  UNL     1       6.934 -13.280   2.924  1.00  0.00    -0.216 N 
ATOM     12  H4  UNL     1       7.914 -13.544   2.825  1.00  0.00     0.178 HD
BRANCH  11  13
HETATM   13  C5  UNL     1       6.603 -12.307   3.703  1.00  0.00     0.731 A 
HETATM   14  N5  UNL     1       6.370 -12.285   5.026  1.00  0.00    -0.115 N 
HETATM   15  N6  UNL     1       6.054 -11.050   5.408  1.00  0.00     0.009 NA
ATOM     16  H5  UNL     1       6.428 -13.094   5.645  1.00  0.00     0.203 HD
HETATM   17  N7  UNL     1       6.087 -10.283   4.323  1.00  0.00     0.037 NA
HETATM   18  N8  UNL     1       6.422 -11.047   3.279  1.00  0.00     0.030 N 
BRANCH  18  19
HETATM   19  O1  UNL     1       6.545 -10.564   1.998  1.00  0.00    -0.256 OA
ATOM     20  H1  UNL     1       6.472  -9.663   1.706  1.00  0.00     0.247 HD
ENDBRANCH  18  19
ENDBRANCH  11  13
ENDBRANCH   9  11
TORSDOF 3
ENDMDL
