MODEL 1
REMARK VINA RESULT: -6.263189255      0.000      0.000
REMARK  4 active torsions:
REMARK  status: ('A' for Active; 'I' for Inactive)
REMARK    1  A    between atoms: N1_1  and  C1_5 
REMARK    2  A    between atoms: C1_5  and  C2_6 
REMARK    3  A    between atoms: C2_6  and  N2_7 
REMARK    4  A    between atoms: C4_10  and  N3_11 
ROOT
HETATM    1  N2  UNL     1       5.885 -12.166   3.689  1.00  0.00    -0.323 N 
HETATM    2  C3  UNL     1       5.006 -12.022   2.560  1.00  0.00     0.271 C 
HETATM    3  O1  UNL     1       4.072 -11.252   2.231  1.00  0.00    -0.270 OA
HETATM    4  C4  UNL     1       5.639 -13.176   1.898  1.00  0.00     0.319 C 
HETATM    5  C5  UNL     1       4.762 -14.359   1.865  1.00  0.00     0.274 C 
HETATM    6  O2  UNL     1       3.532 -14.249   1.559  1.00  0.00    -0.270 OA
HETATM    7  N4  UNL     1       5.315 -15.628   2.182  1.00  0.00    -0.301 N 
ATOM      8  H4  UNL     1       4.958 -16.483   1.754  1.00  0.00     0.171 HD
HETATM    9  C6  UNL     1       6.386 -15.663   3.117  1.00  0.00     0.176 C 
HETATM   10  S1  UNL     1       7.067 -17.079   3.526  1.00  0.00    -0.041 SA
HETATM   11  N5  UNL     1       6.817 -14.422   3.660  1.00  0.00    -0.342 N 
ATOM     12  H5  UNL     1       7.270 -14.426   4.574  1.00  0.00     0.164 HD
HETATM   13  C7  UNL     1       6.649 -13.165   2.991  1.00  0.00     0.244 C 
ENDROOT
BRANCH   1  14
HETATM   14  C2  UNL     1       5.987 -11.570   4.989  1.00  0.00     0.155 C 
BRANCH  14  15
HETATM   15  C1  UNL     1       7.443 -11.358   5.396  1.00  0.00     0.249 C 
BRANCH  15  16
HETATM   16  N1  UNL     1       7.420 -10.494   6.558  1.00  0.00    -0.078 N 
ATOM     17  H13 UNL     1       7.078  -9.554   6.356  1.00  0.00     0.274 HD
ATOM     18  H12 UNL     1       6.701 -10.747   7.236  1.00  0.00     0.274 HD
ATOM     19  H11 UNL     1       8.364 -10.507   6.944  1.00  0.00     0.274 HD
ENDBRANCH  15  16
ENDBRANCH  14  15
ENDBRANCH   1  14
BRANCH   4  20
HETATM   20  N3  UNL     1       6.197 -12.863   0.592  1.00  0.00    -0.049 N 
ATOM     21  H33 UNL     1       5.507 -12.391   0.009  1.00  0.00     0.276 HD
ATOM     22  H32 UNL     1       6.893 -12.121   0.665  1.00  0.00     0.276 HD
ATOM     23  H31 UNL     1       6.583 -13.674   0.110  1.00  0.00     0.276 HD
ENDBRANCH   4  20
TORSDOF 4
ENDMDL
MODEL 2
REMARK VINA RESULT: -6.204993840      1.726      2.207
REMARK  4 active torsions:
REMARK  status: ('A' for Active; 'I' for Inactive)
REMARK    1  A    between atoms: N1_1  and  C1_5 
REMARK    2  A    between atoms: C1_5  and  C2_6 
REMARK    3  A    between atoms: C2_6  and  N2_7 
REMARK    4  A    between atoms: C4_10  and  N3_11 
ROOT
HETATM    1  N2  UNL     1       7.149 -11.517   3.923  1.00  0.00    -0.323 N 
HETATM    2  C3  UNL     1       6.554 -10.465   3.144  1.00  0.00     0.271 C 
HETATM    3  O1  UNL     1       6.136  -9.302   3.359  1.00  0.00    -0.270 OA
HETATM    4  C4  UNL     1       6.618 -11.303   1.933  1.00  0.00     0.319 C 
HETATM    5  C5  UNL     1       5.290 -11.769   1.499  1.00  0.00     0.274 C 
HETATM    6  O2  UNL     1       4.296 -10.976   1.478  1.00  0.00    -0.270 OA
HETATM    7  N4  UNL     1       5.138 -13.125   1.103  1.00  0.00    -0.301 N 
ATOM      8  H4  UNL     1       4.458 -13.396   0.392  1.00  0.00     0.171 HD
HETATM    9  C6  UNL     1       5.970 -14.091   1.734  1.00  0.00     0.176 C 
HETATM   10  S1  UNL     1       5.851 -15.659   1.331  1.00  0.00    -0.041 SA
HETATM   11  N5  UNL     1       6.889 -13.620   2.711  1.00  0.00    -0.342 N 
ATOM     12  H5  UNL     1       7.198 -14.268   3.435  1.00  0.00     0.164 HD
HETATM   13  C7  UNL     1       7.404 -12.282   2.732  1.00  0.00     0.244 C 
ENDROOT
BRANCH   1  14
HETATM   14  C2  UNL     1       7.402 -11.740   5.317  1.00  0.00     0.155 C 
BRANCH  14  15
HETATM   15  C1  UNL     1       6.703 -10.700   6.188  1.00  0.00     0.249 C 
BRANCH  15  16
HETATM   16  N1  UNL     1       7.728 -10.115   7.027  1.00  0.00    -0.078 N 
ATOM     17  H13 UNL     1       7.426  -9.264   7.502  1.00  0.00     0.274 HD
ATOM     18  H12 UNL     1       7.928 -10.663   7.863  1.00  0.00     0.274 HD
ATOM     19  H11 UNL     1       8.543  -9.977   6.430  1.00  0.00     0.274 HD
ENDBRANCH  15  16
ENDBRANCH  14  15
ENDBRANCH   1  14
BRANCH   4  20
HETATM   20  N3  UNL     1       7.376 -10.701   0.849  1.00  0.00    -0.049 N 
ATOM     21  H33 UNL     1       7.518 -11.371   0.093  1.00  0.00     0.276 HD
ATOM     22  H32 UNL     1       6.813 -10.007   0.357  1.00  0.00     0.276 HD
ATOM     23  H31 UNL     1       8.265 -10.299   1.147  1.00  0.00     0.276 HD
ENDBRANCH   4  20
TORSDOF 4
ENDMDL
MODEL 3
REMARK VINA RESULT: -6.083100467      2.594      4.408
REMARK  4 active torsions:
REMARK  status: ('A' for Active; 'I' for Inactive)
REMARK    1  A    between atoms: N1_1  and  C1_5 
REMARK    2  A    between atoms: C1_5  and  C2_6 
REMARK    3  A    between atoms: C2_6  and  N2_7 
REMARK    4  A    between atoms: C4_10  and  N3_11 
ROOT
HETATM    1  N2  UNL     1       5.923 -13.999   2.967  1.00  0.00    -0.323 N 
HETATM    2  C3  UNL     1       5.903 -13.256   1.736  1.00  0.00     0.271 C 
HETATM    3  O1  UNL     1       6.099 -13.507   0.523  1.00  0.00    -0.270 OA
HETATM    4  C4  UNL     1       5.551 -12.026   2.466  1.00  0.00     0.319 C 
HETATM    5  C5  UNL     1       6.662 -11.059   2.512  1.00  0.00     0.274 C 
HETATM    6  O2  UNL     1       7.358 -10.817   1.475  1.00  0.00    -0.270 OA
HETATM    7  N4  UNL     1       6.944 -10.401   3.739  1.00  0.00    -0.301 N 
ATOM      8  H4  UNL     1       7.325  -9.455   3.756  1.00  0.00     0.171 HD
HETATM    9  C6  UNL     1       6.675 -11.111   4.942  1.00  0.00     0.176 C 
HETATM   10  S1  UNL     1       6.972 -10.421   6.380  1.00  0.00    -0.041 SA
HETATM   11  N5  UNL     1       6.143 -12.424   4.818  1.00  0.00    -0.342 N 
ATOM     12  H5  UNL     1       6.304 -13.083   5.579  1.00  0.00     0.164 HD
HETATM   13  C7  UNL     1       5.392 -12.869   3.681  1.00  0.00     0.244 C 
ENDROOT
BRANCH   1  14
HETATM   14  C2  UNL     1       6.306 -15.325   3.356  1.00  0.00     0.155 C 
BRANCH  14  15
HETATM   15  C1  UNL     1       6.645 -16.190   2.145  1.00  0.00     0.249 C 
BRANCH  15  16
HETATM   16  N1  UNL     1       8.089 -16.194   2.037  1.00  0.00    -0.078 N 
ATOM     17  H13 UNL     1       8.552 -15.672   2.782  1.00  0.00     0.274 HD
ATOM     18  H12 UNL     1       8.507 -17.101   2.241  1.00  0.00     0.274 HD
ATOM     19  H11 UNL     1       8.309 -15.848   1.103  1.00  0.00     0.274 HD
ENDBRANCH  15  16
ENDBRANCH  14  15
ENDBRANCH   1  14
BRANCH   4  20
HETATM   20  N3  UNL     1       4.308 -11.419   2.017  1.00  0.00    -0.049 N 
ATOM     21  H33 UNL     1       3.789 -11.034   2.805  1.00  0.00     0.276 HD
ATOM     22  H32 UNL     1       4.492 -10.560   1.498  1.00  0.00     0.276 HD
ATOM     23  H31 UNL     1       3.721 -12.050   1.472  1.00  0.00     0.276 HD
ENDBRANCH   4  20
TORSDOF 4
ENDMDL
MODEL 4
REMARK VINA RESULT: -5.204334035      3.385      4.483
REMARK  4 active torsions:
REMARK  status: ('A' for Active; 'I' for Inactive)
REMARK    1  A    between atoms: N1_1  and  C1_5 
REMARK    2  A    between atoms: C1_5  and  C2_6 
REMARK    3  A    between atoms: C2_6  and  N2_7 
REMARK    4  A    between atoms: C4_10  and  N3_11 
ROOT
HETATM    1  N2  UNL     1       5.273 -14.650   1.886  1.00  0.00    -0.323 N 
HETATM    2  C3  UNL     1       5.971 -15.630   2.673  1.00  0.00     0.271 C 
HETATM    3  O1  UNL     1       6.284 -15.769   3.880  1.00  0.00    -0.270 OA
HETATM    4  C4  UNL     1       6.198 -16.456   1.473  1.00  0.00     0.319 C 
HETATM    5  C5  UNL     1       7.608 -16.450   1.043  1.00  0.00     0.274 C 
HETATM    6  O2  UNL     1       8.548 -16.571   1.890  1.00  0.00    -0.270 OA
HETATM    7  N4  UNL     1       7.898 -16.305  -0.341  1.00  0.00    -0.301 N 
ATOM      8  H4  UNL     1       8.723 -16.739  -0.756  1.00  0.00     0.171 HD
HETATM    9  C6  UNL     1       6.996 -15.534  -1.124  1.00  0.00     0.176 C 
HETATM   10  S1  UNL     1       7.264 -15.327  -2.712  1.00  0.00    -0.041 SA
HETATM   11  N5  UNL     1       5.873 -14.970  -0.459  1.00  0.00    -0.342 N 
ATOM     12  H5  UNL     1       5.448 -14.132  -0.855  1.00  0.00     0.164 HD
HETATM   13  C7  UNL     1       5.306 -15.518   0.739  1.00  0.00     0.244 C 
ENDROOT
BRANCH   1  14
HETATM   14  C2  UNL     1       4.745 -13.338   2.120  1.00  0.00     0.155 C 
BRANCH  14  15
HETATM   15  C1  UNL     1       5.801 -12.259   1.896  1.00  0.00     0.249 C 
BRANCH  15  16
HETATM   16  N1  UNL     1       5.183 -11.250   1.060  1.00  0.00    -0.078 N 
ATOM     17  H13 UNL     1       4.968 -10.387   1.559  1.00  0.00     0.274 HD
ATOM     18  H12 UNL     1       5.822 -10.845   0.376  1.00  0.00     0.274 HD
ATOM     19  H11 UNL     1       4.365 -11.689   0.638  1.00  0.00     0.274 HD
ENDBRANCH  15  16
ENDBRANCH  14  15
ENDBRANCH   1  14
BRANCH   4  20
HETATM   20  N3  UNL     1       5.658 -17.801   1.582  1.00  0.00    -0.049 N 
ATOM     21  H33 UNL     1       6.366 -18.446   1.932  1.00  0.00     0.276 HD
ATOM     22  H32 UNL     1       4.985 -17.859   2.346  1.00  0.00     0.276 HD
ATOM     23  H31 UNL     1       5.250 -18.148   0.715  1.00  0.00     0.276 HD
ENDBRANCH   4  20
TORSDOF 4
ENDMDL
MODEL 5
REMARK VINA RESULT: -5.136252623      3.146      4.230
REMARK  4 active torsions:
REMARK  status: ('A' for Active; 'I' for Inactive)
REMARK    1  A    between atoms: N1_1  and  C1_5 
REMARK    2  A    between atoms: C1_5  and  C2_6 
REMARK    3  A    between atoms: C2_6  and  N2_7 
REMARK    4  A    between atoms: C4_10  and  N3_11 
ROOT
HETATM    1  N2  UNL     1       5.708 -14.644   2.206  1.00  0.00    -0.323 N 
HETATM    2  C3  UNL     1       6.309 -15.770   2.869  1.00  0.00     0.271 C 
HETATM    3  O1  UNL     1       6.683 -16.041   4.034  1.00  0.00    -0.270 OA
HETATM    4  C4  UNL     1       6.326 -16.525   1.604  1.00  0.00     0.319 C 
HETATM    5  C5  UNL     1       7.687 -16.686   1.061  1.00  0.00     0.274 C 
HETATM    6  O2  UNL     1       8.657 -17.003   1.819  1.00  0.00    -0.270 OA
HETATM    7  N4  UNL     1       7.895 -16.480  -0.329  1.00  0.00    -0.301 N 
ATOM      8  H4  UNL     1       8.616 -16.993  -0.838  1.00  0.00     0.171 HD
HETATM    9  C6  UNL     1       7.062 -15.533  -0.986  1.00  0.00     0.176 C 
HETATM   10  S1  UNL     1       7.244 -15.246  -2.573  1.00  0.00    -0.041 SA
HETATM   11  N5  UNL     1       6.085 -14.867  -0.196  1.00  0.00    -0.342 N 
ATOM     12  H5  UNL     1       5.760 -13.950  -0.501  1.00  0.00     0.164 HD
HETATM   13  C7  UNL     1       5.531 -15.419   1.007  1.00  0.00     0.244 C 
ENDROOT
BRANCH   1  14
HETATM   14  C2  UNL     1       5.395 -13.291   2.566  1.00  0.00     0.155 C 
BRANCH  14  15
HETATM   15  C1  UNL     1       6.642 -12.521   2.989  1.00  0.00     0.249 C 
BRANCH  15  16
HETATM   16  N1  UNL     1       6.890 -12.873   4.372  1.00  0.00    -0.078 N 
ATOM     17  H13 UNL     1       6.192 -13.509   4.759  1.00  0.00     0.274 HD
ATOM     18  H12 UNL     1       7.698 -13.482   4.495  1.00  0.00     0.274 HD
ATOM     19  H11 UNL     1       6.964 -11.993   4.883  1.00  0.00     0.274 HD
ENDBRANCH  15  16
ENDBRANCH  14  15
ENDBRANCH   1  14
BRANCH   4  20
HETATM   20  N3  UNL     1       5.604 -17.785   1.670  1.00  0.00    -0.049 N 
ATOM     21  H33 UNL     1       6.186 -18.553   1.333  1.00  0.00     0.276 HD
ATOM     22  H32 UNL     1       5.479 -18.080   2.638  1.00  0.00     0.276 HD
ATOM     23  H31 UNL     1       4.710 -17.769   1.180  1.00  0.00     0.276 HD
ENDBRANCH   4  20
TORSDOF 4
ENDMDL
