MODEL 1
REMARK VINA RESULT: -6.793385965      0.000      0.000
REMARK  2 active torsions:
REMARK  status: ('A' for Active; 'I' for Inactive)
REMARK       I    between atoms: C1_2  and  N3_6 
REMARK    1  A    between atoms: C2_8  and  C3_9 
REMARK    2  A    between atoms: C3_9  and  N4_10 
ROOT
HETATM    1  N4  UNL     1       5.382 -14.022   0.960  1.00  0.00    -0.379 N 
HETATM    2  C4  UNL     1       6.551 -14.485   1.625  1.00  0.00     0.142 C 
HETATM    3  C5  UNL     1       6.206 -15.037   3.007  1.00  0.00     0.142 C 
HETATM    4  N5  UNL     1       6.656 -14.042   3.989  1.00  0.00    -0.363 N 
ATOM      5  H5  UNL     1       6.977 -14.427   4.877  1.00  0.00     0.162 HD
HETATM    6  C6  UNL     1       6.711 -12.721   3.898  1.00  0.00     0.191 C 
HETATM    7  N6  UNL     1       7.194 -12.072   5.101  1.00  0.00    -0.063 NA
HETATM    8  N7  UNL     1       6.370 -11.759   2.887  1.00  0.00    -0.297 N 
ATOM      9  H7  UNL     1       6.975 -10.938   2.832  1.00  0.00     0.171 HD
HETATM   10  C7  UNL     1       5.260 -11.805   1.918  1.00  0.00     0.262 C 
HETATM   11  O1  UNL     1       4.980 -10.693   1.517  1.00  0.00    -0.267 OA
HETATM   12  C8  UNL     1       4.540 -13.034   1.424  1.00  0.00     0.161 C 
ENDROOT
BRANCH   1  13
HETATM   13  C3  UNL     1       4.778 -15.016   0.147  1.00  0.00     0.167 C 
BRANCH  13  14
HETATM   14  C2  UNL     1       5.848 -15.670  -0.687  1.00  0.00     0.083 C 
HETATM   15  N3  UNL     1       5.854 -15.605  -1.940  1.00  0.00    -0.343 N 
HETATM   16  C1  UNL     1       6.808 -16.185  -2.658  1.00  0.00     0.185 C 
ATOM     17  H3  UNL     1       5.111 -15.094  -2.417  1.00  0.00     0.167 HD
HETATM   18  N1  UNL     1       7.386 -14.744  -3.070  1.00  0.00    -0.064 NA
HETATM   19  N2  UNL     1       7.786 -16.770  -3.395  1.00  0.00    -0.374 N 
ATOM     20  H22 UNL     1       8.519 -17.216  -3.946  1.00  0.00     0.158 HD
ATOM     21  H21 UNL     1       7.419 -17.685  -3.134  1.00  0.00     0.158 HD
ENDBRANCH  13  14
ENDBRANCH   1  13
TORSDOF 2
ENDMDL
MODEL 2
REMARK VINA RESULT: -6.691507275      0.946      1.099
REMARK  2 active torsions:
REMARK  status: ('A' for Active; 'I' for Inactive)
REMARK       I    between atoms: C1_2  and  N3_6 
REMARK    1  A    between atoms: C2_8  and  C3_9 
REMARK    2  A    between atoms: C3_9  and  N4_10 
ROOT
HETATM    1  N4  UNL     1       5.333 -14.352   1.186  1.00  0.00    -0.379 N 
HETATM    2  C4  UNL     1       6.556 -14.271   1.908  1.00  0.00     0.142 C 
HETATM    3  C5  UNL     1       6.374 -14.772   3.340  1.00  0.00     0.142 C 
HETATM    4  N5  UNL     1       6.371 -13.587   4.208  1.00  0.00    -0.363 N 
ATOM      5  H5  UNL     1       6.768 -13.732   5.137  1.00  0.00     0.162 HD
HETATM    6  C6  UNL     1       5.932 -12.359   3.972  1.00  0.00     0.191 C 
HETATM    7  N6  UNL     1       6.078 -11.459   5.098  1.00  0.00    -0.063 NA
HETATM    8  N7  UNL     1       5.308 -11.703   2.857  1.00  0.00    -0.297 N 
ATOM      9  H7  UNL     1       5.564 -10.725   2.716  1.00  0.00     0.171 HD
HETATM   10  C7  UNL     1       4.345 -12.260   1.890  1.00  0.00     0.262 C 
HETATM   11  O1  UNL     1       3.690 -11.382   1.365  1.00  0.00    -0.267 OA
HETATM   12  C8  UNL     1       4.161 -13.713   1.530  1.00  0.00     0.161 C 
ENDROOT
BRANCH   1  13
HETATM   13  C3  UNL     1       5.185 -15.577   0.484  1.00  0.00     0.167 C 
BRANCH  13  14
HETATM   14  C2  UNL     1       5.777 -15.417  -0.892  1.00  0.00     0.083 C 
HETATM   15  N3  UNL     1       6.467 -16.315  -1.433  1.00  0.00    -0.343 N 
HETATM   16  C1  UNL     1       6.978 -16.157  -2.647  1.00  0.00     0.185 C 
ATOM     17  H3  UNL     1       6.637 -17.186  -0.928  1.00  0.00     0.167 HD
HETATM   18  N1  UNL     1       5.970 -17.266  -3.225  1.00  0.00    -0.064 NA
HETATM   19  N2  UNL     1       7.496 -16.002  -3.892  1.00  0.00    -0.374 N 
ATOM     20  H22 UNL     1       7.888 -15.881  -4.826  1.00  0.00     0.158 HD
ATOM     21  H21 UNL     1       8.136 -15.298  -3.525  1.00  0.00     0.158 HD
ENDBRANCH  13  14
ENDBRANCH   1  13
TORSDOF 2
ENDMDL
MODEL 3
REMARK VINA RESULT: -6.555279914      1.116      1.116
REMARK  2 active torsions:
REMARK  status: ('A' for Active; 'I' for Inactive)
REMARK       I    between atoms: C1_2  and  N3_6 
REMARK    1  A    between atoms: C2_8  and  C3_9 
REMARK    2  A    between atoms: C3_9  and  N4_10 
ROOT
HETATM    1  N4  UNL     1       5.503 -13.626   1.347  1.00  0.00    -0.379 N 
HETATM    2  C4  UNL     1       6.600 -13.708   2.250  1.00  0.00     0.142 C 
HETATM    3  C5  UNL     1       6.123 -14.102   3.647  1.00  0.00     0.142 C 
HETATM    4  N5  UNL     1       6.188 -12.890   4.475  1.00  0.00    -0.363 N 
ATOM      5  H5  UNL     1       6.411 -13.051   5.458  1.00  0.00     0.162 HD
HETATM    6  C6  UNL     1       6.002 -11.620   4.144  1.00  0.00     0.191 C 
HETATM    7  N6  UNL     1       6.125 -10.701   5.258  1.00  0.00    -0.063 NA
HETATM    8  N7  UNL     1       5.672 -10.928   2.929  1.00  0.00    -0.297 N 
ATOM      9  H7  UNL     1       6.106 -10.013   2.807  1.00  0.00     0.171 HD
HETATM   10  C7  UNL     1       4.785 -11.369   1.838  1.00  0.00     0.262 C 
HETATM   11  O1  UNL     1       4.373 -10.424   1.196  1.00  0.00    -0.267 OA
HETATM   12  C8  UNL     1       4.417 -12.789   1.488  1.00  0.00     0.161 C 
ENDROOT
BRANCH   1  13
HETATM   13  C3  UNL     1       5.259 -14.844   0.659  1.00  0.00     0.167 C 
BRANCH  13  14
HETATM   14  C2  UNL     1       6.550 -15.314   0.042  1.00  0.00     0.083 C 
HETATM   15  N3  UNL     1       6.583 -15.946  -1.042  1.00  0.00    -0.343 N 
HETATM   16  C1  UNL     1       7.731 -16.349  -1.572  1.00  0.00     0.185 C 
ATOM     17  H3  UNL     1       5.709 -16.153  -1.525  1.00  0.00     0.167 HD
HETATM   18  N1  UNL     1       7.563 -15.285  -2.764  1.00  0.00    -0.064 NA
HETATM   19  N2  UNL     1       8.904 -16.755  -2.122  1.00  0.00    -0.374 N 
ATOM     20  H22 UNL     1       9.786 -17.065  -2.529  1.00  0.00     0.158 HD
ATOM     21  H21 UNL     1       9.010 -17.431  -1.365  1.00  0.00     0.158 HD
ENDBRANCH  13  14
ENDBRANCH   1  13
TORSDOF 2
ENDMDL
MODEL 4
REMARK VINA RESULT: -6.507231990      1.017      1.017
REMARK  2 active torsions:
REMARK  status: ('A' for Active; 'I' for Inactive)
REMARK       I    between atoms: C1_2  and  N3_6 
REMARK    1  A    between atoms: C2_8  and  C3_9 
REMARK    2  A    between atoms: C3_9  and  N4_10 
ROOT
HETATM    1  N4  UNL     1       5.327 -14.091   1.091  1.00  0.00    -0.379 N 
HETATM    2  C4  UNL     1       6.515 -14.499   1.759  1.00  0.00     0.142 C 
HETATM    3  C5  UNL     1       6.200 -15.006   3.165  1.00  0.00     0.142 C 
HETATM    4  N5  UNL     1       6.636 -13.963   4.102  1.00  0.00    -0.363 N 
ATOM      5  H5  UNL     1       6.977 -14.305   5.001  1.00  0.00     0.162 HD
HETATM    6  C6  UNL     1       6.656 -12.645   3.961  1.00  0.00     0.191 C 
HETATM    7  N6  UNL     1       7.137 -11.939   5.131  1.00  0.00    -0.063 NA
HETATM    8  N7  UNL     1       6.280 -11.732   2.918  1.00  0.00    -0.297 N 
ATOM      9  H7  UNL     1       6.863 -10.899   2.824  1.00  0.00     0.171 HD
HETATM   10  C7  UNL     1       5.160 -11.842   1.965  1.00  0.00     0.262 C 
HETATM   11  O1  UNL     1       4.848 -10.754   1.525  1.00  0.00    -0.267 OA
HETATM   12  C8  UNL     1       4.466 -13.107   1.527  1.00  0.00     0.161 C 
ENDROOT
BRANCH   1  13
HETATM   13  C3  UNL     1       4.738 -15.131   0.324  1.00  0.00     0.167 C 
BRANCH  13  14
HETATM   14  C2  UNL     1       5.826 -15.840  -0.439  1.00  0.00     0.083 C 
HETATM   15  N3  UNL     1       5.621 -16.912  -1.057  1.00  0.00    -0.343 N 
HETATM   16  C1  UNL     1       6.592 -17.521  -1.726  1.00  0.00     0.185 C 
ATOM     17  H3  UNL     1       4.688 -17.325  -1.045  1.00  0.00     0.167 HD
HETATM   18  N1  UNL     1       5.874 -17.155  -3.117  1.00  0.00    -0.064 NA
HETATM   19  N2  UNL     1       7.580 -18.142  -2.419  1.00  0.00    -0.374 N 
ATOM     20  H22 UNL     1       8.327 -18.609  -2.934  1.00  0.00     0.158 HD
ATOM     21  H21 UNL     1       8.036 -18.374  -1.537  1.00  0.00     0.158 HD
ENDBRANCH  13  14
ENDBRANCH   1  13
TORSDOF 2
ENDMDL
MODEL 5
REMARK VINA RESULT: -6.341019470      1.590      2.362
REMARK  2 active torsions:
REMARK  status: ('A' for Active; 'I' for Inactive)
REMARK       I    between atoms: C1_2  and  N3_6 
REMARK    1  A    between atoms: C2_8  and  C3_9 
REMARK    2  A    between atoms: C3_9  and  N4_10 
ROOT
HETATM    1  N4  UNL     1       5.039 -14.240   1.495  1.00  0.00    -0.379 N 
HETATM    2  C4  UNL     1       4.717 -12.927   1.938  1.00  0.00     0.142 C 
HETATM    3  C5  UNL     1       5.823 -11.942   1.564  1.00  0.00     0.142 C 
HETATM    4  N5  UNL     1       6.553 -11.632   2.800  1.00  0.00    -0.363 N 
ATOM      5  H5  UNL     1       6.929 -10.685   2.853  1.00  0.00     0.162 HD
HETATM    6  C6  UNL     1       6.798 -12.392   3.858  1.00  0.00     0.191 C 
HETATM    7  N6  UNL     1       7.584 -11.733   4.882  1.00  0.00    -0.063 NA
HETATM    8  N7  UNL     1       6.491 -13.746   4.227  1.00  0.00    -0.297 N 
ATOM      9  H7  UNL     1       6.300 -13.905   5.216  1.00  0.00     0.171 HD
HETATM   10  C7  UNL     1       6.416 -14.935   3.358  1.00  0.00     0.262 C 
HETATM   11  O1  UNL     1       6.572 -15.956   3.996  1.00  0.00    -0.267 OA
HETATM   12  C8  UNL     1       6.154 -14.957   1.873  1.00  0.00     0.161 C 
ENDROOT
BRANCH   1  13
HETATM   13  C3  UNL     1       4.529 -14.529   0.202  1.00  0.00     0.167 C 
BRANCH  13  14
HETATM   14  C2  UNL     1       5.484 -15.463  -0.494  1.00  0.00     0.083 C 
HETATM   15  N3  UNL     1       5.636 -15.459  -1.740  1.00  0.00    -0.343 N 
HETATM   16  C1  UNL     1       6.485 -16.288  -2.335  1.00  0.00     0.185 C 
ATOM     17  H3  UNL     1       5.095 -14.805  -2.307  1.00  0.00     0.167 HD
HETATM   18  N1  UNL     1       7.441 -15.052  -2.708  1.00  0.00    -0.064 NA
HETATM   19  N2  UNL     1       7.358 -17.127  -2.947  1.00  0.00    -0.374 N 
ATOM     20  H22 UNL     1       8.011 -17.763  -3.404  1.00  0.00     0.158 HD
ATOM     21  H21 UNL     1       6.751 -17.912  -2.710  1.00  0.00     0.158 HD
ENDBRANCH  13  14
ENDBRANCH   1  13
TORSDOF 2
ENDMDL
