MODEL 1
REMARK VINA RESULT: -6.846543585      0.000      0.000
REMARK  4 active torsions:
REMARK  status: ('A' for Active; 'I' for Inactive)
REMARK    1  A    between atoms: C1_4  and  N2_5 
REMARK    2  A    between atoms: C5_15  and  C6_16 
REMARK    3  A    between atoms: C6_16  and  N5_17 
REMARK    4  A    between atoms: N5_17  and  C7_19 
ROOT
HETATM    1  N2  UNL     1       6.780 -13.847   2.719  1.00  0.00    -0.341 N 
ATOM      2  H2  UNL     1       7.555 -13.313   3.113  1.00  0.00     0.167 HD
HETATM    3  C2  UNL     1       5.806 -13.234   2.144  1.00  0.00     0.111 C 
HETATM    4  N3  UNL     1       4.738 -13.993   1.604  1.00  0.00    -0.376 N 
ATOM      5  H3  UNL     1       4.831 -15.006   1.542  1.00  0.00     0.160 HD
HETATM    6  C3  UNL     1       3.503 -13.363   1.133  1.00  0.00     0.148 C 
HETATM    7  C4  UNL     1       3.552 -11.880   1.410  1.00  0.00     0.253 C 
HETATM    8  N4  UNL     1       4.857 -11.391   1.022  1.00  0.00    -0.061 N 
ATOM      9  H41 UNL     1       4.858 -10.390   0.825  1.00  0.00     0.278 HD
ATOM     10  H42 UNL     1       5.138 -11.716   0.097  1.00  0.00     0.278 HD
HETATM   11  C5  UNL     1       5.806 -11.757   2.052  1.00  0.00     0.270 C 
ENDROOT
BRANCH  11  12
HETATM   12  C6  UNL     1       7.197 -11.232   1.680  1.00  0.00     0.179 C 
BRANCH  12  13
HETATM   13  N5  UNL     1       7.672 -10.417   2.759  1.00  0.00    -0.222 N 
ATOM     14  H5  UNL     1       8.068  -9.503   2.537  1.00  0.00     0.177 HD
BRANCH  13  15
HETATM   15  C7  UNL     1       7.625 -10.779   4.001  1.00  0.00     0.693 A 
HETATM   16  N6  UNL     1       6.767 -10.329   4.927  1.00  0.00    -0.185 N 
HETATM   17  C8  UNL     1       7.035 -10.942   6.089  1.00  0.00     0.215 A 
ATOM     18  H6  UNL     1       6.034  -9.637   4.774  1.00  0.00     0.185 HD
HETATM   19  N7  UNL     1       8.066 -11.768   5.854  1.00  0.00    -0.281 N 
HETATM   20  N8  UNL     1       8.431 -11.677   4.587  1.00  0.00    -0.131 N 
ATOM     21  H7  UNL     1       8.502 -12.376   6.547  1.00  0.00     0.188 HD
ATOM     22  H8  UNL     1       9.187 -12.194   4.138  1.00  0.00     0.205 HD
ENDBRANCH  13  15
ENDBRANCH  12  13
ENDBRANCH  11  12
BRANCH   1  23
HETATM   23  C1  UNL     1       6.781 -15.263   2.808  1.00  0.00     0.174 C 
HETATM   24  N1  UNL     1       6.825 -15.862   3.947  1.00  0.00    -0.395 N 
ATOM     25  H12 UNL     1       6.859 -15.293   4.793  1.00  0.00     0.156 HD
ATOM     26  H11 UNL     1       6.825 -16.880   4.011  1.00  0.00     0.156 HD
ENDBRANCH   1  23
TORSDOF 4
ENDMDL
MODEL 2
REMARK VINA RESULT: -6.712284194      2.378      3.980
REMARK  4 active torsions:
REMARK  status: ('A' for Active; 'I' for Inactive)
REMARK    1  A    between atoms: C1_4  and  N2_5 
REMARK    2  A    between atoms: C5_15  and  C6_16 
REMARK    3  A    between atoms: C6_16  and  N5_17 
REMARK    4  A    between atoms: N5_17  and  C7_19 
ROOT
HETATM    1  N2  UNL     1       6.036 -14.668  -0.686  1.00  0.00    -0.341 N 
ATOM      2  H2  UNL     1       5.746 -13.700  -0.825  1.00  0.00     0.167 HD
HETATM    3  C2  UNL     1       6.095 -15.155   0.503  1.00  0.00     0.111 C 
HETATM    4  N3  UNL     1       6.500 -16.502   0.676  1.00  0.00    -0.376 N 
ATOM      5  H3  UNL     1       6.587 -17.103  -0.144  1.00  0.00     0.160 HD
HETATM    6  C3  UNL     1       6.797 -17.057   1.998  1.00  0.00     0.148 C 
HETATM    7  C4  UNL     1       6.693 -15.969   3.039  1.00  0.00     0.253 C 
HETATM    8  N4  UNL     1       5.490 -15.209   2.781  1.00  0.00    -0.061 N 
ATOM      9  H41 UNL     1       5.150 -14.720   3.608  1.00  0.00     0.278 HD
ATOM     10  H42 UNL     1       4.677 -15.805   2.627  1.00  0.00     0.278 HD
HETATM   11  C5  UNL     1       5.744 -14.315   1.670  1.00  0.00     0.270 C 
ENDROOT
BRANCH  11  12
HETATM   12  C6  UNL     1       4.491 -13.479   1.386  1.00  0.00     0.179 C 
BRANCH  12  13
HETATM   13  N5  UNL     1       4.908 -12.154   1.035  1.00  0.00    -0.222 N 
ATOM     14  H5  UNL     1       4.543 -11.745   0.174  1.00  0.00     0.177 HD
BRANCH  13  15
HETATM   15  C7  UNL     1       5.722 -11.448   1.752  1.00  0.00     0.693 A 
HETATM   16  N6  UNL     1       5.567 -11.127   3.044  1.00  0.00    -0.185 N 
HETATM   17  C8  UNL     1       6.618 -10.389   3.429  1.00  0.00     0.215 A 
ATOM     18  H6  UNL     1       4.781 -11.398   3.636  1.00  0.00     0.185 HD
HETATM   19  N7  UNL     1       7.410 -10.268   2.353  1.00  0.00    -0.281 N 
HETATM   20  N8  UNL     1       6.874 -10.909   1.329  1.00  0.00    -0.131 N 
ATOM     21  H7  UNL     1       8.294  -9.759   2.329  1.00  0.00     0.188 HD
ATOM     22  H8  UNL     1       7.266 -10.980   0.390  1.00  0.00     0.205 HD
ENDBRANCH  13  15
ENDBRANCH  12  13
ENDBRANCH  11  12
BRANCH   1  23
HETATM   23  C1  UNL     1       6.371 -15.472  -1.806  1.00  0.00     0.174 C 
HETATM   24  N1  UNL     1       7.058 -14.998  -2.788  1.00  0.00    -0.395 N 
ATOM     25  H12 UNL     1       7.358 -14.024  -2.744  1.00  0.00     0.156 HD
ATOM     26  H11 UNL     1       7.299 -15.576  -3.593  1.00  0.00     0.156 HD
ENDBRANCH   1  23
TORSDOF 4
ENDMDL
MODEL 3
REMARK VINA RESULT: -6.691473675      1.988      3.381
REMARK  4 active torsions:
REMARK  status: ('A' for Active; 'I' for Inactive)
REMARK    1  A    between atoms: C1_4  and  N2_5 
REMARK    2  A    between atoms: C5_15  and  C6_16 
REMARK    3  A    between atoms: C6_16  and  N5_17 
REMARK    4  A    between atoms: N5_17  and  C7_19 
ROOT
HETATM    1  N2  UNL     1       6.285 -14.763   0.123  1.00  0.00    -0.341 N 
ATOM      2  H2  UNL     1       6.614 -13.804   0.009  1.00  0.00     0.167 HD
HETATM    3  C2  UNL     1       6.304 -15.314   1.285  1.00  0.00     0.111 C 
HETATM    4  N3  UNL     1       5.844 -16.646   1.423  1.00  0.00    -0.376 N 
ATOM      5  H3  UNL     1       5.366 -17.090   0.639  1.00  0.00     0.160 HD
HETATM    6  C3  UNL     1       6.035 -17.406   2.660  1.00  0.00     0.148 C 
HETATM    7  C4  UNL     1       6.843 -16.588   3.638  1.00  0.00     0.253 C 
HETATM    8  N4  UNL     1       6.319 -15.240   3.641  1.00  0.00    -0.061 N 
ATOM      9  H41 UNL     1       6.538 -14.736   4.500  1.00  0.00     0.278 HD
ATOM     10  H42 UNL     1       5.302 -15.216   3.720  1.00  0.00     0.278 HD
HETATM   11  C5  UNL     1       6.802 -14.560   2.458  1.00  0.00     0.270 C 
ENDROOT
BRANCH  11  12
HETATM   12  C6  UNL     1       6.280 -13.119   2.444  1.00  0.00     0.179 C 
BRANCH  12  13
HETATM   13  N5  UNL     1       7.311 -12.263   2.953  1.00  0.00    -0.222 N 
ATOM     14  H5  UNL     1       8.119 -12.075   2.361  1.00  0.00     0.177 HD
BRANCH  13  15
HETATM   15  C7  UNL     1       7.269 -11.718   4.127  1.00  0.00     0.693 A 
HETATM   16  N6  UNL     1       6.340 -10.859   4.570  1.00  0.00    -0.185 N 
HETATM   17  C8  UNL     1       6.642 -10.520   5.831  1.00  0.00     0.215 A 
ATOM     18  H6  UNL     1       5.539 -10.520   4.038  1.00  0.00     0.185 HD
HETATM   19  N7  UNL     1       7.765 -11.185   6.145  1.00  0.00    -0.281 N 
HETATM   20  N8  UNL     1       8.153 -11.915   5.115  1.00  0.00    -0.131 N 
ATOM     21  H7  UNL     1       8.246 -11.134   7.043  1.00  0.00     0.188 HD
ATOM     22  H8  UNL     1       8.975 -12.519   5.080  1.00  0.00     0.205 HD
ENDBRANCH  13  15
ENDBRANCH  12  13
ENDBRANCH  11  12
BRANCH   1  23
HETATM   23  C1  UNL     1       5.808 -15.484  -1.002  1.00  0.00     0.174 C 
HETATM   24  N1  UNL     1       6.208 -15.205  -2.195  1.00  0.00    -0.395 N 
ATOM     25  H12 UNL     1       6.881 -14.448  -2.316  1.00  0.00     0.156 HD
ATOM     26  H11 UNL     1       5.866 -15.723  -3.003  1.00  0.00     0.156 HD
ENDBRANCH   1  23
TORSDOF 4
ENDMDL
MODEL 4
REMARK VINA RESULT: -6.425015872      2.129      2.637
REMARK  4 active torsions:
REMARK  status: ('A' for Active; 'I' for Inactive)
REMARK    1  A    between atoms: C1_4  and  N2_5 
REMARK    2  A    between atoms: C5_15  and  C6_16 
REMARK    3  A    between atoms: C6_16  and  N5_17 
REMARK    4  A    between atoms: N5_17  and  C7_19 
ROOT
HETATM    1  N2  UNL     1       7.934 -15.877   2.130  1.00  0.00    -0.341 N 
ATOM      2  H2  UNL     1       8.089 -15.428   3.032  1.00  0.00     0.167 HD
HETATM    3  C2  UNL     1       6.951 -15.503   1.388  1.00  0.00     0.111 C 
HETATM    4  N3  UNL     1       6.750 -16.140   0.138  1.00  0.00    -0.376 N 
ATOM      5  H3  UNL     1       7.470 -16.769  -0.219  1.00  0.00     0.160 HD
HETATM    6  C3  UNL     1       5.540 -15.921  -0.656  1.00  0.00     0.148 C 
HETATM    7  C4  UNL     1       4.585 -15.037   0.109  1.00  0.00     0.253 C 
HETATM    8  N4  UNL     1       5.339 -13.939   0.673  1.00  0.00    -0.061 N 
ATOM      9  H41 UNL     1       4.756 -13.127   0.876  1.00  0.00     0.278 HD
ATOM     10  H42 UNL     1       5.959 -13.500  -0.007  1.00  0.00     0.278 HD
HETATM   11  C5  UNL     1       6.046 -14.423   1.840  1.00  0.00     0.270 C 
ENDROOT
BRANCH  11  12
HETATM   12  C6  UNL     1       6.838 -13.275   2.475  1.00  0.00     0.179 C 
BRANCH  12  13
HETATM   13  N5  UNL     1       6.701 -13.368   3.898  1.00  0.00    -0.222 N 
ATOM     14  H5  UNL     1       6.454 -14.271   4.302  1.00  0.00     0.177 HD
BRANCH  13  15
HETATM   15  C7  UNL     1       6.874 -12.365   4.698  1.00  0.00     0.693 A 
HETATM   16  N6  UNL     1       5.949 -11.463   5.053  1.00  0.00    -0.185 N 
HETATM   17  C8  UNL     1       6.512 -10.583   5.893  1.00  0.00     0.215 A 
ATOM     18  H6  UNL     1       4.979 -11.447   4.736  1.00  0.00     0.185 HD
HETATM   19  N7  UNL     1       7.789 -10.965   6.043  1.00  0.00    -0.281 N 
HETATM   20  N8  UNL     1       8.019 -12.047   5.321  1.00  0.00    -0.131 N 
ATOM     21  H7  UNL     1       8.479 -10.491   6.626  1.00  0.00     0.188 HD
ATOM     22  H8  UNL     1       8.904 -12.548   5.250  1.00  0.00     0.205 HD
ENDBRANCH  13  15
ENDBRANCH  12  13
ENDBRANCH  11  12
BRANCH   1  23
HETATM   23  C1  UNL     1       8.802 -16.912   1.697  1.00  0.00     0.174 C 
HETATM   24  N1  UNL     1      10.061 -16.888   1.972  1.00  0.00    -0.395 N 
ATOM     25  H12 UNL     1      10.424 -16.102   2.512  1.00  0.00     0.156 HD
ATOM     26  H11 UNL     1      10.685 -17.632   1.662  1.00  0.00     0.156 HD
ENDBRANCH   1  23
TORSDOF 4
ENDMDL
MODEL 5
REMARK VINA RESULT: -6.347535563      2.113      3.353
REMARK  4 active torsions:
REMARK  status: ('A' for Active; 'I' for Inactive)
REMARK    1  A    between atoms: C1_4  and  N2_5 
REMARK    2  A    between atoms: C5_15  and  C6_16 
REMARK    3  A    between atoms: C6_16  and  N5_17 
REMARK    4  A    between atoms: N5_17  and  C7_19 
ROOT
HETATM    1  N2  UNL     1       5.601 -15.974   2.610  1.00  0.00    -0.341 N 
ATOM      2  H2  UNL     1       4.747 -15.563   2.987  1.00  0.00     0.167 HD
HETATM    3  C2  UNL     1       5.970 -15.697   1.409  1.00  0.00     0.111 C 
HETATM    4  N3  UNL     1       7.160 -16.277   0.903  1.00  0.00    -0.376 N 
ATOM      5  H3  UNL     1       7.779 -16.775   1.543  1.00  0.00     0.160 HD
HETATM    6  C3  UNL     1       7.525 -16.183  -0.511  1.00  0.00     0.148 C 
HETATM    7  C4  UNL     1       6.422 -15.491  -1.275  1.00  0.00     0.253 C 
HETATM    8  N4  UNL     1       6.002 -14.335  -0.514  1.00  0.00    -0.061 N 
ATOM      9  H41 UNL     1       5.551 -13.627  -1.094  1.00  0.00     0.278 HD
ATOM     10  H42 UNL     1       6.789 -13.772  -0.192  1.00  0.00     0.278 HD
HETATM   11  C5  UNL     1       5.158 -14.785   0.573  1.00  0.00     0.270 C 
ENDROOT
BRANCH  11  12
HETATM   12  C6  UNL     1       4.678 -13.578   1.386  1.00  0.00     0.179 C 
BRANCH  12  13
HETATM   13  N5  UNL     1       5.399 -12.422   0.940  1.00  0.00    -0.222 N 
ATOM     14  H5  UNL     1       5.437 -12.232  -0.062  1.00  0.00     0.177 HD
BRANCH  13  15
HETATM   15  C7  UNL     1       6.004 -11.606   1.742  1.00  0.00     0.693 A 
HETATM   16  N6  UNL     1       5.712 -11.400   3.034  1.00  0.00    -0.185 N 
HETATM   17  C8  UNL     1       6.560 -10.484   3.522  1.00  0.00     0.215 A 
ATOM     18  H6  UNL     1       4.969 -11.863   3.558  1.00  0.00     0.185 HD
HETATM   19  N7  UNL     1       7.369 -10.138   2.508  1.00  0.00    -0.281 N 
HETATM   20  N8  UNL     1       7.039 -10.815   1.423  1.00  0.00    -0.131 N 
ATOM     21  H7  UNL     1       8.125  -9.456   2.567  1.00  0.00     0.188 HD
ATOM     22  H8  UNL     1       7.489 -10.748   0.510  1.00  0.00     0.205 HD
ENDBRANCH  13  15
ENDBRANCH  12  13
ENDBRANCH  11  12
BRANCH   1  23
HETATM   23  C1  UNL     1       6.379 -16.847   3.414  1.00  0.00     0.174 C 
HETATM   24  N1  UNL     1       7.132 -16.397   4.356  1.00  0.00    -0.395 N 
ATOM     25  H12 UNL     1       7.159 -15.390   4.516  1.00  0.00     0.156 HD
ATOM     26  H11 UNL     1       7.691 -17.025   4.934  1.00  0.00     0.156 HD
ENDBRANCH   1  23
TORSDOF 4
ENDMDL
