MODEL 1
REMARK VINA RESULT: -6.916410921      0.000      0.000
REMARK  2 active torsions:
REMARK  status: ('A' for Active; 'I' for Inactive)
REMARK    1  A    between atoms: N1_1  and  C1_4 
REMARK    2  A    between atoms: N4_12  and  C4_14 
ROOT
HETATM    1  C1  UNL     1       6.354 -11.129   4.868  1.00  0.00     0.694 A 
HETATM    2  N2  UNL     1       6.408 -10.386   3.747  1.00  0.00    -0.141 N 
ATOM      3  H2  UNL     1       6.370  -9.369   3.816  1.00  0.00     0.189 HD
HETATM    4  C2  UNL     1       6.510 -10.965   2.536  1.00  0.00     0.352 A 
HETATM    5  O1  UNL     1       6.560 -10.253   1.478  1.00  0.00    -0.246 OA
HETATM    6  N3  UNL     1       6.563 -12.317   2.392  1.00  0.00    -0.140 N 
ATOM      7  H3  UNL     1       6.641 -12.750   1.472  1.00  0.00     0.189 HD
HETATM    8  C3  UNL     1       6.510 -13.056   3.505  1.00  0.00     0.697 A 
HETATM    9  N4  UNL     1       6.557 -14.341   3.418  1.00  0.00    -0.205 N 
ATOM     10  H4  UNL     1       6.518 -14.907   4.265  1.00  0.00     0.179 HD
HETATM   11  N6  UNL     1       6.406 -12.460   4.730  1.00  0.00    -0.022 N 
ATOM     12  H6  UNL     1       6.367 -13.046   5.564  1.00  0.00     0.203 HD
ENDROOT
BRANCH   9  13
HETATM   13  C4  UNL     1       6.665 -14.975   2.148  1.00  0.00     0.262 C 
HETATM   14  C5  UNL     1       7.143 -16.374   2.223  1.00  0.00     0.176 C 
HETATM   15  O2  UNL     1       7.787 -16.857   3.113  1.00  0.00    -0.293 OA
HETATM   16  C6  UNL     1       6.674 -17.051   0.998  1.00  0.00     0.203 C 
HETATM   17  N5  UNL     1       5.341 -16.446   0.837  1.00  0.00    -0.352 N 
HETATM   18  C7  UNL     1       5.303 -15.215   1.535  1.00  0.00     0.248 C 
ATOM     19  H5  UNL     1       4.569 -16.850   0.307  1.00  0.00     0.162 HD
HETATM   20  O3  UNL     1       4.340 -14.435   1.649  1.00  0.00    -0.271 OA
ENDBRANCH   9  13
BRANCH   1  21
HETATM   21  N1  UNL     1       6.256 -10.586   6.035  1.00  0.00    -0.234 N 
ATOM     22  H12 UNL     1       6.784  -9.745   6.269  1.00  0.00     0.174 HD
ATOM     23  H11 UNL     1       5.651 -10.977   6.757  1.00  0.00     0.174 HD
ENDBRANCH   1  21
TORSDOF 2
ENDMDL
MODEL 2
REMARK VINA RESULT: -6.776037998      2.535      3.149
REMARK  2 active torsions:
REMARK  status: ('A' for Active; 'I' for Inactive)
REMARK    1  A    between atoms: N1_1  and  C1_4 
REMARK    2  A    between atoms: N4_12  and  C4_14 
ROOT
HETATM    1  C1  UNL     1       6.395 -13.097   3.280  1.00  0.00     0.694 A 
HETATM    2  N2  UNL     1       5.376 -12.340   2.832  1.00  0.00    -0.141 N 
ATOM      3  H2  UNL     1       5.076 -11.530   3.373  1.00  0.00     0.189 HD
HETATM    4  C2  UNL     1       4.747 -12.636   1.678  1.00  0.00     0.352 A 
HETATM    5  O1  UNL     1       3.782 -11.913   1.261  1.00  0.00    -0.246 OA
HETATM    6  N3  UNL     1       5.111 -13.706   0.920  1.00  0.00    -0.140 N 
ATOM      7  H3  UNL     1       4.631 -13.925   0.047  1.00  0.00     0.189 HD
HETATM    8  C3  UNL     1       6.122 -14.459   1.364  1.00  0.00     0.697 A 
HETATM    9  N4  UNL     1       6.502 -15.482   0.680  1.00  0.00    -0.205 N 
ATOM     10  H4  UNL     1       7.274 -16.058   1.015  1.00  0.00     0.179 HD
HETATM   11  N6  UNL     1       6.755 -14.150   2.536  1.00  0.00    -0.022 N 
ATOM     12  H6  UNL     1       7.524 -14.741   2.853  1.00  0.00     0.203 HD
ENDROOT
BRANCH   9  13
HETATM   13  C4  UNL     1       5.852 -15.815  -0.542  1.00  0.00     0.262 C 
HETATM   14  C5  UNL     1       6.785 -16.023  -1.673  1.00  0.00     0.176 C 
HETATM   15  O2  UNL     1       7.895 -15.577  -1.768  1.00  0.00    -0.293 OA
HETATM   16  C6  UNL     1       6.086 -16.880  -2.651  1.00  0.00     0.203 C 
HETATM   17  N5  UNL     1       5.366 -17.798  -1.753  1.00  0.00    -0.352 N 
HETATM   18  C7  UNL     1       5.234 -17.194  -0.479  1.00  0.00     0.248 C 
ATOM     19  H5  UNL     1       5.018 -18.722  -2.008  1.00  0.00     0.162 HD
HETATM   20  O3  UNL     1       4.708 -17.677   0.540  1.00  0.00    -0.271 OA
ENDBRANCH   9  13
BRANCH   1  21
HETATM   21  N1  UNL     1       7.006 -12.824   4.384  1.00  0.00    -0.234 N 
ATOM     22  H12 UNL     1       6.824 -11.953   4.883  1.00  0.00     0.174 HD
ATOM     23  H11 UNL     1       7.687 -13.464   4.790  1.00  0.00     0.174 HD
ENDBRANCH   1  21
TORSDOF 2
ENDMDL
MODEL 3
REMARK VINA RESULT: -6.719415093      1.951      2.260
REMARK  2 active torsions:
REMARK  status: ('A' for Active; 'I' for Inactive)
REMARK    1  A    between atoms: N1_1  and  C1_4 
REMARK    2  A    between atoms: N4_12  and  C4_14 
ROOT
HETATM    1  C1  UNL     1       6.876 -11.043   2.703  1.00  0.00     0.694 A 
HETATM    2  N2  UNL     1       5.626 -10.803   2.267  1.00  0.00    -0.141 N 
ATOM      3  H2  UNL     1       5.298  -9.841   2.187  1.00  0.00     0.189 HD
HETATM    4  C2  UNL     1       4.801 -11.814   1.935  1.00  0.00     0.352 A 
HETATM    5  O1  UNL     1       3.617 -11.577   1.522  1.00  0.00    -0.246 OA
HETATM    6  N3  UNL     1       5.192 -13.114   2.024  1.00  0.00    -0.140 N 
ATOM      7  H3  UNL     1       4.563 -13.876   1.771  1.00  0.00     0.189 HD
HETATM    8  C3  UNL     1       6.433 -13.355   2.458  1.00  0.00     0.697 A 
HETATM    9  N4  UNL     1       6.847 -14.570   2.559  1.00  0.00    -0.205 N 
ATOM     10  H4  UNL     1       7.795 -14.757   2.888  1.00  0.00     0.179 HD
HETATM   11  N6  UNL     1       7.264 -12.322   2.793  1.00  0.00    -0.022 N 
ATOM     12  H6  UNL     1       8.207 -12.532   3.121  1.00  0.00     0.203 HD
ENDROOT
BRANCH   9  13
HETATM   13  C4  UNL     1       5.993 -15.656   2.214  1.00  0.00     0.262 C 
HETATM   14  C5  UNL     1       6.536 -16.519   1.140  1.00  0.00     0.176 C 
HETATM   15  O2  UNL     1       7.347 -16.201   0.316  1.00  0.00    -0.293 OA
HETATM   16  C6  UNL     1       5.887 -17.837   1.286  1.00  0.00     0.203 C 
HETATM   17  N5  UNL     1       5.831 -17.962   2.751  1.00  0.00    -0.352 N 
HETATM   18  C7  UNL     1       5.916 -16.672   3.330  1.00  0.00     0.248 C 
ATOM     19  H5  UNL     1       5.745 -18.838   3.267  1.00  0.00     0.162 HD
HETATM   20  O3  UNL     1       5.928 -16.382   4.540  1.00  0.00    -0.271 OA
ENDBRANCH   9  13
BRANCH   1  21
HETATM   21  N1  UNL     1       7.677 -10.083   3.025  1.00  0.00    -0.234 N 
ATOM     22  H12 UNL     1       8.664 -10.116   2.774  1.00  0.00     0.174 HD
ATOM     23  H11 UNL     1       7.351  -9.265   3.539  1.00  0.00     0.174 HD
ENDBRANCH   1  21
TORSDOF 2
ENDMDL
MODEL 4
REMARK VINA RESULT: -6.606739944      2.605      3.766
REMARK  2 active torsions:
REMARK  status: ('A' for Active; 'I' for Inactive)
REMARK    1  A    between atoms: N1_1  and  C1_4 
REMARK    2  A    between atoms: N4_12  and  C4_14 
ROOT
HETATM    1  C1  UNL     1       5.323 -12.289   2.096  1.00  0.00     0.694 A 
HETATM    2  N2  UNL     1       5.647 -13.021   3.179  1.00  0.00    -0.141 N 
ATOM      3  H2  UNL     1       5.521 -12.623   4.109  1.00  0.00     0.189 HD
HETATM    4  C2  UNL     1       6.135 -14.269   3.052  1.00  0.00     0.352 A 
HETATM    5  O1  UNL     1       6.440 -14.955   4.083  1.00  0.00    -0.246 OA
HETATM    6  N3  UNL     1       6.321 -14.843   1.832  1.00  0.00    -0.140 N 
ATOM      7  H3  UNL     1       6.691 -15.789   1.741  1.00  0.00     0.189 HD
HETATM    8  C3  UNL     1       6.000 -14.118   0.756  1.00  0.00     0.697 A 
HETATM    9  N4  UNL     1       6.158 -14.620  -0.420  1.00  0.00    -0.205 N 
ATOM     10  H4  UNL     1       5.913 -14.070  -1.243  1.00  0.00     0.179 HD
HETATM   11  N6  UNL     1       5.505 -12.851   0.895  1.00  0.00    -0.022 N 
ATOM     12  H6  UNL     1       5.267 -12.319   0.058  1.00  0.00     0.203 HD
ENDROOT
BRANCH   9  13
HETATM   13  C4  UNL     1       6.673 -15.938  -0.579  1.00  0.00     0.262 C 
HETATM   14  C5  UNL     1       5.639 -16.993  -0.488  1.00  0.00     0.176 C 
HETATM   15  O2  UNL     1       4.579 -16.902   0.067  1.00  0.00    -0.293 OA
HETATM   16  C6  UNL     1       6.165 -18.169  -1.210  1.00  0.00     0.203 C 
HETATM   17  N5  UNL     1       6.849 -17.520  -2.341  1.00  0.00    -0.352 N 
HETATM   18  C7  UNL     1       7.143 -16.178  -1.997  1.00  0.00     0.248 C 
ATOM     19  H5  UNL     1       7.076 -17.965  -3.230  1.00  0.00     0.162 HD
HETATM   20  O3  UNL     1       7.691 -15.314  -2.706  1.00  0.00    -0.271 OA
ENDBRANCH   9  13
BRANCH   1  21
HETATM   21  N1  UNL     1       4.854 -11.091   2.205  1.00  0.00    -0.234 N 
ATOM     22  H12 UNL     1       5.462 -10.279   2.102  1.00  0.00     0.174 HD
ATOM     23  H11 UNL     1       3.868 -10.918   2.396  1.00  0.00     0.174 HD
ENDBRANCH   1  21
TORSDOF 2
ENDMDL
MODEL 5
REMARK VINA RESULT: -6.604814589      1.530      1.733
REMARK  2 active torsions:
REMARK  status: ('A' for Active; 'I' for Inactive)
REMARK    1  A    between atoms: N1_1  and  C1_4 
REMARK    2  A    between atoms: N4_12  and  C4_14 
ROOT
HETATM    1  C1  UNL     1       6.806 -11.448   4.468  1.00  0.00     0.694 A 
HETATM    2  N2  UNL     1       5.901 -10.980   3.589  1.00  0.00    -0.141 N 
ATOM      3  H2  UNL     1       5.664  -9.988   3.592  1.00  0.00     0.189 HD
HETATM    4  C2  UNL     1       5.303 -11.801   2.705  1.00  0.00     0.352 A 
HETATM    5  O1  UNL     1       4.447 -11.349   1.874  1.00  0.00    -0.246 OA
HETATM    6  N3  UNL     1       5.586 -13.132   2.661  1.00  0.00    -0.140 N 
ATOM      7  H3  UNL     1       5.131 -13.750   1.989  1.00  0.00     0.189 HD
HETATM    8  C3  UNL     1       6.484 -13.599   3.535  1.00  0.00     0.697 A 
HETATM    9  N4  UNL     1       6.784 -14.851   3.531  1.00  0.00    -0.205 N 
ATOM     10  H4  UNL     1       7.470 -15.210   4.195  1.00  0.00     0.179 HD
HETATM   11  N6  UNL     1       7.085 -12.757   4.428  1.00  0.00    -0.022 N 
ATOM     12  H6  UNL     1       7.768 -13.137   5.084  1.00  0.00     0.203 HD
ENDROOT
BRANCH   9  13
HETATM   13  C4  UNL     1       6.165 -15.739   2.606  1.00  0.00     0.262 C 
HETATM   14  C5  UNL     1       7.098 -16.287   1.595  1.00  0.00     0.176 C 
HETATM   15  O2  UNL     1       8.133 -15.793   1.244  1.00  0.00    -0.293 OA
HETATM   16  C6  UNL     1       6.507 -17.551   1.111  1.00  0.00     0.203 C 
HETATM   17  N5  UNL     1       5.938 -18.089   2.358  1.00  0.00    -0.352 N 
HETATM   18  C7  UNL     1       5.746 -17.028   3.276  1.00  0.00     0.248 C 
ATOM     19  H5  UNL     1       5.718 -19.070   2.532  1.00  0.00     0.162 HD
HETATM   20  O3  UNL     1       5.310 -17.100   4.439  1.00  0.00    -0.271 OA
ENDBRANCH   9  13
BRANCH   1  21
HETATM   21  N1  UNL     1       7.385 -10.671   5.321  1.00  0.00    -0.234 N 
ATOM     22  H12 UNL     1       8.348 -10.365   5.183  1.00  0.00     0.174 HD
ATOM     23  H11 UNL     1       6.903 -10.340   6.156  1.00  0.00     0.174 HD
ENDBRANCH   1  21
TORSDOF 2
ENDMDL
