MODEL 1
REMARK VINA RESULT: -6.757068825      0.000      0.000
REMARK  7 active torsions:
REMARK  status: ('A' for Active; 'I' for Inactive)
REMARK    1  A    between atoms: N1_1  and  C1_4 
REMARK    2  A    between atoms: C2_9  and  C3_10 
REMARK    3  A    between atoms: C3_10  and  N4_11 
REMARK    4  A    between atoms: C6_18  and  C7_19 
REMARK    5  A    between atoms: C8_20  and  C9_21 
REMARK    6  A    between atoms: C9_21  and  N7_22 
REMARK    7  A    between atoms: C9_21  and  O1_26 
ROOT
HETATM    1  C1  UNL     1       4.432 -12.955   1.236  1.00  0.00     0.134 A 
HETATM    2  N2  UNL     1       4.439 -11.671   0.865  1.00  0.00    -0.284 N 
ATOM      3  H2  UNL     1       3.718 -11.232   0.293  1.00  0.00     0.188 HD
HETATM    4  N3  UNL     1       5.502 -11.048   1.335  1.00  0.00    -0.300 N 
ATOM      5  H3  UNL     1       5.721 -10.064   1.183  1.00  0.00     0.186 HD
HETATM    6  C2  UNL     1       6.269 -11.926   2.061  1.00  0.00     0.068 A 
HETATM    7  C6  UNL     1       5.595 -13.120   1.997  1.00  0.00     0.088 A 
ENDROOT
BRANCH   7   8
HETATM    8  C7  UNL     1       6.012 -14.356   2.627  1.00  0.00    -0.057 C 
HETATM    9  C8  UNL     1       6.343 -15.408   3.149  1.00  0.00    -0.041 C 
BRANCH   9  10
HETATM   10  C9  UNL     1       6.749 -16.679   3.758  1.00  0.00     0.398 C 
BRANCH  10  11
HETATM   11  N7  UNL     1       8.050 -17.074   3.308  1.00  0.00    -0.042 N 
ATOM     12  H73 UNL     1       8.207 -16.809   2.335  1.00  0.00     0.278 HD
ATOM     13  H72 UNL     1       8.784 -16.515   3.742  1.00  0.00     0.278 HD
ATOM     14  H71 UNL     1       8.201 -18.072   3.454  1.00  0.00     0.278 HD
ENDBRANCH  10  11
BRANCH  10  15
HETATM   15  O1  UNL     1       5.750 -17.612   3.402  1.00  0.00    -0.361 OA
ATOM     16  H1  UNL     1       5.414 -17.956   4.221  1.00  0.00     0.213 HD
ENDBRANCH  10  15
ENDBRANCH   9  10
ENDBRANCH   7   8
BRANCH   1  17
HETATM   17  N1  UNL     1       3.598 -13.910   1.002  1.00  0.00    -0.383 N 
ATOM     18  H12 UNL     1       2.587 -13.805   1.090  1.00  0.00     0.157 HD
ATOM     19  H11 UNL     1       3.740 -14.877   0.711  1.00  0.00     0.157 HD
ENDBRANCH   1  17
BRANCH   6  20
HETATM   20  C3  UNL     1       7.547 -11.604   2.735  1.00  0.00     0.210 C 
BRANCH  20  21
HETATM   21  N4  UNL     1       7.437 -11.332   4.136  1.00  0.00    -0.282 N 
HETATM   22  C4  UNL     1       6.495 -10.593   4.731  1.00  0.00     0.130 A 
HETATM   23  C5  UNL     1       6.760 -10.589   6.093  1.00  0.00     0.127 A 
HETATM   24  N5  UNL     1       7.872 -11.341   6.262  1.00  0.00    -0.296 N 
HETATM   25  N6  UNL     1       8.250 -11.770   5.065  1.00  0.00    -0.241 N 
ATOM     26  H5  UNL     1       8.336 -11.541   7.149  1.00  0.00     0.187 HD
ATOM     27  H6  UNL     1       9.063 -12.361   4.891  1.00  0.00     0.208 HD
ENDBRANCH  20  21
ENDBRANCH   6  20
TORSDOF 7
ENDMDL
MODEL 2
REMARK VINA RESULT: -6.486061366      2.859      4.605
REMARK  7 active torsions:
REMARK  status: ('A' for Active; 'I' for Inactive)
REMARK    1  A    between atoms: N1_1  and  C1_4 
REMARK    2  A    between atoms: C2_9  and  C3_10 
REMARK    3  A    between atoms: C3_10  and  N4_11 
REMARK    4  A    between atoms: C6_18  and  C7_19 
REMARK    5  A    between atoms: C8_20  and  C9_21 
REMARK    6  A    between atoms: C9_21  and  N7_22 
REMARK    7  A    between atoms: C9_21  and  O1_26 
ROOT
HETATM    1  C1  UNL     1       7.322 -16.644   2.600  1.00  0.00     0.134 A 
HETATM    2  N2  UNL     1       7.143 -16.323   3.884  1.00  0.00    -0.284 N 
ATOM      3  H2  UNL     1       7.457 -16.892   4.670  1.00  0.00     0.188 HD
HETATM    4  N3  UNL     1       6.505 -15.174   4.002  1.00  0.00    -0.300 N 
ATOM      5  H3  UNL     1       6.257 -14.727   4.884  1.00  0.00     0.186 HD
HETATM    6  C2  UNL     1       6.226 -14.672   2.755  1.00  0.00     0.068 A 
HETATM    7  C6  UNL     1       6.739 -15.596   1.878  1.00  0.00     0.088 A 
ENDROOT
BRANCH   7   8
HETATM    8  C7  UNL     1       6.697 -15.498   0.433  1.00  0.00    -0.057 C 
HETATM    9  C8  UNL     1       6.678 -15.436  -0.785  1.00  0.00    -0.041 C 
BRANCH   9  10
HETATM   10  C9  UNL     1       6.638 -15.375  -2.250  1.00  0.00     0.398 C 
BRANCH  10  11
HETATM   11  N7  UNL     1       5.924 -16.492  -2.793  1.00  0.00    -0.042 N 
ATOM     12  H73 UNL     1       6.543 -17.120  -3.307  1.00  0.00     0.278 HD
ATOM     13  H72 UNL     1       5.623 -17.136  -2.062  1.00  0.00     0.278 HD
ATOM     14  H71 UNL     1       5.141 -16.183  -3.368  1.00  0.00     0.278 HD
ENDBRANCH  10  11
BRANCH  10  15
HETATM   15  O1  UNL     1       7.986 -15.342  -2.670  1.00  0.00    -0.361 OA
ATOM     16  H1  UNL     1       8.254 -14.434  -2.606  1.00  0.00     0.213 HD
ENDBRANCH  10  15
ENDBRANCH   9  10
ENDBRANCH   7   8
BRANCH   1  17
HETATM   17  N1  UNL     1       7.884 -17.660   2.041  1.00  0.00    -0.383 N 
ATOM     18  H12 UNL     1       7.363 -18.402   1.573  1.00  0.00     0.157 HD
ATOM     19  H11 UNL     1       8.865 -17.928   1.952  1.00  0.00     0.157 HD
ENDBRANCH   1  17
BRANCH   6  20
HETATM   20  C3  UNL     1       5.509 -13.408   2.472  1.00  0.00     0.210 C 
BRANCH  20  21
HETATM   21  N4  UNL     1       6.353 -12.269   2.271  1.00  0.00    -0.282 N 
HETATM   22  C4  UNL     1       7.283 -11.810   3.114  1.00  0.00     0.130 A 
HETATM   23  C5  UNL     1       7.866 -10.694   2.531  1.00  0.00     0.127 A 
HETATM   24  N5  UNL     1       7.250 -10.527   1.338  1.00  0.00    -0.296 N 
HETATM   25  N6  UNL     1       6.347 -11.492   1.217  1.00  0.00    -0.241 N 
ATOM     26  H5  UNL     1       7.443  -9.793   0.656  1.00  0.00     0.187 HD
ATOM     27  H6  UNL     1       5.732 -11.612   0.412  1.00  0.00     0.208 HD
ENDBRANCH  20  21
ENDBRANCH   6  20
TORSDOF 7
ENDMDL
MODEL 3
REMARK VINA RESULT: -6.413989264      1.503      4.199
REMARK  7 active torsions:
REMARK  status: ('A' for Active; 'I' for Inactive)
REMARK    1  A    between atoms: N1_1  and  C1_4 
REMARK    2  A    between atoms: C2_9  and  C3_10 
REMARK    3  A    between atoms: C3_10  and  N4_11 
REMARK    4  A    between atoms: C6_18  and  C7_19 
REMARK    5  A    between atoms: C8_20  and  C9_21 
REMARK    6  A    between atoms: C9_21  and  N7_22 
REMARK    7  A    between atoms: C9_21  and  O1_26 
ROOT
HETATM    1  C1  UNL     1       7.251 -11.739   4.663  1.00  0.00     0.134 A 
HETATM    2  N2  UNL     1       6.922 -10.474   4.383  1.00  0.00    -0.284 N 
ATOM      3  H2  UNL     1       7.361  -9.657   4.806  1.00  0.00     0.188 HD
HETATM    4  N3  UNL     1       5.955 -10.424   3.486  1.00  0.00    -0.300 N 
ATOM      5  H3  UNL     1       5.541  -9.568   3.117  1.00  0.00     0.186 HD
HETATM    6  C2  UNL     1       5.592 -11.698   3.127  1.00  0.00     0.068 A 
HETATM    7  C6  UNL     1       6.406 -12.520   3.866  1.00  0.00     0.088 A 
ENDROOT
BRANCH   7   8
HETATM    8  C7  UNL     1       6.402 -13.968   3.822  1.00  0.00    -0.057 C 
HETATM    9  C8  UNL     1       6.409 -15.186   3.761  1.00  0.00    -0.041 C 
BRANCH   9  10
HETATM   10  C9  UNL     1       6.439 -16.652   3.695  1.00  0.00     0.398 C 
BRANCH  10  11
HETATM   11  N7  UNL     1       7.774 -17.133   3.504  1.00  0.00    -0.042 N 
ATOM     12  H73 UNL     1       8.310 -16.519   2.889  1.00  0.00     0.278 HD
ATOM     13  H72 UNL     1       8.334 -17.032   4.350  1.00  0.00     0.278 HD
ATOM     14  H71 UNL     1       7.773 -18.095   3.167  1.00  0.00     0.278 HD
ENDBRANCH  10  11
BRANCH  10  15
HETATM   15  O1  UNL     1       5.582 -17.005   2.629  1.00  0.00    -0.361 OA
ATOM     16  H1  UNL     1       4.732 -17.163   3.022  1.00  0.00     0.213 HD
ENDBRANCH  10  15
ENDBRANCH   9  10
ENDBRANCH   7   8
BRANCH   1  17
HETATM   17  N1  UNL     1       8.126 -12.238   5.468  1.00  0.00    -0.383 N 
ATOM     18  H12 UNL     1       9.034 -11.809   5.643  1.00  0.00     0.157 HD
ATOM     19  H11 UNL     1       8.113 -13.079   6.045  1.00  0.00     0.157 HD
ENDBRANCH   1  17
BRANCH   6  20
HETATM   20  C3  UNL     1       4.533 -12.054   2.155  1.00  0.00     0.210 C 
BRANCH  20  21
HETATM   21  N4  UNL     1       4.861 -13.133   1.275  1.00  0.00    -0.282 N 
HETATM   22  C4  UNL     1       4.107 -14.206   1.017  1.00  0.00     0.130 A 
HETATM   23  C5  UNL     1       4.796 -14.999   0.111  1.00  0.00     0.127 A 
HETATM   24  N5  UNL     1       5.960 -14.356  -0.143  1.00  0.00    -0.296 N 
HETATM   25  N6  UNL     1       5.963 -13.239   0.574  1.00  0.00    -0.241 N 
ATOM     26  H5  UNL     1       6.700 -14.671  -0.770  1.00  0.00     0.187 HD
ATOM     27  H6  UNL     1       6.720 -12.556   0.579  1.00  0.00     0.208 HD
ENDBRANCH  20  21
ENDBRANCH   6  20
TORSDOF 7
ENDMDL
MODEL 4
REMARK VINA RESULT: -6.354881528      3.721      6.641
REMARK  7 active torsions:
REMARK  status: ('A' for Active; 'I' for Inactive)
REMARK    1  A    between atoms: N1_1  and  C1_4 
REMARK    2  A    between atoms: C2_9  and  C3_10 
REMARK    3  A    between atoms: C3_10  and  N4_11 
REMARK    4  A    between atoms: C6_18  and  C7_19 
REMARK    5  A    between atoms: C8_20  and  C9_21 
REMARK    6  A    between atoms: C9_21  and  N7_22 
REMARK    7  A    between atoms: C9_21  and  O1_26 
ROOT
HETATM    1  C1  UNL     1       6.331 -15.898   2.847  1.00  0.00     0.134 A 
HETATM    2  N2  UNL     1       6.185 -17.163   2.441  1.00  0.00    -0.284 N 
ATOM      3  H2  UNL     1       6.406 -17.981   3.009  1.00  0.00     0.188 HD
HETATM    4  N3  UNL     1       5.718 -17.214   1.209  1.00  0.00    -0.300 N 
ATOM      5  H3  UNL     1       5.525 -18.070   0.688  1.00  0.00     0.186 HD
HETATM    6  C2  UNL     1       5.531 -15.940   0.733  1.00  0.00     0.068 A 
HETATM    7  C6  UNL     1       5.916 -15.117   1.762  1.00  0.00     0.088 A 
ENDROOT
BRANCH   7   8
HETATM    8  C7  UNL     1       5.887 -13.669   1.738  1.00  0.00    -0.057 C 
HETATM    9  C8  UNL     1       5.885 -12.449   1.728  1.00  0.00    -0.041 C 
BRANCH   9  10
HETATM   10  C9  UNL     1       5.894 -10.983   1.697  1.00  0.00     0.398 C 
BRANCH  10  11
HETATM   11  N7  UNL     1       7.168 -10.484   1.273  1.00  0.00    -0.042 N 
ATOM     12  H73 UNL     1       7.320 -10.641   0.277  1.00  0.00     0.278 HD
ATOM     13  H72 UNL     1       7.191  -9.464   1.275  1.00  0.00     0.278 HD
ATOM     14  H71 UNL     1       7.922 -10.878   1.835  1.00  0.00     0.278 HD
ENDBRANCH  10  11
BRANCH  10  15
HETATM   15  O1  UNL     1       5.563 -10.569   3.007  1.00  0.00    -0.361 OA
ATOM     16  H1  UNL     1       4.693 -10.193   2.947  1.00  0.00     0.213 HD
ENDBRANCH  10  15
ENDBRANCH   9  10
ENDBRANCH   7   8
BRANCH   1  17
HETATM   17  N1  UNL     1       6.752 -15.399   3.959  1.00  0.00    -0.383 N 
ATOM     18  H12 UNL     1       7.283 -15.932   4.647  1.00  0.00     0.157 HD
ATOM     19  H11 UNL     1       6.658 -14.466   4.361  1.00  0.00     0.157 HD
ENDBRANCH   1  17
BRANCH   6  20
HETATM   20  C3  UNL     1       5.031 -15.585  -0.615  1.00  0.00     0.210 C 
BRANCH  20  21
HETATM   21  N4  UNL     1       5.984 -15.742  -1.671  1.00  0.00    -0.282 N 
HETATM   22  C4  UNL     1       6.321 -16.886  -2.274  1.00  0.00     0.130 A 
HETATM   23  C5  UNL     1       7.273 -16.591  -3.238  1.00  0.00     0.127 A 
HETATM   24  N5  UNL     1       7.472 -15.254  -3.174  1.00  0.00    -0.296 N 
HETATM   25  N6  UNL     1       6.680 -14.778  -2.221  1.00  0.00    -0.241 N 
ATOM     26  H5  UNL     1       8.114 -14.710  -3.752  1.00  0.00     0.187 HD
ATOM     27  H6  UNL     1       6.621 -13.796  -1.953  1.00  0.00     0.208 HD
ENDBRANCH  20  21
ENDBRANCH   6  20
TORSDOF 7
ENDMDL
MODEL 5
REMARK VINA RESULT: -6.344026339      2.859      4.143
REMARK  7 active torsions:
REMARK  status: ('A' for Active; 'I' for Inactive)
REMARK    1  A    between atoms: N1_1  and  C1_4 
REMARK    2  A    between atoms: C2_9  and  C3_10 
REMARK    3  A    between atoms: C3_10  and  N4_11 
REMARK    4  A    between atoms: C6_18  and  C7_19 
REMARK    5  A    between atoms: C8_20  and  C9_21 
REMARK    6  A    between atoms: C9_21  and  N7_22 
REMARK    7  A    between atoms: C9_21  and  O1_26 
ROOT
HETATM    1  C1  UNL     1       6.970 -16.736   2.604  1.00  0.00     0.134 A 
HETATM    2  N2  UNL     1       6.894 -16.347   3.880  1.00  0.00    -0.284 N 
ATOM      3  H2  UNL     1       7.000 -16.970   4.680  1.00  0.00     0.188 HD
HETATM    4  N3  UNL     1       6.665 -15.051   3.968  1.00  0.00    -0.300 N 
ATOM      5  H3  UNL     1       6.569 -14.528   4.838  1.00  0.00     0.186 HD
HETATM    6  C2  UNL     1       6.575 -14.512   2.708  1.00  0.00     0.068 A 
HETATM    7  C6  UNL     1       6.766 -15.571   1.855  1.00  0.00     0.088 A 
ENDROOT
BRANCH   7   8
HETATM    8  C7  UNL     1       6.771 -15.496   0.409  1.00  0.00    -0.057 C 
HETATM    9  C8  UNL     1       6.789 -15.453  -0.810  1.00  0.00    -0.041 C 
BRANCH   9  10
HETATM   10  C9  UNL     1       6.794 -15.416  -2.277  1.00  0.00     0.398 C 
BRANCH  10  11
HETATM   11  N7  UNL     1       5.982 -16.462  -2.822  1.00  0.00    -0.042 N 
ATOM     12  H73 UNL     1       5.996 -16.456  -3.842  1.00  0.00     0.278 HD
ATOM     13  H72 UNL     1       6.398 -17.380  -2.666  1.00  0.00     0.278 HD
ATOM     14  H71 UNL     1       5.030 -16.415  -2.459  1.00  0.00     0.278 HD
ENDBRANCH  10  11
BRANCH  10  15
HETATM   15  O1  UNL     1       8.149 -15.532  -2.659  1.00  0.00    -0.361 OA
ATOM     16  H1  UNL     1       8.142 -15.939  -3.517  1.00  0.00     0.213 HD
ENDBRANCH  10  15
ENDBRANCH   9  10
ENDBRANCH   7   8
BRANCH   1  17
HETATM   17  N1  UNL     1       7.175 -17.892   2.072  1.00  0.00    -0.383 N 
ATOM     18  H12 UNL     1       7.995 -18.110   1.506  1.00  0.00     0.157 HD
ATOM     19  H11 UNL     1       6.628 -18.753   2.090  1.00  0.00     0.157 HD
ENDBRANCH   1  17
BRANCH   6  20
HETATM   20  C3  UNL     1       6.312 -13.089   2.393  1.00  0.00     0.210 C 
BRANCH  20  21
HETATM   21  N4  UNL     1       6.772 -12.159   3.378  1.00  0.00    -0.282 N 
HETATM   22  C4  UNL     1       6.033 -11.573   4.325  1.00  0.00     0.130 A 
HETATM   23  C5  UNL     1       6.870 -10.749   5.064  1.00  0.00     0.127 A 
HETATM   24  N5  UNL     1       8.102 -10.877   4.518  1.00  0.00    -0.296 N 
HETATM   25  N6  UNL     1       8.004 -11.732   3.508  1.00  0.00    -0.241 N 
ATOM     26  H5  UNL     1       8.951 -10.403   4.827  1.00  0.00     0.187 HD
ATOM     27  H6  UNL     1       8.782 -12.019   2.914  1.00  0.00     0.208 HD
ENDBRANCH  20  21
ENDBRANCH   6  20
TORSDOF 7
ENDMDL
