MODEL 1
REMARK VINA RESULT: -10.462782645      0.000      0.000
REMARK  8 active torsions:
REMARK  status: ('A' for Active; 'I' for Inactive)
REMARK    1  A    between atoms: N1_1  and  N2_4 
REMARK       I    between atoms: N2_4  and  C1_6 
REMARK    2  A    between atoms: C1_6  and  C2_8 
REMARK    3  A    between atoms: C3_13  and  N5_14 
REMARK       I    between atoms: N5_14  and  C4_16 
REMARK    4  A    between atoms: N7_18  and  C5_20 
REMARK    5  A    between atoms: C5_20  and  N8_21 
REMARK    6  A    between atoms: C7_26  and  N9_27 
REMARK    7  A    between atoms: C8_31  and  N10_32 
REMARK       I    between atoms: N10_32  and  C9_34 
REMARK    8  A    between atoms: C10_37  and  O3_38 
ROOT
HETATM    1  N5  UNL     1      -2.319 -34.669  41.009  1.00  0.00    -0.162 N 
ATOM      2  H5  UNL     1      -1.827 -35.036  40.193  1.00  0.00     0.187 HD
HETATM    3  C4  UNL     1      -3.756 -34.521  40.997  1.00  0.00     0.204 C 
HETATM    4  N6  UNL     1      -4.524 -35.558  41.587  1.00  0.00    -0.063 NA
HETATM    5  N7  UNL     1      -4.316 -33.526  40.486  1.00  0.00    -0.329 N 
ATOM      6  H7  UNL     1      -3.715 -32.813  40.071  1.00  0.00     0.164 HD
ENDROOT
BRANCH   5   7
HETATM    7  C5  UNL     1      -5.724 -33.304  40.434  1.00  0.00     0.227 C 
HETATM    8  C6  UNL     1      -6.186 -31.919  40.775  1.00  0.00     0.099 C 
HETATM    9  C7  UNL     1      -7.610 -32.147  41.297  1.00  0.00     0.212 C 
HETATM   10  C8  UNL     1      -7.383 -33.321  42.222  1.00  0.00     0.149 C 
HETATM   11  C10 UNL     1      -6.404 -34.169  41.476  1.00  0.00     0.199 C 
BRANCH   7  12
HETATM   12  N8  UNL     1      -6.161 -33.632  39.092  1.00  0.00    -0.050 N 
ATOM     13  H83 UNL     1      -5.400 -33.629  38.413  1.00  0.00     0.277 HD
ATOM     14  H82 UNL     1      -6.427 -34.611  38.987  1.00  0.00     0.277 HD
ATOM     15  H81 UNL     1      -6.913 -32.987  38.852  1.00  0.00     0.277 HD
ENDBRANCH   7  12
BRANCH   9  16
HETATM   16  N9  UNL     1      -8.142 -30.989  41.947  1.00  0.00    -0.073 N 
ATOM     17  H93 UNL     1      -7.402 -30.330  42.188  1.00  0.00     0.274 HD
ATOM     18  H92 UNL     1      -8.670 -30.410  41.295  1.00  0.00     0.274 HD
ATOM     19  H91 UNL     1      -8.703 -31.228  42.765  1.00  0.00     0.274 HD
ENDBRANCH   9  16
BRANCH  10  20
HETATM   20  N10 UNL     1      -6.839 -32.810  43.468  1.00  0.00    -0.336 N 
HETATM   21  C9  UNL     1      -6.371 -33.665  44.495  1.00  0.00     0.329 C 
HETATM   22  N11 UNL     1      -5.852 -33.073  45.686  1.00  0.00    -0.040 NA
HETATM   23  O2  UNL     1      -6.434 -34.892  44.317  1.00  0.00    -0.251 OA
ATOM     24  H10 UNL     1      -6.791 -31.800  43.607  1.00  0.00     0.164 HD
ENDBRANCH  10  20
BRANCH  11  25
HETATM   25  O3  UNL     1      -7.028 -35.278  40.916  1.00  0.00    -0.389 OA
ATOM     26  H3  UNL     1      -7.252 -35.933  41.567  1.00  0.00     0.210 HD
ENDBRANCH  11  25
ENDBRANCH   5   7
BRANCH   1  27
HETATM   27  C3  UNL     1      -1.670 -34.330  42.070  1.00  0.00     0.702 A 
HETATM   28  N4  UNL     1      -2.038 -34.771  43.279  1.00  0.00    -0.131 N 
HETATM   29  N3  UNL     1      -1.382 -34.437  44.359  1.00  0.00    -0.277 N 
ATOM     30  H4  UNL     1      -2.850 -35.383  43.360  1.00  0.00     0.205 HD
HETATM   31  C2  UNL     1      -0.282 -33.617  44.328  1.00  0.00     0.187 A 
ATOM     32  H3  UNL     1      -1.699 -34.799  45.258  1.00  0.00     0.188 HD
HETATM   33  C11 UNL     1       0.100 -33.162  43.099  1.00  0.00     0.293 A 
HETATM   34  N12 UNL     1      -0.605 -33.530  41.999  1.00  0.00    -0.152 N 
HETATM   35  O4  UNL     1       1.085 -32.407  42.934  1.00  0.00    -0.265 OA
ATOM     36  H12 UNL     1      -0.311 -33.181  41.086  1.00  0.00     0.187 HD
BRANCH  31  37
HETATM   37  C1  UNL     1       0.388 -33.294  45.559  1.00  0.00     0.293 C 
HETATM   38  N2  UNL     1       1.192 -32.179  45.809  1.00  0.00    -0.271 N 
ATOM     39  H2  UNL     1       1.348 -31.494  45.069  1.00  0.00     0.189 HD
HETATM   40  O1  UNL     1       0.236 -34.111  46.531  1.00  0.00    -0.264 OA
BRANCH  38  41
HETATM   41  N1  UNL     1       1.800 -31.987  47.097  1.00  0.00    -0.342 N 
ATOM     42  H12 UNL     1       1.885 -32.789  47.722  1.00  0.00     0.176 HD
ATOM     43  H11 UNL     1       2.139 -31.067  47.380  1.00  0.00     0.176 HD
ENDBRANCH  38  41
ENDBRANCH  31  37
ENDBRANCH   1  27
TORSDOF 8
ENDMDL
MODEL 2
REMARK VINA RESULT: -10.331844227      2.387      3.606
REMARK  8 active torsions:
REMARK  status: ('A' for Active; 'I' for Inactive)
REMARK    1  A    between atoms: N1_1  and  N2_4 
REMARK       I    between atoms: N2_4  and  C1_6 
REMARK    2  A    between atoms: C1_6  and  C2_8 
REMARK    3  A    between atoms: C3_13  and  N5_14 
REMARK       I    between atoms: N5_14  and  C4_16 
REMARK    4  A    between atoms: N7_18  and  C5_20 
REMARK    5  A    between atoms: C5_20  and  N8_21 
REMARK    6  A    between atoms: C7_26  and  N9_27 
REMARK    7  A    between atoms: C8_31  and  N10_32 
REMARK       I    between atoms: N10_32  and  C9_34 
REMARK    8  A    between atoms: C10_37  and  O3_38 
ROOT
HETATM    1  N5  UNL     1      -0.154 -33.673  43.972  1.00  0.00    -0.162 N 
ATOM      2  H5  UNL     1       0.691 -33.272  43.565  1.00  0.00     0.187 HD
HETATM    3  C4  UNL     1      -1.105 -34.382  43.147  1.00  0.00     0.204 C 
HETATM    4  N6  UNL     1      -1.015 -35.798  43.118  1.00  0.00    -0.063 NA
HETATM    5  N7  UNL     1      -1.976 -33.785  42.476  1.00  0.00    -0.329 N 
ATOM      6  H7  UNL     1      -1.991 -32.766  42.531  1.00  0.00     0.164 HD
ENDROOT
BRANCH   5   7
HETATM    7  C5  UNL     1      -2.949 -34.409  41.640  1.00  0.00     0.227 C 
HETATM    8  C6  UNL     1      -3.794 -33.489  40.813  1.00  0.00     0.099 C 
HETATM    9  C7  UNL     1      -5.084 -34.293  40.608  1.00  0.00     0.212 C 
HETATM   10  C8  UNL     1      -5.329 -34.790  42.014  1.00  0.00     0.149 C 
HETATM   11  C10 UNL     1      -3.959 -35.134  42.506  1.00  0.00     0.199 C 
BRANCH   7  12
HETATM   12  N8  UNL     1      -2.240 -35.319  40.762  1.00  0.00    -0.050 N 
ATOM     13  H83 UNL     1      -1.267 -35.459  41.034  1.00  0.00     0.277 HD
ATOM     14  H82 UNL     1      -2.545 -36.287  40.860  1.00  0.00     0.277 HD
ATOM     15  H81 UNL     1      -2.342 -34.963  39.812  1.00  0.00     0.277 HD
ENDBRANCH   7  12
BRANCH   9  16
HETATM   16  N9  UNL     1      -6.146 -33.491  40.083  1.00  0.00    -0.073 N 
ATOM     17  H93 UNL     1      -5.791 -32.788  39.434  1.00  0.00     0.274 HD
ATOM     18  H92 UNL     1      -6.728 -34.027  39.440  1.00  0.00     0.274 HD
ATOM     19  H91 UNL     1      -6.709 -33.063  40.818  1.00  0.00     0.274 HD
ENDBRANCH   9  16
BRANCH  10  20
HETATM   20  N10 UNL     1      -5.935 -33.710  42.772  1.00  0.00    -0.336 N 
HETATM   21  C9  UNL     1      -6.351 -33.870  44.116  1.00  0.00     0.329 C 
HETATM   22  N11 UNL     1      -6.937 -32.751  44.783  1.00  0.00    -0.040 NA
HETATM   23  O2  UNL     1      -6.188 -34.975  44.657  1.00  0.00    -0.251 OA
ATOM     24  H10 UNL     1      -6.066 -32.804  42.320  1.00  0.00     0.164 HD
ENDBRANCH  10  20
BRANCH  11  25
HETATM   25  O3  UNL     1      -3.761 -36.510  42.510  1.00  0.00    -0.389 OA
ATOM     26  H3  UNL     1      -4.568 -36.991  42.371  1.00  0.00     0.210 HD
ENDBRANCH  11  25
ENDBRANCH   5   7
BRANCH   1  27
HETATM   27  C3  UNL     1      -0.394 -33.556  45.234  1.00  0.00     0.702 A 
HETATM   28  N4  UNL     1      -1.625 -33.743  45.726  1.00  0.00    -0.131 N 
HETATM   29  N3  UNL     1      -1.875 -33.633  47.004  1.00  0.00    -0.277 N 
ATOM     30  H4  UNL     1      -2.386 -33.978  45.088  1.00  0.00     0.205 HD
HETATM   31  C2  UNL     1      -0.904 -33.318  47.920  1.00  0.00     0.187 A 
ATOM     32  H3  UNL     1      -2.829 -33.786  47.332  1.00  0.00     0.188 HD
HETATM   33  C11 UNL     1       0.354 -33.124  47.426  1.00  0.00     0.293 A 
HETATM   34  N12 UNL     1       0.578 -33.247  46.093  1.00  0.00    -0.152 N 
HETATM   35  O4  UNL     1       1.329 -32.832  48.156  1.00  0.00    -0.265 OA
ATOM     36  H12 UNL     1       1.522 -33.098  45.736  1.00  0.00     0.187 HD
BRANCH  31  37
HETATM   37  C1  UNL     1      -1.256 -33.215  49.311  1.00  0.00     0.293 C 
HETATM   38  N2  UNL     1      -0.824 -34.043  50.349  1.00  0.00    -0.271 N 
ATOM     39  H2  UNL     1      -0.190 -34.817  50.147  1.00  0.00     0.189 HD
HETATM   40  O1  UNL     1      -2.048 -32.266  49.637  1.00  0.00    -0.264 OA
BRANCH  38  41
HETATM   41  N1  UNL     1      -1.262 -33.816  51.699  1.00  0.00    -0.342 N 
ATOM     42  H12 UNL     1      -0.597 -33.962  52.460  1.00  0.00     0.176 HD
ATOM     43  H11 UNL     1      -2.217 -33.515  51.893  1.00  0.00     0.176 HD
ENDBRANCH  38  41
ENDBRANCH  31  37
ENDBRANCH   1  27
TORSDOF 8
ENDMDL
MODEL 3
REMARK VINA RESULT: -10.221726015      0.794      1.503
REMARK  8 active torsions:
REMARK  status: ('A' for Active; 'I' for Inactive)
REMARK    1  A    between atoms: N1_1  and  N2_4 
REMARK       I    between atoms: N2_4  and  C1_6 
REMARK    2  A    between atoms: C1_6  and  C2_8 
REMARK    3  A    between atoms: C3_13  and  N5_14 
REMARK       I    between atoms: N5_14  and  C4_16 
REMARK    4  A    between atoms: N7_18  and  C5_20 
REMARK    5  A    between atoms: C5_20  and  N8_21 
REMARK    6  A    between atoms: C7_26  and  N9_27 
REMARK    7  A    between atoms: C8_31  and  N10_32 
REMARK       I    between atoms: N10_32  and  C9_34 
REMARK    8  A    between atoms: C10_37  and  O3_38 
ROOT
HETATM    1  N5  UNL     1      -2.586 -35.333  41.131  1.00  0.00    -0.162 N 
ATOM      2  H5  UNL     1      -2.295 -36.041  40.457  1.00  0.00     0.187 HD
HETATM    3  C4  UNL     1      -3.980 -34.985  41.279  1.00  0.00     0.204 C 
HETATM    4  N6  UNL     1      -4.700 -35.607  42.332  1.00  0.00    -0.063 NA
HETATM    5  N7  UNL     1      -4.546 -34.173  40.513  1.00  0.00    -0.329 N 
ATOM      6  H7  UNL     1      -3.982 -33.760  39.771  1.00  0.00     0.164 HD
ENDROOT
BRANCH   5   7
HETATM    7  C5  UNL     1      -5.914 -33.777  40.592  1.00  0.00     0.227 C 
HETATM    8  C6  UNL     1      -6.165 -32.313  40.799  1.00  0.00     0.099 C 
HETATM    9  C7  UNL     1      -7.528 -32.292  41.502  1.00  0.00     0.212 C 
HETATM   10  C8  UNL     1      -7.322 -33.370  42.542  1.00  0.00     0.149 C 
HETATM   11  C10 UNL     1      -6.551 -34.420  41.807  1.00  0.00     0.199 C 
BRANCH   7  12
HETATM   12  N8  UNL     1      -6.554 -34.198  39.362  1.00  0.00    -0.050 N 
ATOM     13  H83 UNL     1      -6.559 -35.210  39.241  1.00  0.00     0.277 HD
ATOM     14  H82 UNL     1      -7.565 -34.062  39.371  1.00  0.00     0.277 HD
ATOM     15  H81 UNL     1      -6.092 -33.707  38.597  1.00  0.00     0.277 HD
ENDBRANCH   7  12
BRANCH   9  16
HETATM   16  N9  UNL     1      -7.835 -31.007  42.052  1.00  0.00    -0.073 N 
ATOM     17  H93 UNL     1      -7.475 -30.258  41.460  1.00  0.00     0.274 HD
ATOM     18  H92 UNL     1      -8.832 -30.805  41.983  1.00  0.00     0.274 HD
ATOM     19  H91 UNL     1      -7.505 -30.907  43.012  1.00  0.00     0.274 HD
ENDBRANCH   9  16
BRANCH  10  20
HETATM   20  N10 UNL     1      -6.568 -32.794  43.641  1.00  0.00    -0.336 N 
HETATM   21  C9  UNL     1      -6.118 -33.570  44.737  1.00  0.00     0.329 C 
HETATM   22  N11 UNL     1      -5.382 -32.918  45.772  1.00  0.00    -0.040 NA
HETATM   23  O2  UNL     1      -6.383 -34.782  44.751  1.00  0.00    -0.251 OA
ATOM     24  H10 UNL     1      -6.354 -31.796  43.622  1.00  0.00     0.164 HD
ENDBRANCH  10  20
BRANCH  11  25
HETATM   25  O3  UNL     1      -7.365 -35.495  41.471  1.00  0.00    -0.389 OA
ATOM     26  H3  UNL     1      -8.077 -35.615  42.088  1.00  0.00     0.210 HD
ENDBRANCH  11  25
ENDBRANCH   5   7
BRANCH   1  27
HETATM   27  C3  UNL     1      -1.716 -34.732  41.869  1.00  0.00     0.702 A 
HETATM   28  N4  UNL     1      -0.960 -33.741  41.382  1.00  0.00    -0.131 N 
HETATM   29  N3  UNL     1      -0.080 -33.122  42.124  1.00  0.00    -0.277 N 
ATOM     30  H4  UNL     1      -1.073 -33.461  40.407  1.00  0.00     0.205 HD
HETATM   31  C2  UNL     1       0.129 -33.444  43.441  1.00  0.00     0.187 A 
ATOM     32  H3  UNL     1       0.472 -32.372  41.709  1.00  0.00     0.188 HD
HETATM   33  C11 UNL     1      -0.638 -34.455  43.946  1.00  0.00     0.293 A 
HETATM   34  N12 UNL     1      -1.542 -35.075  43.146  1.00  0.00    -0.152 N 
HETATM   35  O4  UNL     1      -0.545 -34.845  45.132  1.00  0.00    -0.265 OA
ATOM     36  H12 UNL     1      -2.107 -35.830  43.534  1.00  0.00     0.187 HD
BRANCH  31  37
HETATM   37  C1  UNL     1       1.115 -32.717  44.195  1.00  0.00     0.293 C 
HETATM   38  N2  UNL     1       1.170 -32.572  45.583  1.00  0.00    -0.271 N 
ATOM     39  H2  UNL     1       0.456 -33.010  46.165  1.00  0.00     0.189 HD
HETATM   40  O1  UNL     1       2.041 -32.142  43.529  1.00  0.00    -0.264 OA
BRANCH  38  41
HETATM   41  N1  UNL     1       2.222 -31.812  46.200  1.00  0.00    -0.342 N 
ATOM     42  H12 UNL     1       2.308 -31.830  47.217  1.00  0.00     0.176 HD
ATOM     43  H11 UNL     1       2.870 -31.265  45.633  1.00  0.00     0.176 HD
ENDBRANCH  38  41
ENDBRANCH  31  37
ENDBRANCH   1  27
TORSDOF 8
ENDMDL
MODEL 4
REMARK VINA RESULT: -10.207420010      1.694      2.249
REMARK  8 active torsions:
REMARK  status: ('A' for Active; 'I' for Inactive)
REMARK    1  A    between atoms: N1_1  and  N2_4 
REMARK       I    between atoms: N2_4  and  C1_6 
REMARK    2  A    between atoms: C1_6  and  C2_8 
REMARK    3  A    between atoms: C3_13  and  N5_14 
REMARK       I    between atoms: N5_14  and  C4_16 
REMARK    4  A    between atoms: N7_18  and  C5_20 
REMARK    5  A    between atoms: C5_20  and  N8_21 
REMARK    6  A    between atoms: C7_26  and  N9_27 
REMARK    7  A    between atoms: C8_31  and  N10_32 
REMARK       I    between atoms: N10_32  and  C9_34 
REMARK    8  A    between atoms: C10_37  and  O3_38 
ROOT
HETATM    1  N5  UNL     1      -0.685 -33.977  42.258  1.00  0.00    -0.162 N 
ATOM      2  H5  UNL     1      -0.007 -33.641  41.574  1.00  0.00     0.187 HD
HETATM    3  C4  UNL     1      -1.880 -34.669  41.833  1.00  0.00     0.204 C 
HETATM    4  N6  UNL     1      -1.857 -36.088  41.860  1.00  0.00    -0.063 NA
HETATM    5  N7  UNL     1      -2.900 -34.056  41.448  1.00  0.00    -0.329 N 
ATOM      6  H7  UNL     1      -2.859 -33.036  41.444  1.00  0.00     0.164 HD
ENDROOT
BRANCH   5   7
HETATM    7  C5  UNL     1      -4.116 -34.662  41.014  1.00  0.00     0.227 C 
HETATM    8  C6  UNL     1      -5.102 -33.754  40.343  1.00  0.00     0.099 C 
HETATM    9  C7  UNL     1      -6.447 -34.436  40.622  1.00  0.00     0.212 C 
HETATM   10  C8  UNL     1      -6.302 -34.747  42.095  1.00  0.00     0.149 C 
HETATM   11  C10 UNL     1      -4.875 -35.177  42.221  1.00  0.00     0.199 C 
BRANCH   7  12
HETATM   12  N8  UNL     1      -3.761 -35.733  40.104  1.00  0.00    -0.050 N 
ATOM     13  H83 UNL     1      -2.826 -36.104  40.270  1.00  0.00     0.277 HD
ATOM     14  H82 UNL     1      -4.278 -36.594  40.280  1.00  0.00     0.277 HD
ATOM     15  H81 UNL     1      -3.887 -35.378  39.156  1.00  0.00     0.277 HD
ENDBRANCH   7  12
BRANCH   9  16
HETATM   16  N9  UNL     1      -7.559 -33.590  40.315  1.00  0.00    -0.073 N 
ATOM     17  H93 UNL     1      -7.327 -32.607  40.464  1.00  0.00     0.274 HD
ATOM     18  H92 UNL     1      -7.737 -33.565  39.311  1.00  0.00     0.274 HD
ATOM     19  H91 UNL     1      -8.399 -33.851  40.831  1.00  0.00     0.274 HD
ENDBRANCH   9  16
BRANCH  10  20
HETATM   20  N10 UNL     1      -6.583 -33.532  42.838  1.00  0.00    -0.336 N 
HETATM   21  C9  UNL     1      -6.510 -33.477  44.252  1.00  0.00     0.329 C 
HETATM   22  N11 UNL     1      -6.803 -32.238  44.898  1.00  0.00    -0.040 NA
HETATM   23  O2  UNL     1      -6.195 -34.507  44.867  1.00  0.00    -0.251 OA
ATOM     24  H10 UNL     1      -6.842 -32.689  42.325  1.00  0.00     0.164 HD
ENDBRANCH  10  20
BRANCH  11  25
HETATM   25  O3  UNL     1      -4.779 -36.557  42.356  1.00  0.00    -0.389 OA
ATOM     26  H3  UNL     1      -5.581 -36.944  42.688  1.00  0.00     0.210 HD
ENDBRANCH  11  25
ENDBRANCH   5   7
BRANCH   1  27
HETATM   27  C3  UNL     1      -0.492 -33.792  43.520  1.00  0.00     0.702 A 
HETATM   28  N4  UNL     1      -1.252 -34.405  44.435  1.00  0.00    -0.131 N 
HETATM   29  N3  UNL     1      -1.060 -34.227  45.715  1.00  0.00    -0.277 N 
ATOM     30  H4  UNL     1      -2.000 -35.027  44.126  1.00  0.00     0.205 HD
HETATM   31  C2  UNL     1      -0.077 -33.406  46.205  1.00  0.00     0.187 A 
ATOM     32  H3  UNL     1      -1.663 -34.718  46.375  1.00  0.00     0.188 HD
HETATM   33  C11 UNL     1       0.703 -32.774  45.278  1.00  0.00     0.293 A 
HETATM   34  N12 UNL     1       0.474 -32.983  43.956  1.00  0.00    -0.152 N 
HETATM   35  O4  UNL     1       1.633 -31.998  45.593  1.00  0.00    -0.265 OA
ATOM     36  H12 UNL     1       1.062 -32.504  43.274  1.00  0.00     0.187 HD
BRANCH  31  37
HETATM   37  C1  UNL     1       0.075 -33.261  47.628  1.00  0.00     0.293 C 
HETATM   38  N2  UNL     1       1.129 -33.735  48.412  1.00  0.00    -0.271 N 
ATOM     39  H2  UNL     1       1.896 -34.245  47.972  1.00  0.00     0.189 HD
HETATM   40  O1  UNL     1      -0.850 -32.632  48.246  1.00  0.00    -0.264 OA
BRANCH  38  41
HETATM   41  N1  UNL     1       1.146 -33.513  49.832  1.00  0.00    -0.342 N 
ATOM     42  H12 UNL     1       1.644 -32.699  50.194  1.00  0.00     0.176 HD
ATOM     43  H11 UNL     1       0.668 -34.155  50.465  1.00  0.00     0.176 HD
ENDBRANCH  38  41
ENDBRANCH  31  37
ENDBRANCH   1  27
TORSDOF 8
ENDMDL
MODEL 5
REMARK VINA RESULT: -10.172437602      2.886      4.417
REMARK  8 active torsions:
REMARK  status: ('A' for Active; 'I' for Inactive)
REMARK    1  A    between atoms: N1_1  and  N2_4 
REMARK       I    between atoms: N2_4  and  C1_6 
REMARK    2  A    between atoms: C1_6  and  C2_8 
REMARK    3  A    between atoms: C3_13  and  N5_14 
REMARK       I    between atoms: N5_14  and  C4_16 
REMARK    4  A    between atoms: N7_18  and  C5_20 
REMARK    5  A    between atoms: C5_20  and  N8_21 
REMARK    6  A    between atoms: C7_26  and  N9_27 
REMARK    7  A    between atoms: C8_31  and  N10_32 
REMARK       I    between atoms: N10_32  and  C9_34 
REMARK    8  A    between atoms: C10_37  and  O3_38 
ROOT
HETATM    1  N5  UNL     1      -0.020 -33.689  44.742  1.00  0.00    -0.162 N 
ATOM      2  H5  UNL     1       0.823 -33.173  44.491  1.00  0.00     0.187 HD
HETATM    3  C4  UNL     1      -0.762 -34.422  43.743  1.00  0.00     0.204 C 
HETATM    4  N6  UNL     1      -0.510 -35.814  43.634  1.00  0.00    -0.063 NA
HETATM    5  N7  UNL     1      -1.593 -33.864  42.992  1.00  0.00    -0.329 N 
ATOM      6  H7  UNL     1      -1.730 -32.860  43.111  1.00  0.00     0.164 HD
ENDROOT
BRANCH   5   7
HETATM    7  C5  UNL     1      -2.364 -34.515  41.983  1.00  0.00     0.227 C 
HETATM    8  C6  UNL     1      -3.271 -33.634  41.178  1.00  0.00     0.099 C 
HETATM    9  C7  UNL     1      -4.382 -34.594  40.735  1.00  0.00     0.212 C 
HETATM   10  C8  UNL     1      -4.670 -35.307  42.036  1.00  0.00     0.149 C 
HETATM   11  C10 UNL     1      -3.314 -35.497  42.637  1.00  0.00     0.199 C 
BRANCH   7  12
HETATM   12  N8  UNL     1      -1.433 -35.177  41.091  1.00  0.00    -0.050 N 
ATOM     13  H83 UNL     1      -1.751 -36.100  40.796  1.00  0.00     0.277 HD
ATOM     14  H82 UNL     1      -1.394 -34.749  40.167  1.00  0.00     0.277 HD
ATOM     15  H81 UNL     1      -0.528 -35.198  41.560  1.00  0.00     0.277 HD
ENDBRANCH   7  12
BRANCH   9  16
HETATM   16  N9  UNL     1      -5.511 -33.904  40.189  1.00  0.00    -0.073 N 
ATOM     17  H93 UNL     1      -5.631 -32.990  40.627  1.00  0.00     0.274 HD
ATOM     18  H92 UNL     1      -5.331 -33.603  39.232  1.00  0.00     0.274 HD
ATOM     19  H91 UNL     1      -6.367 -34.455  40.247  1.00  0.00     0.274 HD
ENDBRANCH   9  16
BRANCH  10  20
HETATM   20  N10 UNL     1      -5.518 -34.445  42.841  1.00  0.00    -0.336 N 
HETATM   21  C9  UNL     1      -6.930 -34.563  42.843  1.00  0.00     0.329 C 
HETATM   22  N11 UNL     1      -7.683 -33.673  43.666  1.00  0.00    -0.040 NA
HETATM   23  O2  UNL     1      -7.451 -35.434  42.129  1.00  0.00    -0.251 OA
ATOM     24  H10 UNL     1      -5.082 -33.731  43.425  1.00  0.00     0.164 HD
ENDBRANCH  10  20
BRANCH  11  25
HETATM   25  O3  UNL     1      -2.888 -36.813  42.503  1.00  0.00    -0.389 OA
ATOM     26  H3  UNL     1      -3.338 -37.269  41.801  1.00  0.00     0.210 HD
ENDBRANCH  11  25
ENDBRANCH   5   7
BRANCH   1  27
HETATM   27  C3  UNL     1      -0.445 -33.700  45.960  1.00  0.00     0.702 A 
HETATM   28  N4  UNL     1       0.381 -33.964  46.980  1.00  0.00    -0.131 N 
HETATM   29  N3  UNL     1      -0.039 -33.972  48.217  1.00  0.00    -0.277 N 
ATOM     30  H4  UNL     1       1.362 -34.165  46.787  1.00  0.00     0.205 HD
HETATM   31  C2  UNL     1      -1.344 -33.714  48.553  1.00  0.00     0.187 A 
ATOM     32  H3  UNL     1       0.627 -34.177  48.962  1.00  0.00     0.188 HD
HETATM   33  C11 UNL     1      -2.194 -33.444  47.519  1.00  0.00     0.293 A 
HETATM   34  N12 UNL     1      -1.722 -33.445  46.246  1.00  0.00    -0.152 N 
HETATM   35  O4  UNL     1      -3.408 -33.193  47.689  1.00  0.00    -0.265 OA
ATOM     36  H12 UNL     1      -2.367 -33.244  45.482  1.00  0.00     0.187 HD
BRANCH  31  37
HETATM   37  C1  UNL     1      -1.732 -33.739  49.938  1.00  0.00     0.293 C 
HETATM   38  N2  UNL     1      -3.028 -33.632  50.448  1.00  0.00    -0.271 N 
ATOM     39  H2  UNL     1      -3.815 -33.522  49.808  1.00  0.00     0.189 HD
HETATM   40  O1  UNL     1      -0.796 -33.875  50.797  1.00  0.00    -0.264 OA
BRANCH  38  41
HETATM   41  N1  UNL     1      -3.265 -33.675  51.865  1.00  0.00    -0.342 N 
ATOM     42  H12 UNL     1      -2.982 -34.508  52.383  1.00  0.00     0.176 HD
ATOM     43  H11 UNL     1      -3.707 -32.890  52.343  1.00  0.00     0.176 HD
ENDBRANCH  38  41
ENDBRANCH  31  37
ENDBRANCH   1  27
TORSDOF 8
ENDMDL
