MODEL 1
REMARK VINA RESULT: -7.918919770      0.000      0.000
REMARK  9 active torsions:
REMARK  status: ('A' for Active; 'I' for Inactive)
REMARK    1  A    between atoms: N2_4  and  N3_6 
REMARK    2  A    between atoms: C2_9  and  C3_10 
REMARK    3  A    between atoms: C3_10  and  C4_12 
REMARK       I    between atoms: C4_12  and  N5_14 
REMARK    4  A    between atoms: N5_14  and  N6_16 
REMARK    5  A    between atoms: C5_19  and  C6_20 
REMARK    6  A    between atoms: C7_24  and  O4_25 
REMARK    7  A    between atoms: C7_24  and  O5_27 
REMARK    8  A    between atoms: C9_31  and  O6_32 
REMARK    9  A    between atoms: C10_34  and  N8_35 
ROOT
HETATM    1  N3  UNL     1      -5.445 -32.695  42.253  1.00  0.00    -0.288 N 
ATOM      2  H3  UNL     1      -5.978 -32.985  41.433  1.00  0.00     0.188 HD
HETATM    3  C1  UNL     1      -4.438 -33.418  42.598  1.00  0.00     0.077 C 
HETATM    4  C2  UNL     1      -4.057 -34.636  41.834  1.00  0.00     0.054 C 
HETATM    5  C5  UNL     1      -2.838 -35.154  42.038  1.00  0.00     0.129 C 
HETATM    6  N7  UNL     1      -1.906 -34.538  43.001  1.00  0.00    -0.274 N 
HETATM    7  C7  UNL     1      -0.613 -35.083  43.358  1.00  0.00     0.305 C 
HETATM    8  S1  UNL     1      -0.066 -33.980  44.754  1.00  0.00    -0.073 SA
HETATM    9  C8  UNL     1      -1.731 -33.354  45.108  1.00  0.00     0.145 C 
HETATM   10  C9  UNL     1      -2.217 -33.312  43.641  1.00  0.00     0.181 C 
HETATM   11  C10 UNL     1      -3.659 -33.010  43.767  1.00  0.00     0.291 C 
ENDROOT
BRANCH   4  12
HETATM   12  C3  UNL     1      -5.098 -35.129  40.928  1.00  0.00     0.130 C 
HETATM   13  N4  UNL     1      -5.354 -34.268  39.819  1.00  0.00    -0.095 NA
BRANCH  12  14
HETATM   14  C4  UNL     1      -6.189 -35.903  41.493  1.00  0.00     0.284 C 
HETATM   15  O1  UNL     1      -6.006 -37.107  41.782  1.00  0.00    -0.265 OA
HETATM   16  N5  UNL     1      -7.454 -35.331  41.722  1.00  0.00    -0.271 N 
ATOM     17  H5  UNL     1      -7.613 -34.351  41.490  1.00  0.00     0.189 HD
BRANCH  16  18
HETATM   18  N6  UNL     1      -8.493 -36.089  42.262  1.00  0.00    -0.342 N 
ATOM     19  H62 UNL     1      -9.059 -35.681  43.005  1.00  0.00     0.176 HD
ATOM     20  H61 UNL     1      -8.683 -37.031  41.922  1.00  0.00     0.176 HD
ENDBRANCH  16  18
ENDBRANCH  12  14
ENDBRANCH   4  12
BRANCH   5  21
HETATM   21  C6  UNL     1      -2.453 -36.316  41.294  1.00  0.00     0.228 C 
HETATM   22  O2  UNL     1      -1.837 -36.215  40.195  1.00  0.00    -0.643 OA
HETATM   23  O3  UNL     1      -2.708 -37.605  41.668  1.00  0.00    -0.643 OA
ENDBRANCH   5  21
BRANCH   1  24
HETATM   24  N2  UNL     1      -5.854 -31.560  42.912  1.00  0.00    -0.249 N 
HETATM   25  N1  UNL     1      -6.956 -31.518  43.562  1.00  0.00    -0.331 N 
ATOM     26  H12 UNL     1      -7.535 -32.358  43.581  1.00  0.00     0.178 HD
ATOM     27  H11 UNL     1      -7.260 -30.676  44.051  1.00  0.00     0.178 HD
ATOM     28  H2  UNL     1      -5.263 -30.729  42.884  1.00  0.00     0.207 HD
ENDBRANCH   1  24
BRANCH  11  29
HETATM   29  N8  UNL     1      -4.217 -33.684  44.945  1.00  0.00    -0.065 N 
ATOM     30  H83 UNL     1      -4.729 -33.048  45.557  1.00  0.00     0.275 HD
ATOM     31  H82 UNL     1      -4.993 -34.304  44.713  1.00  0.00     0.275 HD
ATOM     32  H81 UNL     1      -3.458 -34.166  45.425  1.00  0.00     0.275 HD
ENDBRANCH  11  29
BRANCH  10  33
HETATM   33  O6  UNL     1      -1.600 -32.204  43.058  1.00  0.00    -0.367 OA
ATOM     34  H6  UNL     1      -0.722 -32.041  43.384  1.00  0.00     0.212 HD
ENDBRANCH  10  33
BRANCH   7  35
HETATM   35  O4  UNL     1      -0.665 -36.332  43.969  1.00  0.00    -0.340 OA
ATOM     36  H4  UNL     1      -0.146 -37.001  43.538  1.00  0.00     0.216 HD
ENDBRANCH   7  35
BRANCH   7  37
HETATM   37  O5  UNL     1       0.343 -34.995  42.354  1.00  0.00    -0.340 OA
ATOM     38  H5  UNL     1       1.191 -34.681  42.646  1.00  0.00     0.216 HD
ENDBRANCH   7  37
TORSDOF 9
ENDMDL
MODEL 2
REMARK VINA RESULT: -7.916225747      2.457      5.185
REMARK  9 active torsions:
REMARK  status: ('A' for Active; 'I' for Inactive)
REMARK    1  A    between atoms: N2_4  and  N3_6 
REMARK    2  A    between atoms: C2_9  and  C3_10 
REMARK    3  A    between atoms: C3_10  and  C4_12 
REMARK       I    between atoms: C4_12  and  N5_14 
REMARK    4  A    between atoms: N5_14  and  N6_16 
REMARK    5  A    between atoms: C5_19  and  C6_20 
REMARK    6  A    between atoms: C7_24  and  O4_25 
REMARK    7  A    between atoms: C7_24  and  O5_27 
REMARK    8  A    between atoms: C9_31  and  O6_32 
REMARK    9  A    between atoms: C10_34  and  N8_35 
ROOT
HETATM    1  N3  UNL     1      -2.487 -33.818  45.054  1.00  0.00    -0.288 N 
ATOM      2  H3  UNL     1      -1.549 -34.220  45.041  1.00  0.00     0.188 HD
HETATM    3  C1  UNL     1      -3.275 -34.105  44.078  1.00  0.00     0.077 C 
HETATM    4  C2  UNL     1      -2.841 -34.990  42.964  1.00  0.00     0.054 C 
HETATM    5  C5  UNL     1      -3.784 -35.505  42.163  1.00  0.00     0.129 C 
HETATM    6  N7  UNL     1      -5.210 -35.193  42.376  1.00  0.00    -0.274 N 
HETATM    7  C7  UNL     1      -6.284 -35.621  41.504  1.00  0.00     0.305 C 
HETATM    8  S1  UNL     1      -7.761 -34.721  42.191  1.00  0.00    -0.073 SA
HETATM    9  C8  UNL     1      -6.779 -33.492  43.094  1.00  0.00     0.145 C 
HETATM   10  C9  UNL     1      -5.638 -34.449  43.504  1.00  0.00     0.181 C 
HETATM   11  C10 UNL     1      -4.625 -33.543  44.087  1.00  0.00     0.291 C 
ENDROOT
BRANCH   4  12
HETATM   12  C3  UNL     1      -1.392 -35.190  42.883  1.00  0.00     0.130 C 
HETATM   13  N4  UNL     1      -0.889 -36.156  43.807  1.00  0.00    -0.095 NA
BRANCH  12  14
HETATM   14  C4  UNL     1      -0.561 -34.057  42.518  1.00  0.00     0.284 C 
HETATM   15  O1  UNL     1       0.288 -33.627  43.332  1.00  0.00    -0.265 OA
HETATM   16  N5  UNL     1      -0.689 -33.426  41.268  1.00  0.00    -0.271 N 
ATOM     17  H5  UNL     1      -1.377 -33.769  40.598  1.00  0.00     0.189 HD
BRANCH  16  18
HETATM   18  N6  UNL     1       0.115 -32.335  40.933  1.00  0.00    -0.342 N 
ATOM     19  H62 UNL     1      -0.335 -31.449  40.706  1.00  0.00     0.176 HD
ATOM     20  H61 UNL     1       1.131 -32.422  40.915  1.00  0.00     0.176 HD
ENDBRANCH  16  18
ENDBRANCH  12  14
ENDBRANCH   4  12
BRANCH   5  21
HETATM   21  C6  UNL     1      -3.380 -36.374  41.098  1.00  0.00     0.228 C 
HETATM   22  O2  UNL     1      -3.834 -37.549  41.005  1.00  0.00    -0.643 OA
HETATM   23  O3  UNL     1      -2.490 -36.045  40.115  1.00  0.00    -0.643 OA
ENDBRANCH   5  21
BRANCH   1  24
HETATM   24  N2  UNL     1      -2.820 -33.008  46.114  1.00  0.00    -0.249 N 
HETATM   25  N1  UNL     1      -3.082 -33.487  47.272  1.00  0.00    -0.331 N 
ATOM     26  H12 UNL     1      -3.038 -34.498  47.394  1.00  0.00     0.178 HD
ATOM     27  H11 UNL     1      -3.330 -32.886  48.058  1.00  0.00     0.178 HD
ATOM     28  H2  UNL     1      -2.859 -31.998  45.974  1.00  0.00     0.207 HD
ENDBRANCH   1  24
BRANCH  11  29
HETATM   29  N8  UNL     1      -4.596 -32.274  43.352  1.00  0.00    -0.065 N 
ATOM     30  H83 UNL     1      -4.137 -32.354  42.445  1.00  0.00     0.275 HD
ATOM     31  H82 UNL     1      -5.518 -31.993  43.015  1.00  0.00     0.275 HD
ATOM     32  H81 UNL     1      -4.164 -31.570  43.950  1.00  0.00     0.275 HD
ENDBRANCH  11  29
BRANCH  10  33
HETATM   33  O6  UNL     1      -6.145 -35.241  44.536  1.00  0.00    -0.367 OA
ATOM     34  H6  UNL     1      -5.534 -35.370  45.252  1.00  0.00     0.212 HD
ENDBRANCH  10  33
BRANCH   7  35
HETATM   35  O4  UNL     1      -6.207 -35.121  40.209  1.00  0.00    -0.340 OA
ATOM     36  H4  UNL     1      -6.788 -35.546  39.589  1.00  0.00     0.216 HD
ENDBRANCH   7  35
BRANCH   7  37
HETATM   37  O5  UNL     1      -6.559 -36.982  41.560  1.00  0.00    -0.340 OA
ATOM     38  H5  UNL     1      -7.110 -37.300  40.854  1.00  0.00     0.216 HD
ENDBRANCH   7  37
TORSDOF 9
ENDMDL
MODEL 3
REMARK VINA RESULT: -7.710822942      2.474      5.317
REMARK  9 active torsions:
REMARK  status: ('A' for Active; 'I' for Inactive)
REMARK    1  A    between atoms: N2_4  and  N3_6 
REMARK    2  A    between atoms: C2_9  and  C3_10 
REMARK    3  A    between atoms: C3_10  and  C4_12 
REMARK       I    between atoms: C4_12  and  N5_14 
REMARK    4  A    between atoms: N5_14  and  N6_16 
REMARK    5  A    between atoms: C5_19  and  C6_20 
REMARK    6  A    between atoms: C7_24  and  O4_25 
REMARK    7  A    between atoms: C7_24  and  O5_27 
REMARK    8  A    between atoms: C9_31  and  O6_32 
REMARK    9  A    between atoms: C10_34  and  N8_35 
ROOT
HETATM    1  N3  UNL     1      -2.353 -33.752  45.178  1.00  0.00    -0.288 N 
ATOM      2  H3  UNL     1      -1.410 -34.143  45.187  1.00  0.00     0.188 HD
HETATM    3  C1  UNL     1      -3.107 -34.034  44.174  1.00  0.00     0.077 C 
HETATM    4  C2  UNL     1      -2.631 -34.897  43.062  1.00  0.00     0.054 C 
HETATM    5  C5  UNL     1      -3.543 -35.411  42.226  1.00  0.00     0.129 C 
HETATM    6  N7  UNL     1      -4.978 -35.118  42.400  1.00  0.00    -0.274 N 
HETATM    7  C7  UNL     1      -6.022 -35.545  41.491  1.00  0.00     0.305 C 
HETATM    8  S1  UNL     1      -7.528 -34.672  42.145  1.00  0.00    -0.073 SA
HETATM    9  C8  UNL     1      -6.588 -33.445  43.094  1.00  0.00     0.145 C 
HETATM   10  C9  UNL     1      -5.448 -34.395  43.525  1.00  0.00     0.181 C 
HETATM   11  C10 UNL     1      -4.463 -33.487  44.151  1.00  0.00     0.291 C 
ENDROOT
BRANCH   4  12
HETATM   12  C3  UNL     1      -1.177 -35.081  43.022  1.00  0.00     0.130 C 
HETATM   13  N4  UNL     1      -0.737 -36.328  43.558  1.00  0.00    -0.095 NA
BRANCH  12  14
HETATM   14  C4  UNL     1      -0.333 -33.909  43.165  1.00  0.00     0.284 C 
HETATM   15  O1  UNL     1      -0.550 -32.901  42.454  1.00  0.00    -0.265 OA
HETATM   16  N5  UNL     1       0.730 -33.878  44.086  1.00  0.00    -0.271 N 
ATOM     17  H5  UNL     1       0.914 -34.693  44.670  1.00  0.00     0.189 HD
BRANCH  16  18
HETATM   18  N6  UNL     1       1.535 -32.744  44.210  1.00  0.00    -0.342 N 
ATOM     19  H62 UNL     1       1.116 -31.886  44.568  1.00  0.00     0.176 HD
ATOM     20  H61 UNL     1       2.520 -32.773  43.949  1.00  0.00     0.176 HD
ENDBRANCH  16  18
ENDBRANCH  12  14
ENDBRANCH   4  12
BRANCH   5  21
HETATM   21  C6  UNL     1      -3.097 -36.260  41.161  1.00  0.00     0.228 C 
HETATM   22  O2  UNL     1      -3.538 -37.438  41.036  1.00  0.00    -0.643 OA
HETATM   23  O3  UNL     1      -2.180 -35.909  40.212  1.00  0.00    -0.643 OA
ENDBRANCH   5  21
BRANCH   1  24
HETATM   24  N2  UNL     1      -2.726 -32.960  46.238  1.00  0.00    -0.249 N 
HETATM   25  N1  UNL     1      -3.030 -33.460  47.377  1.00  0.00    -0.331 N 
ATOM     26  H12 UNL     1      -2.988 -34.473  47.484  1.00  0.00     0.178 HD
ATOM     27  H11 UNL     1      -3.307 -32.873  48.164  1.00  0.00     0.178 HD
ATOM     28  H2  UNL     1      -2.763 -31.949  46.114  1.00  0.00     0.207 HD
ENDBRANCH   1  24
BRANCH  11  29
HETATM   29  N8  UNL     1      -4.428 -32.207  43.435  1.00  0.00    -0.065 N 
ATOM     30  H83 UNL     1      -4.208 -32.316  42.444  1.00  0.00     0.275 HD
ATOM     31  H82 UNL     1      -5.353 -31.791  43.325  1.00  0.00     0.275 HD
ATOM     32  H81 UNL     1      -3.774 -31.591  43.917  1.00  0.00     0.275 HD
ENDBRANCH  11  29
BRANCH  10  33
HETATM   33  O6  UNL     1      -5.977 -35.207  44.530  1.00  0.00    -0.367 OA
ATOM     34  H6  UNL     1      -5.349 -35.821  44.894  1.00  0.00     0.212 HD
ENDBRANCH  10  33
BRANCH   7  35
HETATM   35  O4  UNL     1      -5.911 -35.026  40.205  1.00  0.00    -0.340 OA
ATOM     36  H4  UNL     1      -5.970 -34.078  40.159  1.00  0.00     0.216 HD
ENDBRANCH   7  35
BRANCH   7  37
HETATM   37  O5  UNL     1      -6.282 -36.910  41.519  1.00  0.00    -0.340 OA
ATOM     38  H5  UNL     1      -6.213 -37.304  42.381  1.00  0.00     0.216 HD
ENDBRANCH   7  37
TORSDOF 9
ENDMDL
MODEL 4
REMARK VINA RESULT: -6.866305899      2.614      5.169
REMARK  9 active torsions:
REMARK  status: ('A' for Active; 'I' for Inactive)
REMARK    1  A    between atoms: N2_4  and  N3_6 
REMARK    2  A    between atoms: C2_9  and  C3_10 
REMARK    3  A    between atoms: C3_10  and  C4_12 
REMARK       I    between atoms: C4_12  and  N5_14 
REMARK    4  A    between atoms: N5_14  and  N6_16 
REMARK    5  A    between atoms: C5_19  and  C6_20 
REMARK    6  A    between atoms: C7_24  and  O4_25 
REMARK    7  A    between atoms: C7_24  and  O5_27 
REMARK    8  A    between atoms: C9_31  and  O6_32 
REMARK    9  A    between atoms: C10_34  and  N8_35 
ROOT
HETATM    1  N3  UNL     1      -1.998 -34.196  44.690  1.00  0.00    -0.288 N 
ATOM      2  H3  UNL     1      -1.181 -34.769  44.476  1.00  0.00     0.188 HD
HETATM    3  C1  UNL     1      -3.003 -34.266  43.890  1.00  0.00     0.077 C 
HETATM    4  C2  UNL     1      -2.983 -35.146  42.692  1.00  0.00     0.054 C 
HETATM    5  C5  UNL     1      -4.149 -35.420  42.089  1.00  0.00     0.129 C 
HETATM    6  N7  UNL     1      -5.413 -34.854  42.597  1.00  0.00    -0.274 N 
HETATM    7  C7  UNL     1      -6.702 -35.013  41.955  1.00  0.00     0.305 C 
HETATM    8  S1  UNL     1      -7.804 -33.891  42.949  1.00  0.00    -0.073 SA
HETATM    9  C8  UNL     1      -6.438 -32.931  43.658  1.00  0.00     0.145 C 
HETATM   10  C9  UNL     1      -5.453 -34.114  43.805  1.00  0.00     0.181 C 
HETATM   11  C10 UNL     1      -4.185 -33.457  44.188  1.00  0.00     0.291 C 
ENDROOT
BRANCH   4  12
HETATM   12  C3  UNL     1      -1.649 -35.616  42.311  1.00  0.00     0.130 C 
HETATM   13  N4  UNL     1      -1.230 -36.790  43.005  1.00  0.00    -0.095 NA
BRANCH  12  14
HETATM   14  C4  UNL     1      -0.658 -34.628  41.924  1.00  0.00     0.284 C 
HETATM   15  O1  UNL     1       0.555 -34.850  42.143  1.00  0.00    -0.265 OA
HETATM   16  N5  UNL     1      -1.029 -33.419  41.306  1.00  0.00    -0.271 N 
ATOM     17  H5  UNL     1      -2.013 -33.229  41.123  1.00  0.00     0.189 HD
BRANCH  16  18
HETATM   18  N6  UNL     1      -0.065 -32.478  40.943  1.00  0.00    -0.342 N 
ATOM     19  H62 UNL     1       0.869 -32.806  40.697  1.00  0.00     0.176 HD
ATOM     20  H61 UNL     1      -0.289 -31.483  40.923  1.00  0.00     0.176 HD
ENDBRANCH  16  18
ENDBRANCH  12  14
ENDBRANCH   4  12
BRANCH   5  21
HETATM   21  C6  UNL     1      -4.145 -36.283  40.945  1.00  0.00     0.228 C 
HETATM   22  O2  UNL     1      -4.534 -35.872  39.815  1.00  0.00    -0.643 OA
HETATM   23  O3  UNL     1      -3.747 -37.589  40.952  1.00  0.00    -0.643 OA
ENDBRANCH   5  21
BRANCH   1  24
HETATM   24  N2  UNL     1      -1.947 -33.404  45.813  1.00  0.00    -0.249 N 
HETATM   25  N1  UNL     1      -0.857 -32.855  46.201  1.00  0.00    -0.331 N 
ATOM     26  H12 UNL     1      -0.014 -33.019  45.651  1.00  0.00     0.178 HD
ATOM     27  H11 UNL     1      -0.819 -32.268  47.034  1.00  0.00     0.178 HD
ATOM     28  H2  UNL     1      -2.799 -33.250  46.351  1.00  0.00     0.207 HD
ENDBRANCH   1  24
BRANCH  11  29
HETATM   29  N8  UNL     1      -4.047 -32.173  43.491  1.00  0.00    -0.065 N 
ATOM     30  H83 UNL     1      -4.878 -31.587  43.578  1.00  0.00     0.275 HD
ATOM     31  H82 UNL     1      -3.387 -31.545  43.949  1.00  0.00     0.275 HD
ATOM     32  H81 UNL     1      -3.801 -32.364  42.519  1.00  0.00     0.275 HD
ENDBRANCH  11  29
BRANCH  10  33
HETATM   33  O6  UNL     1      -5.896 -34.856  44.901  1.00  0.00    -0.367 OA
ATOM     34  H6  UNL     1      -6.812 -35.102  44.849  1.00  0.00     0.212 HD
ENDBRANCH  10  33
BRANCH   7  35
HETATM   35  O4  UNL     1      -6.782 -34.457  40.682  1.00  0.00    -0.340 OA
ATOM     36  H4  UNL     1      -6.521 -35.044  39.981  1.00  0.00     0.216 HD
ENDBRANCH   7  35
BRANCH   7  37
HETATM   37  O5  UNL     1      -7.227 -36.297  42.036  1.00  0.00    -0.340 OA
ATOM     38  H5  UNL     1      -8.034 -36.421  41.549  1.00  0.00     0.216 HD
ENDBRANCH   7  37
TORSDOF 9
ENDMDL
MODEL 5
REMARK VINA RESULT: -6.845385982      1.855      4.120
REMARK  9 active torsions:
REMARK  status: ('A' for Active; 'I' for Inactive)
REMARK    1  A    between atoms: N2_4  and  N3_6 
REMARK    2  A    between atoms: C2_9  and  C3_10 
REMARK    3  A    between atoms: C3_10  and  C4_12 
REMARK       I    between atoms: C4_12  and  N5_14 
REMARK    4  A    between atoms: N5_14  and  N6_16 
REMARK    5  A    between atoms: C5_19  and  C6_20 
REMARK    6  A    between atoms: C7_24  and  O4_25 
REMARK    7  A    between atoms: C7_24  and  O5_27 
REMARK    8  A    between atoms: C9_31  and  O6_32 
REMARK    9  A    between atoms: C10_34  and  N8_35 
ROOT
HETATM    1  N3  UNL     1      -6.466 -35.430  42.700  1.00  0.00    -0.288 N 
ATOM      2  H3  UNL     1      -7.029 -34.937  43.394  1.00  0.00     0.188 HD
HETATM    3  C1  UNL     1      -5.215 -35.137  42.626  1.00  0.00     0.077 C 
HETATM    4  C2  UNL     1      -4.603 -34.115  43.517  1.00  0.00     0.054 C 
HETATM    5  C5  UNL     1      -3.267 -34.085  43.618  1.00  0.00     0.129 C 
HETATM    6  N7  UNL     1      -2.430 -35.031  42.857  1.00  0.00    -0.274 N 
HETATM    7  C7  UNL     1      -0.982 -35.008  42.826  1.00  0.00     0.305 C 
HETATM    8  S1  UNL     1      -0.572 -36.282  41.534  1.00  0.00    -0.073 SA
HETATM    9  C8  UNL     1      -2.223 -36.271  40.785  1.00  0.00     0.145 C 
HETATM   10  C9  UNL     1      -3.010 -36.081  42.102  1.00  0.00     0.181 C 
HETATM   11  C10 UNL     1      -4.395 -35.840  41.642  1.00  0.00     0.291 C 
ENDROOT
BRANCH   4  12
HETATM   12  C3  UNL     1      -5.571 -33.246  44.191  1.00  0.00     0.130 C 
HETATM   13  N4  UNL     1      -5.893 -33.659  45.519  1.00  0.00    -0.095 NA
BRANCH  12  14
HETATM   14  C4  UNL     1      -6.586 -32.593  43.384  1.00  0.00     0.284 C 
HETATM   15  O1  UNL     1      -7.755 -33.041  43.383  1.00  0.00    -0.265 OA
HETATM   16  N5  UNL     1      -6.286 -31.466  42.598  1.00  0.00    -0.271 N 
ATOM     17  H5  UNL     1      -5.337 -31.094  42.592  1.00  0.00     0.189 HD
BRANCH  16  18
HETATM   18  N6  UNL     1      -7.272 -30.851  41.825  1.00  0.00    -0.342 N 
ATOM     19  H62 UNL     1      -7.687 -31.377  41.055  1.00  0.00     0.176 HD
ATOM     20  H61 UNL     1      -7.572 -29.898  42.025  1.00  0.00     0.176 HD
ENDBRANCH  16  18
ENDBRANCH  12  14
ENDBRANCH   4  12
BRANCH   5  21
HETATM   21  C6  UNL     1      -2.666 -33.117  44.488  1.00  0.00     0.228 C 
HETATM   22  O2  UNL     1      -2.122 -32.074  44.028  1.00  0.00    -0.643 OA
HETATM   23  O3  UNL     1      -2.609 -33.218  45.849  1.00  0.00    -0.643 OA
ENDBRANCH   5  21
BRANCH   1  24
HETATM   24  N2  UNL     1      -7.098 -36.360  41.909  1.00  0.00    -0.249 N 
HETATM   25  N1  UNL     1      -7.718 -36.026  40.839  1.00  0.00    -0.331 N 
ATOM     26  H12 UNL     1      -7.734 -35.039  40.582  1.00  0.00     0.178 HD
ATOM     27  H11 UNL     1      -8.187 -36.716  40.252  1.00  0.00     0.178 HD
ATOM     28  H2  UNL     1      -7.072 -37.343  42.180  1.00  0.00     0.207 HD
ENDBRANCH   1  24
BRANCH  11  29
HETATM   29  N8  UNL     1      -4.388 -35.051  40.405  1.00  0.00    -0.065 N 
ATOM     30  H83 UNL     1      -4.415 -35.633  39.566  1.00  0.00     0.275 HD
ATOM     31  H82 UNL     1      -5.264 -34.551  40.252  1.00  0.00     0.275 HD
ATOM     32  H81 UNL     1      -3.579 -34.431  40.428  1.00  0.00     0.275 HD
ENDBRANCH  11  29
BRANCH  10  33
HETATM   33  O6  UNL     1      -2.986 -37.316  42.751  1.00  0.00    -0.367 OA
ATOM     34  H6  UNL     1      -3.555 -37.966  42.354  1.00  0.00     0.212 HD
ENDBRANCH  10  33
BRANCH   7  35
HETATM   35  O4  UNL     1      -0.438 -33.848  42.284  1.00  0.00    -0.340 OA
ATOM     36  H4  UNL     1       0.504 -33.772  42.386  1.00  0.00     0.216 HD
ENDBRANCH   7  35
BRANCH   7  37
HETATM   37  O5  UNL     1      -0.377 -35.404  44.013  1.00  0.00    -0.340 OA
ATOM     38  H5  UNL     1       0.571 -35.449  43.974  1.00  0.00     0.216 HD
ENDBRANCH   7  37
TORSDOF 9
ENDMDL
