MODEL 1
REMARK VINA RESULT: -7.467910318      0.000      0.000
REMARK  6 active torsions:
REMARK  status: ('A' for Active; 'I' for Inactive)
REMARK    1  A    between atoms: C1_2  and  C2_4 
REMARK    2  A    between atoms: C5_13  and  O3_14 
REMARK    3  A    between atoms: C6_16  and  N4_17 
REMARK       I    between atoms: N4_17  and  C7_19 
REMARK    4  A    between atoms: C7_19  and  C8_21 
REMARK    5  A    between atoms: C8_21  and  N5_22 
REMARK    6  A    between atoms: C8_21  and  C9_26 
ROOT
HETATM    1  C2  UNL     1      -3.988 -35.480  42.340  1.00  0.00     0.388 C 
HETATM    2  N2  UNL     1      -2.633 -34.964  42.330  1.00  0.00    -0.036 N 
ATOM      3  H21 UNL     1      -2.561 -34.025  42.722  1.00  0.00     0.280 HD
ATOM      4  H22 UNL     1      -2.298 -34.741  41.393  1.00  0.00     0.280 HD
HETATM    5  C3  UNL     1      -1.819 -35.906  42.998  1.00  0.00     0.337 C 
HETATM    6  C4  UNL     1      -0.418 -35.541  43.279  1.00  0.00     0.245 C 
HETATM    7  O2  UNL     1       0.276 -36.592  43.557  1.00  0.00    -0.272 OA
HETATM    8  N3  UNL     1       0.225 -34.312  43.289  1.00  0.00    -0.331 N 
ATOM      9  H3  UNL     1       1.117 -34.328  42.797  1.00  0.00     0.165 HD
HETATM   10  C5  UNL     1      -0.083 -33.044  43.829  1.00  0.00     0.252 C 
HETATM   11  C6  UNL     1      -0.461 -32.868  45.235  1.00  0.00     0.225 C 
HETATM   12  C10 UNL     1      -1.227 -33.913  45.905  1.00  0.00     0.244 C 
HETATM   13  O6  UNL     1      -0.594 -34.910  46.355  1.00  0.00    -0.271 OA
HETATM   14  N6  UNL     1      -2.637 -33.917  46.104  1.00  0.00    -0.358 N 
ATOM     15  H6  UNL     1      -3.040 -34.726  46.577  1.00  0.00     0.162 HD
HETATM   16  C11 UNL     1      -3.540 -32.879  45.693  1.00  0.00     0.143 C 
HETATM   17  C12 UNL     1      -4.747 -33.448  44.934  1.00  0.00     0.158 C 
HETATM   18  N7  UNL     1      -4.473 -33.478  43.526  1.00  0.00    -0.337 N 
ATOM     19  H7  UNL     1      -3.947 -32.736  43.064  1.00  0.00     0.179 HD
HETATM   20  N8  UNL     1      -4.951 -34.549  42.844  1.00  0.00    -0.303 N 
ATOM     21  H8  UNL     1      -5.951 -34.684  42.698  1.00  0.00     0.182 HD
ENDROOT
BRANCH  11  22
HETATM   22  N4  UNL     1       0.729 -32.643  46.043  1.00  0.00    -0.342 N 
HETATM   23  C7  UNL     1       0.732 -32.030  47.304  1.00  0.00     0.256 C 
HETATM   24  O4  UNL     1      -0.358 -31.638  47.794  1.00  0.00    -0.271 OA
ATOM     25  H4  UNL     1       1.624 -32.953  45.664  1.00  0.00     0.163 HD
BRANCH  23  26
HETATM   26  C8  UNL     1       1.958 -31.811  48.110  1.00  0.00     0.335 C 
BRANCH  26  27
HETATM   27  N5  UNL     1       3.101 -31.544  47.275  1.00  0.00    -0.060 N 
ATOM     28  H53 UNL     1       3.220 -30.543  47.117  1.00  0.00     0.275 HD
ATOM     29  H52 UNL     1       3.974 -31.732  47.768  1.00  0.00     0.275 HD
ATOM     30  H51 UNL     1       3.051 -32.058  46.395  1.00  0.00     0.275 HD
ENDBRANCH  26  27
BRANCH  26  31
HETATM   31  C9  UNL     1       2.214 -33.028  48.962  1.00  0.00     0.273 C 
HETATM   32  O5  UNL     1       1.578 -34.052  48.817  1.00  0.00    -0.304 OA
ENDBRANCH  26  31
ENDBRANCH  23  26
ENDBRANCH  11  22
BRANCH  10  33
HETATM   33  O3  UNL     1      -1.107 -32.489  43.018  1.00  0.00    -0.374 OA
ATOM     34  H3  UNL     1      -1.732 -32.080  43.605  1.00  0.00     0.212 HD
ENDBRANCH  10  33
BRANCH   1  35
HETATM   35  C1  UNL     1      -4.392 -35.842  40.956  1.00  0.00     0.282 C 
HETATM   36  N1  UNL     1      -5.653 -35.423  40.488  1.00  0.00    -0.059 NA
HETATM   37  O1  UNL     1      -3.604 -36.510  40.243  1.00  0.00    -0.272 OA
ENDBRANCH   1  35
TORSDOF 6
ENDMDL
MODEL 2
REMARK VINA RESULT: -7.168356453      1.211      1.420
REMARK  6 active torsions:
REMARK  status: ('A' for Active; 'I' for Inactive)
REMARK    1  A    between atoms: C1_2  and  C2_4 
REMARK    2  A    between atoms: C5_13  and  O3_14 
REMARK    3  A    between atoms: C6_16  and  N4_17 
REMARK       I    between atoms: N4_17  and  C7_19 
REMARK    4  A    between atoms: C7_19  and  C8_21 
REMARK    5  A    between atoms: C8_21  and  N5_22 
REMARK    6  A    between atoms: C8_21  and  C9_26 
ROOT
HETATM    1  C2  UNL     1      -3.933 -35.618  42.477  1.00  0.00     0.388 C 
HETATM    2  N2  UNL     1      -2.590 -35.109  42.267  1.00  0.00    -0.036 N 
ATOM      3  H21 UNL     1      -2.475 -34.145  42.580  1.00  0.00     0.280 HD
ATOM      4  H22 UNL     1      -2.372 -34.954  41.283  1.00  0.00     0.280 HD
HETATM    5  C3  UNL     1      -1.697 -36.006  42.896  1.00  0.00     0.337 C 
HETATM    6  C4  UNL     1      -0.275 -35.627  42.980  1.00  0.00     0.245 C 
HETATM    7  O2  UNL     1       0.452 -36.659  43.245  1.00  0.00    -0.272 OA
HETATM    8  N3  UNL     1       0.360 -34.404  42.825  1.00  0.00    -0.331 N 
ATOM      9  H3  UNL     1       1.186 -34.458  42.231  1.00  0.00     0.165 HD
HETATM   10  C5  UNL     1       0.114 -33.099  43.308  1.00  0.00     0.252 C 
HETATM   11  C6  UNL     1      -0.091 -32.824  44.733  1.00  0.00     0.225 C 
HETATM   12  C10 UNL     1      -0.767 -33.816  45.563  1.00  0.00     0.244 C 
HETATM   13  O6  UNL     1      -0.080 -34.780  46.002  1.00  0.00    -0.271 OA
HETATM   14  N6  UNL     1      -2.143 -33.799  45.930  1.00  0.00    -0.358 N 
ATOM     15  H6  UNL     1      -2.482 -34.570  46.504  1.00  0.00     0.162 HD
HETATM   16  C11 UNL     1      -3.093 -32.788  45.560  1.00  0.00     0.143 C 
HETATM   17  C12 UNL     1      -4.380 -33.404  44.994  1.00  0.00     0.158 C 
HETATM   18  N7  UNL     1      -4.278 -33.535  43.569  1.00  0.00    -0.337 N 
ATOM     19  H7  UNL     1      -3.815 -32.829  42.995  1.00  0.00     0.179 HD
HETATM   20  N8  UNL     1      -4.831 -34.649  43.027  1.00  0.00    -0.303 N 
ATOM     21  H8  UNL     1      -5.841 -34.789  43.013  1.00  0.00     0.182 HD
ENDROOT
BRANCH  11  22
HETATM   22  N4  UNL     1       1.187 -32.548  45.373  1.00  0.00    -0.342 N 
HETATM   23  C7  UNL     1       1.352 -31.739  46.506  1.00  0.00     0.256 C 
HETATM   24  O4  UNL     1       0.340 -31.202  47.026  1.00  0.00    -0.271 OA
ATOM     25  H4  UNL     1       2.021 -32.972  44.968  1.00  0.00     0.163 HD
BRANCH  23  26
HETATM   26  C8  UNL     1       2.665 -31.471  47.142  1.00  0.00     0.335 C 
BRANCH  26  27
HETATM   27  N5  UNL     1       2.785 -32.140  48.412  1.00  0.00    -0.060 N 
ATOM     28  H53 UNL     1       1.878 -32.465  48.750  1.00  0.00     0.275 HD
ATOM     29  H52 UNL     1       3.251 -33.042  48.316  1.00  0.00     0.275 HD
ATOM     30  H51 UNL     1       3.251 -31.551  49.104  1.00  0.00     0.275 HD
ENDBRANCH  26  27
BRANCH  26  31
HETATM   31  C9  UNL     1       2.834 -29.984  47.324  1.00  0.00     0.273 C 
HETATM   32  O5  UNL     1       3.854 -29.415  46.996  1.00  0.00    -0.304 OA
ENDBRANCH  26  31
ENDBRANCH  23  26
ENDBRANCH  11  22
BRANCH  10  33
HETATM   33  O3  UNL     1      -1.003 -32.598  42.589  1.00  0.00    -0.374 OA
ATOM     34  H3  UNL     1      -1.287 -33.291  42.005  1.00  0.00     0.212 HD
ENDBRANCH  10  33
BRANCH   1  35
HETATM   35  C1  UNL     1      -4.499 -36.074  41.181  1.00  0.00     0.282 C 
HETATM   36  N1  UNL     1      -5.890 -35.981  40.981  1.00  0.00    -0.059 NA
HETATM   37  O1  UNL     1      -3.728 -36.530  40.302  1.00  0.00    -0.272 OA
ENDBRANCH   1  35
TORSDOF 6
ENDMDL
MODEL 3
REMARK VINA RESULT: -6.075693937      1.890      7.156
REMARK  6 active torsions:
REMARK  status: ('A' for Active; 'I' for Inactive)
REMARK    1  A    between atoms: C1_2  and  C2_4 
REMARK    2  A    between atoms: C5_13  and  O3_14 
REMARK    3  A    between atoms: C6_16  and  N4_17 
REMARK       I    between atoms: N4_17  and  C7_19 
REMARK    4  A    between atoms: C7_19  and  C8_21 
REMARK    5  A    between atoms: C8_21  and  N5_22 
REMARK    6  A    between atoms: C8_21  and  C9_26 
ROOT
HETATM    1  C2  UNL     1       0.427 -32.759  47.598  1.00  0.00     0.388 C 
HETATM    2  N2  UNL     1       0.479 -33.512  46.359  1.00  0.00    -0.036 N 
ATOM      3  H21 UNL     1      -0.290 -34.176  46.264  1.00  0.00     0.280 HD
ATOM      4  H22 UNL     1       1.241 -34.189  46.335  1.00  0.00     0.280 HD
HETATM    5  C3  UNL     1       0.536 -32.577  45.301  1.00  0.00     0.337 C 
HETATM    6  C4  UNL     1       0.422 -33.081  43.920  1.00  0.00     0.245 C 
HETATM    7  O2  UNL     1       0.838 -32.196  43.080  1.00  0.00    -0.272 OA
HETATM    8  N3  UNL     1      -0.038 -34.290  43.420  1.00  0.00    -0.331 N 
ATOM      9  H3  UNL     1       0.579 -34.688  42.713  1.00  0.00     0.165 HD
HETATM   10  C5  UNL     1      -1.172 -35.094  43.674  1.00  0.00     0.252 C 
HETATM   11  C6  UNL     1      -2.533 -34.550  43.639  1.00  0.00     0.225 C 
HETATM   12  C10 UNL     1      -2.766 -33.177  44.075  1.00  0.00     0.244 C 
HETATM   13  O6  UNL     1      -2.536 -32.251  43.248  1.00  0.00    -0.271 OA
HETATM   14  N6  UNL     1      -3.236 -32.778  45.359  1.00  0.00    -0.358 N 
ATOM     15  H6  UNL     1      -3.337 -31.777  45.528  1.00  0.00     0.162 HD
HETATM   16  C11 UNL     1      -3.578 -33.664  46.435  1.00  0.00     0.143 C 
HETATM   17  C12 UNL     1      -2.917 -33.234  47.753  1.00  0.00     0.158 C 
HETATM   18  N7  UNL     1      -1.645 -33.882  47.900  1.00  0.00    -0.337 N 
ATOM     19  H7  UNL     1      -1.496 -34.847  47.604  1.00  0.00     0.179 HD
HETATM   20  N8  UNL     1      -0.655 -33.140  48.454  1.00  0.00    -0.303 N 
ATOM     21  H8  UNL     1      -0.679 -32.866  49.436  1.00  0.00     0.182 HD
ENDROOT
BRANCH  11  22
HETATM   22  N4  UNL     1      -3.074 -34.655  42.292  1.00  0.00    -0.342 N 
HETATM   23  C7  UNL     1      -4.438 -34.772  41.987  1.00  0.00     0.256 C 
HETATM   24  O4  UNL     1      -5.274 -34.789  42.927  1.00  0.00    -0.271 OA
ATOM     25  H4  UNL     1      -2.414 -34.644  41.515  1.00  0.00     0.163 HD
BRANCH  23  26
HETATM   26  C8  UNL     1      -4.966 -34.878  40.605  1.00  0.00     0.335 C 
BRANCH  26  27
HETATM   27  N5  UNL     1      -5.413 -33.602  40.109  1.00  0.00    -0.060 N 
ATOM     28  H53 UNL     1      -4.766 -32.855  40.366  1.00  0.00     0.275 HD
ATOM     29  H52 UNL     1      -5.325 -33.545  39.094  1.00  0.00     0.275 HD
ATOM     30  H51 UNL     1      -6.364 -33.392  40.413  1.00  0.00     0.275 HD
ENDBRANCH  26  27
BRANCH  26  31
HETATM   31  C9  UNL     1      -6.104 -35.866  40.585  1.00  0.00     0.273 C 
HETATM   32  O5  UNL     1      -7.222 -35.542  40.238  1.00  0.00    -0.304 OA
ENDBRANCH  26  31
ENDBRANCH  23  26
ENDBRANCH  11  22
BRANCH  10  33
HETATM   33  O3  UNL     1      -0.967 -35.707  44.938  1.00  0.00    -0.374 OA
ATOM     34  H3  UNL     1      -0.103 -35.445  45.234  1.00  0.00     0.212 HD
ENDBRANCH  10  33
BRANCH   1  35
HETATM   35  C1  UNL     1       1.692 -32.958  48.353  1.00  0.00     0.282 C 
HETATM   36  N1  UNL     1       1.772 -34.025  49.269  1.00  0.00    -0.059 NA
HETATM   37  O1  UNL     1       2.653 -32.175  48.157  1.00  0.00    -0.272 OA
ENDBRANCH   1  35
TORSDOF 6
ENDMDL
MODEL 4
REMARK VINA RESULT: -5.529969040      1.772      3.454
REMARK  6 active torsions:
REMARK  status: ('A' for Active; 'I' for Inactive)
REMARK    1  A    between atoms: C1_2  and  C2_4 
REMARK    2  A    between atoms: C5_13  and  O3_14 
REMARK    3  A    between atoms: C6_16  and  N4_17 
REMARK       I    between atoms: N4_17  and  C7_19 
REMARK    4  A    between atoms: C7_19  and  C8_21 
REMARK    5  A    between atoms: C8_21  and  N5_22 
REMARK    6  A    between atoms: C8_21  and  C9_26 
ROOT
HETATM    1  C2  UNL     1      -4.164 -35.585  42.132  1.00  0.00     0.388 C 
HETATM    2  N2  UNL     1      -3.690 -34.823  43.272  1.00  0.00    -0.036 N 
ATOM      3  H21 UNL     1      -2.876 -35.242  43.721  1.00  0.00     0.280 HD
ATOM      4  H22 UNL     1      -4.320 -34.868  44.073  1.00  0.00     0.280 HD
HETATM    5  C3  UNL     1      -3.457 -33.501  42.827  1.00  0.00     0.337 C 
HETATM    6  C4  UNL     1      -2.803 -32.560  43.755  1.00  0.00     0.245 C 
HETATM    7  O2  UNL     1      -2.976 -31.344  43.361  1.00  0.00    -0.272 OA
HETATM    8  N3  UNL     1      -2.075 -32.773  44.916  1.00  0.00    -0.331 N 
ATOM      9  H3  UNL     1      -2.354 -32.155  45.677  1.00  0.00     0.165 HD
HETATM   10  C5  UNL     1      -1.034 -33.656  45.277  1.00  0.00     0.252 C 
HETATM   11  C6  UNL     1       0.187 -33.788  44.476  1.00  0.00     0.225 C 
HETATM   12  C10 UNL     1       0.108 -33.650  43.025  1.00  0.00     0.244 C 
HETATM   13  O6  UNL     1       0.099 -32.482  42.545  1.00  0.00    -0.271 OA
HETATM   14  N6  UNL     1       0.041 -34.720  42.088  1.00  0.00    -0.358 N 
ATOM     15  H6  UNL     1      -0.027 -34.473  41.101  1.00  0.00     0.162 HD
HETATM   16  C11 UNL     1       0.061 -36.119  42.414  1.00  0.00     0.143 C 
HETATM   17  C12 UNL     1      -1.069 -36.879  41.707  1.00  0.00     0.158 C 
HETATM   18  N7  UNL     1      -2.237 -36.914  42.541  1.00  0.00    -0.337 N 
ATOM     19  H7  UNL     1      -2.172 -37.024  43.553  1.00  0.00     0.179 HD
HETATM   20  N8  UNL     1      -3.430 -36.793  41.907  1.00  0.00    -0.303 N 
ATOM     21  H8  UNL     1      -3.787 -37.528  41.298  1.00  0.00     0.182 HD
ENDROOT
BRANCH  11  22
HETATM   22  N4  UNL     1       1.183 -32.829  44.930  1.00  0.00    -0.342 N 
HETATM   23  C7  UNL     1       1.279 -32.341  46.241  1.00  0.00     0.256 C 
HETATM   24  O4  UNL     1       0.458 -32.744  47.104  1.00  0.00    -0.271 OA
ATOM     25  H4  UNL     1       1.859 -32.489  44.247  1.00  0.00     0.163 HD
BRANCH  23  26
HETATM   26  C8  UNL     1       2.304 -31.363  46.683  1.00  0.00     0.335 C 
BRANCH  26  27
HETATM   27  N5  UNL     1       3.165 -31.918  47.695  1.00  0.00    -0.060 N 
ATOM     28  H53 UNL     1       2.902 -32.878  47.923  1.00  0.00     0.275 HD
ATOM     29  H52 UNL     1       4.103 -32.093  47.332  1.00  0.00     0.275 HD
ATOM     30  H51 UNL     1       3.192 -31.331  48.529  1.00  0.00     0.275 HD
ENDBRANCH  26  27
BRANCH  26  31
HETATM   31  C9  UNL     1       1.617 -30.129  47.209  1.00  0.00     0.273 C 
HETATM   32  O5  UNL     1       2.115 -29.028  47.100  1.00  0.00    -0.304 OA
ENDBRANCH  26  31
ENDBRANCH  23  26
ENDBRANCH  11  22
BRANCH  10  33
HETATM   33  O3  UNL     1      -1.617 -34.943  45.420  1.00  0.00    -0.374 OA
ATOM     34  H3  UNL     1      -2.548 -34.810  45.551  1.00  0.00     0.212 HD
ENDBRANCH  10  33
BRANCH   1  35
HETATM   35  C1  UNL     1      -5.589 -35.954  42.340  1.00  0.00     0.282 C 
HETATM   36  N1  UNL     1      -6.379 -35.154  43.187  1.00  0.00    -0.059 NA
HETATM   37  O1  UNL     1      -6.050 -36.966  41.757  1.00  0.00    -0.272 OA
ENDBRANCH   1  35
TORSDOF 6
ENDMDL
MODEL 5
REMARK VINA RESULT: -5.429226222      1.869      7.022
REMARK  6 active torsions:
REMARK  status: ('A' for Active; 'I' for Inactive)
REMARK    1  A    between atoms: C1_2  and  C2_4 
REMARK    2  A    between atoms: C5_13  and  O3_14 
REMARK    3  A    between atoms: C6_16  and  N4_17 
REMARK       I    between atoms: N4_17  and  C7_19 
REMARK    4  A    between atoms: C7_19  and  C8_21 
REMARK    5  A    between atoms: C8_21  and  N5_22 
REMARK    6  A    between atoms: C8_21  and  C9_26 
ROOT
HETATM    1  C2  UNL     1       0.587 -32.356  47.377  1.00  0.00     0.388 C 
HETATM    2  N2  UNL     1       0.601 -33.230  46.219  1.00  0.00    -0.036 N 
ATOM      3  H21 UNL     1      -0.139 -33.932  46.241  1.00  0.00     0.280 HD
ATOM      4  H22 UNL     1       1.393 -33.873  46.215  1.00  0.00     0.280 HD
HETATM    5  C3  UNL     1       0.550 -32.407  45.071  1.00  0.00     0.337 C 
HETATM    6  C4  UNL     1       0.379 -33.056  43.758  1.00  0.00     0.245 C 
HETATM    7  O2  UNL     1       0.701 -32.245  42.808  1.00  0.00    -0.272 OA
HETATM    8  N3  UNL     1      -0.050 -34.328  43.413  1.00  0.00    -0.331 N 
ATOM      9  H3  UNL     1       0.543 -34.770  42.711  1.00  0.00     0.165 HD
HETATM   10  C5  UNL     1      -1.127 -35.148  43.817  1.00  0.00     0.252 C 
HETATM   11  C6  UNL     1      -2.512 -34.670  43.815  1.00  0.00     0.225 C 
HETATM   12  C10 UNL     1      -2.786 -33.270  44.125  1.00  0.00     0.244 C 
HETATM   13  O6  UNL     1      -2.651 -32.425  43.196  1.00  0.00    -0.271 OA
HETATM   14  N6  UNL     1      -3.197 -32.761  45.390  1.00  0.00    -0.358 N 
ATOM     15  H6  UNL     1      -3.337 -31.753  45.464  1.00  0.00     0.162 HD
HETATM   16  C11 UNL     1      -3.432 -33.545  46.569  1.00  0.00     0.143 C 
HETATM   17  C12 UNL     1      -2.716 -32.954  47.792  1.00  0.00     0.158 C 
HETATM   18  N7  UNL     1      -1.408 -33.529  47.922  1.00  0.00    -0.337 N 
ATOM     19  H7  UNL     1      -1.229 -34.512  47.716  1.00  0.00     0.179 HD
HETATM   20  N8  UNL     1      -0.423 -32.692  48.335  1.00  0.00    -0.303 N 
ATOM     21  H8  UNL     1      -0.403 -32.320  49.284  1.00  0.00     0.182 HD
ENDROOT
BRANCH  11  22
HETATM   22  N4  UNL     1      -3.126 -34.936  42.522  1.00  0.00    -0.342 N 
HETATM   23  C7  UNL     1      -4.505 -35.079  42.308  1.00  0.00     0.256 C 
HETATM   24  O4  UNL     1      -5.288 -34.973  43.287  1.00  0.00    -0.271 OA
ATOM     25  H4  UNL     1      -2.509 -35.026  41.715  1.00  0.00     0.163 HD
BRANCH  23  26
HETATM   26  C8  UNL     1      -5.108 -35.350  40.981  1.00  0.00     0.335 C 
BRANCH  26  27
HETATM   27  N5  UNL     1      -4.213 -36.096  40.134  1.00  0.00    -0.060 N 
ATOM     28  H53 UNL     1      -4.701 -36.850  39.649  1.00  0.00     0.275 HD
ATOM     29  H52 UNL     1      -3.922 -35.548  39.325  1.00  0.00     0.275 HD
ATOM     30  H51 UNL     1      -3.409 -36.448  40.655  1.00  0.00     0.275 HD
ENDBRANCH  26  27
BRANCH  26  31
HETATM   31  C9  UNL     1      -5.469 -34.042  40.324  1.00  0.00     0.273 C 
HETATM   32  O5  UNL     1      -4.895 -33.010  40.603  1.00  0.00    -0.304 OA
ENDBRANCH  26  31
ENDBRANCH  23  26
ENDBRANCH  11  22
BRANCH  10  33
HETATM   33  O3  UNL     1      -0.818 -35.619  45.121  1.00  0.00    -0.374 OA
ATOM     34  H3  UNL     1      -0.906 -34.878  45.708  1.00  0.00     0.212 HD
ENDBRANCH  10  33
BRANCH   1  35
HETATM   35  C1  UNL     1       1.902 -32.423  48.066  1.00  0.00     0.282 C 
HETATM   36  N1  UNL     1       2.047 -33.292  49.165  1.00  0.00    -0.059 NA
HETATM   37  O1  UNL     1       2.846 -31.706  47.654  1.00  0.00    -0.272 OA
ENDBRANCH   1  35
TORSDOF 6
ENDMDL
