MODEL 1
REMARK VINA RESULT: -9.686026664      0.000      0.000
REMARK  7 active torsions:
REMARK  status: ('A' for Active; 'I' for Inactive)
REMARK       I    between atoms: C1_4  and  N3_6 
REMARK    1  A    between atoms: C3_9  and  N4_10 
REMARK    2  A    between atoms: C5_15  and  N6_16 
REMARK    3  A    between atoms: N8_23  and  C7_24 
REMARK    4  A    between atoms: C7_24  and  C8_25 
REMARK       I    between atoms: C8_25  and  N9_27 
REMARK    5  A    between atoms: N9_27  and  N10_29 
REMARK    6  A    between atoms: C9_32  and  O4_33 
REMARK    7  A    between atoms: C11_36  and  N11_37 
ROOT
HETATM    1  N4  UNL     1      -1.047 -34.305  44.819  1.00  0.00    -0.209 N 
ATOM      2  H4  UNL     1      -0.396 -35.068  45.002  1.00  0.00     0.178 HD
HETATM    3  C4  UNL     1      -1.558 -34.624  43.757  1.00  0.00     0.700 A 
HETATM    4  N5  UNL     1      -1.137 -35.821  43.173  1.00  0.00    -0.022 N 
ATOM      5  H5  UNL     1      -0.430 -36.375  43.655  1.00  0.00     0.203 HD
HETATM    6  C5  UNL     1      -1.615 -36.270  42.020  1.00  0.00     0.694 A 
HETATM    7  N7  UNL     1      -2.534 -35.598  41.346  1.00  0.00    -0.140 N 
ATOM      8  H7  UNL     1      -2.896 -35.952  40.460  1.00  0.00     0.189 HD
HETATM    9  C6  UNL     1      -2.976 -34.451  41.852  1.00  0.00     0.355 A 
HETATM   10  O2  UNL     1      -3.854 -33.821  41.195  1.00  0.00    -0.245 OA
HETATM   11  N8  UNL     1      -2.498 -33.985  43.019  1.00  0.00    -0.123 N 
ENDROOT
BRANCH   1  12
HETATM   12  C3  UNL     1      -0.879 -33.504  45.865  1.00  0.00     0.221 C 
HETATM   13  C2  UNL     1       0.255 -32.506  45.781  1.00  0.00     0.254 C 
HETATM   14  N3  UNL     1       0.735 -31.970  46.981  1.00  0.00    -0.260 N 
HETATM   15  O1  UNL     1       0.740 -32.176  44.691  1.00  0.00    -0.270 OA
HETATM   16  C1  UNL     1       1.901 -31.160  46.930  1.00  0.00     0.192 C 
HETATM   17  C11 UNL     1       0.151 -32.155  48.289  1.00  0.00     0.295 C 
HETATM   18  N1  UNL     1       2.984 -31.668  46.479  1.00  0.00    -0.373 N 
HETATM   19  N2  UNL     1       1.815 -29.828  47.382  1.00  0.00    -0.063 NA
ATOM     20  H12 UNL     1       3.822 -31.087  46.442  1.00  0.00     0.158 HD
ATOM     21  H11 UNL     1       3.047 -32.633  46.152  1.00  0.00     0.158 HD
HETATM   22  C10 UNL     1      -0.984 -33.175  48.257  1.00  0.00     0.089 C 
HETATM   23  C9  UNL     1      -0.587 -34.188  47.210  1.00  0.00     0.154 C 
BRANCH  17  24
HETATM   24  N11 UNL     1       1.162 -32.672  49.187  1.00  0.00    -0.058 N 
ATOM     25 3H11 UNL     1       0.810 -33.430  49.773  1.00  0.00     0.276 HD
ATOM     26 2H11 UNL     1       1.886 -33.196  48.696  1.00  0.00     0.276 HD
ATOM     27 1H11 UNL     1       1.543 -31.902  49.737  1.00  0.00     0.276 HD
ENDBRANCH  17  24
BRANCH  23  28
HETATM   28  O4  UNL     1      -1.217 -35.392  47.334  1.00  0.00    -0.393 OA
ATOM     29  H4  UNL     1      -0.612 -36.104  47.506  1.00  0.00     0.210 HD
ENDBRANCH  23  28
ENDBRANCH   1  12
BRANCH  11  30
HETATM   30  C7  UNL     1      -3.043 -32.750  43.466  1.00  0.00     0.257 C 
BRANCH  30  31
HETATM   31  C8  UNL     1      -4.295 -32.917  44.242  1.00  0.00     0.254 C 
HETATM   32  O3  UNL     1      -4.249 -33.199  45.453  1.00  0.00    -0.270 OA
HETATM   33  N9  UNL     1      -5.543 -32.755  43.611  1.00  0.00    -0.275 N 
ATOM     34  H9  UNL     1      -5.580 -32.524  42.618  1.00  0.00     0.189 HD
BRANCH  33  35
HETATM   35  N10 UNL     1      -6.743 -32.910  44.336  1.00  0.00    -0.343 N 
ATOM     36 2H10 UNL     1      -6.759 -33.560  45.122  1.00  0.00     0.176 HD
ATOM     37 1H10 UNL     1      -7.578 -32.382  44.081  1.00  0.00     0.176 HD
ENDBRANCH  33  35
ENDBRANCH  30  31
ENDBRANCH  11  30
BRANCH   6  38
HETATM   38  N6  UNL     1      -1.206 -37.386  41.497  1.00  0.00    -0.234 N 
ATOM     39  H62 UNL     1      -0.840 -37.342  40.546  1.00  0.00     0.174 HD
ATOM     40  H61 UNL     1      -1.246 -38.267  42.011  1.00  0.00     0.174 HD
ENDBRANCH   6  38
TORSDOF 7
ENDMDL
MODEL 2
REMARK VINA RESULT: -9.437853270      2.428      7.117
REMARK  7 active torsions:
REMARK  status: ('A' for Active; 'I' for Inactive)
REMARK       I    between atoms: C1_4  and  N3_6 
REMARK    1  A    between atoms: C3_9  and  N4_10 
REMARK    2  A    between atoms: C5_15  and  N6_16 
REMARK    3  A    between atoms: N8_23  and  C7_24 
REMARK    4  A    between atoms: C7_24  and  C8_25 
REMARK       I    between atoms: C8_25  and  N9_27 
REMARK    5  A    between atoms: N9_27  and  N10_29 
REMARK    6  A    between atoms: C9_32  and  O4_33 
REMARK    7  A    between atoms: C11_36  and  N11_37 
ROOT
HETATM    1  N4  UNL     1      -3.467 -33.512  44.721  1.00  0.00    -0.209 N 
ATOM      2  H4  UNL     1      -4.358 -33.758  45.153  1.00  0.00     0.178 HD
HETATM    3  C4  UNL     1      -2.700 -33.470  45.669  1.00  0.00     0.700 A 
HETATM    4  N5  UNL     1      -3.223 -33.747  46.934  1.00  0.00    -0.022 N 
ATOM      5  H5  UNL     1      -4.214 -33.973  47.012  1.00  0.00     0.203 HD
HETATM    6  C5  UNL     1      -2.490 -33.728  48.040  1.00  0.00     0.694 A 
HETATM    7  N7  UNL     1      -1.199 -33.442  48.006  1.00  0.00    -0.140 N 
ATOM      8  H7  UNL     1      -0.643 -33.430  48.862  1.00  0.00     0.189 HD
HETATM    9  C6  UNL     1      -0.642 -33.170  46.830  1.00  0.00     0.355 A 
HETATM   10  O2  UNL     1       0.593 -32.899  46.814  1.00  0.00    -0.245 OA
HETATM   11  N8  UNL     1      -1.376 -33.185  45.702  1.00  0.00    -0.123 N 
ENDROOT
BRANCH   1  12
HETATM   12  C3  UNL     1      -3.773 -33.410  43.432  1.00  0.00     0.221 C 
HETATM   13  C2  UNL     1      -5.152 -32.886  43.100  1.00  0.00     0.254 C 
HETATM   14  N3  UNL     1      -5.664 -33.169  41.829  1.00  0.00    -0.260 N 
HETATM   15  O1  UNL     1      -5.804 -32.229  43.923  1.00  0.00    -0.270 OA
HETATM   16  C1  UNL     1      -7.016 -32.824  41.562  1.00  0.00     0.192 C 
HETATM   17  C11 UNL     1      -4.941 -33.783  40.739  1.00  0.00     0.295 C 
HETATM   18  N1  UNL     1      -7.937 -33.345  42.281  1.00  0.00    -0.373 N 
HETATM   19  N2  UNL     1      -7.285 -31.922  40.514  1.00  0.00    -0.063 NA
ATOM     20  H12 UNL     1      -8.908 -33.097  42.089  1.00  0.00     0.158 HD
ATOM     21  H11 UNL     1      -7.742 -33.998  43.039  1.00  0.00     0.158 HD
HETATM   22  C10 UNL     1      -3.565 -34.269  41.183  1.00  0.00     0.089 C 
HETATM   23  C9  UNL     1      -3.735 -34.713  42.616  1.00  0.00     0.154 C 
BRANCH  17  24
HETATM   24  N11 UNL     1      -5.676 -34.944  40.282  1.00  0.00    -0.058 N 
ATOM     25 3H11 UNL     1      -5.060 -35.712  40.013  1.00  0.00     0.276 HD
ATOM     26 2H11 UNL     1      -6.168 -35.415  41.041  1.00  0.00     0.276 HD
ATOM     27 1H11 UNL     1      -6.301 -34.665  39.526  1.00  0.00     0.276 HD
ENDBRANCH  17  24
BRANCH  23  28
HETATM   28  O4  UNL     1      -2.772 -35.576  43.050  1.00  0.00    -0.393 OA
ATOM     29  H4  UNL     1      -2.798 -35.708  43.990  1.00  0.00     0.210 HD
ENDBRANCH  23  28
ENDBRANCH   1  12
BRANCH  11  30
HETATM   30  C7  UNL     1      -0.677 -32.882  44.501  1.00  0.00     0.257 C 
BRANCH  30  31
HETATM   31  C8  UNL     1      -0.105 -34.082  43.846  1.00  0.00     0.254 C 
HETATM   32  O3  UNL     1       0.579 -34.889  44.502  1.00  0.00    -0.270 OA
HETATM   33  N9  UNL     1      -0.334 -34.314  42.476  1.00  0.00    -0.275 N 
ATOM     34  H9  UNL     1      -0.895 -33.653  41.940  1.00  0.00     0.189 HD
BRANCH  33  35
HETATM   35  N10 UNL     1       0.203 -35.453  41.838  1.00  0.00    -0.343 N 
ATOM     36 2H10 UNL     1      -0.359 -36.304  41.803  1.00  0.00     0.176 HD
ATOM     37 1H10 UNL     1       1.133 -35.425  41.420  1.00  0.00     0.176 HD
ENDBRANCH  33  35
ENDBRANCH  30  31
ENDBRANCH  11  30
BRANCH   6  38
HETATM   38  N6  UNL     1      -3.001 -33.988  49.205  1.00  0.00    -0.234 N 
ATOM     39  H62 UNL     1      -3.975 -34.289  49.223  1.00  0.00     0.174 HD
ATOM     40  H61 UNL     1      -2.457 -33.896  50.063  1.00  0.00     0.174 HD
ENDBRANCH   6  38
TORSDOF 7
ENDMDL
MODEL 3
REMARK VINA RESULT: -9.288476606      2.903      5.106
REMARK  7 active torsions:
REMARK  status: ('A' for Active; 'I' for Inactive)
REMARK       I    between atoms: C1_4  and  N3_6 
REMARK    1  A    between atoms: C3_9  and  N4_10 
REMARK    2  A    between atoms: C5_15  and  N6_16 
REMARK    3  A    between atoms: N8_23  and  C7_24 
REMARK    4  A    between atoms: C7_24  and  C8_25 
REMARK       I    between atoms: C8_25  and  N9_27 
REMARK    5  A    between atoms: N9_27  and  N10_29 
REMARK    6  A    between atoms: C9_32  and  O4_33 
REMARK    7  A    between atoms: C11_36  and  N11_37 
ROOT
HETATM    1  N4  UNL     1      -4.006 -34.087  41.580  1.00  0.00    -0.209 N 
ATOM      2  H4  UNL     1      -3.433 -33.790  40.790  1.00  0.00     0.178 HD
HETATM    3  C4  UNL     1      -5.091 -33.582  41.342  1.00  0.00     0.700 A 
HETATM    4  N5  UNL     1      -5.208 -32.826  40.173  1.00  0.00    -0.022 N 
ATOM      5  H5  UNL     1      -4.391 -32.732  39.571  1.00  0.00     0.203 HD
HETATM    6  C5  UNL     1      -6.334 -32.225  39.810  1.00  0.00     0.694 A 
HETATM    7  N7  UNL     1      -7.429 -32.310  40.547  1.00  0.00    -0.140 N 
ATOM      8  H7  UNL     1      -8.290 -31.844  40.260  1.00  0.00     0.189 HD
HETATM    9  C6  UNL     1      -7.380 -33.016  41.673  1.00  0.00     0.355 A 
HETATM   10  O2  UNL     1      -8.436 -33.087  42.366  1.00  0.00    -0.245 OA
HETATM   11  N8  UNL     1      -6.244 -33.629  42.052  1.00  0.00    -0.123 N 
ENDROOT
BRANCH   1  12
HETATM   12  C3  UNL     1      -3.165 -34.812  42.309  1.00  0.00     0.221 C 
HETATM   13  C2  UNL     1      -2.175 -34.051  43.164  1.00  0.00     0.254 C 
HETATM   14  N3  UNL     1      -1.028 -34.732  43.585  1.00  0.00    -0.260 N 
HETATM   15  O1  UNL     1      -2.374 -32.870  43.478  1.00  0.00    -0.270 OA
HETATM   16  C1  UNL     1      -0.016 -33.986  44.248  1.00  0.00     0.192 C 
HETATM   17  C11 UNL     1      -0.765 -36.142  43.417  1.00  0.00     0.295 C 
HETATM   18  N1  UNL     1       0.533 -33.010  43.630  1.00  0.00    -0.373 N 
HETATM   19  N2  UNL     1       0.341 -34.355  45.559  1.00  0.00    -0.063 NA
ATOM     20  H12 UNL     1       1.260 -32.474  44.106  1.00  0.00     0.158 HD
ATOM     21  H11 UNL     1       0.275 -32.742  42.680  1.00  0.00     0.158 HD
HETATM   22  C10 UNL     1      -1.826 -36.809  42.546  1.00  0.00     0.089 C 
HETATM   23  C9  UNL     1      -2.237 -35.765  41.537  1.00  0.00     0.154 C 
BRANCH  17  24
HETATM   24  N11 UNL     1       0.505 -36.307  42.742  1.00  0.00    -0.058 N 
ATOM     25 3H11 UNL     1       0.440 -36.122  41.741  1.00  0.00     0.276 HD
ATOM     26 2H11 UNL     1       1.170 -35.572  42.981  1.00  0.00     0.276 HD
ATOM     27 1H11 UNL     1       0.868 -37.240  42.942  1.00  0.00     0.276 HD
ENDBRANCH  17  24
BRANCH  23  28
HETATM   28  O4  UNL     1      -2.823 -36.273  40.416  1.00  0.00    -0.393 OA
ATOM     29  H4  UNL     1      -3.547 -36.855  40.615  1.00  0.00     0.210 HD
ENDBRANCH  23  28
ENDBRANCH   1  12
BRANCH  11  30
HETATM   30  C7  UNL     1      -6.308 -34.359  43.270  1.00  0.00     0.257 C 
BRANCH  30  31
HETATM   31  C8  UNL     1      -5.771 -33.603  44.426  1.00  0.00     0.254 C 
HETATM   32  O3  UNL     1      -6.232 -32.483  44.712  1.00  0.00    -0.270 OA
HETATM   33  N9  UNL     1      -4.735 -34.151  45.207  1.00  0.00    -0.275 N 
ATOM     34  H9  UNL     1      -4.358 -35.069  44.972  1.00  0.00     0.189 HD
BRANCH  33  35
HETATM   35  N10 UNL     1      -4.214 -33.445  46.312  1.00  0.00    -0.343 N 
ATOM     36 2H10 UNL     1      -4.842 -33.208  47.080  1.00  0.00     0.176 HD
ATOM     37 1H10 UNL     1      -3.230 -33.177  46.342  1.00  0.00     0.176 HD
ENDBRANCH  33  35
ENDBRANCH  30  31
ENDBRANCH  11  30
BRANCH   6  38
HETATM   38  N6  UNL     1      -6.416 -31.527  38.718  1.00  0.00    -0.234 N 
ATOM     39  H62 UNL     1      -7.334 -31.470  38.277  1.00  0.00     0.174 HD
ATOM     40  H61 UNL     1      -5.604 -31.057  38.319  1.00  0.00     0.174 HD
ENDBRANCH   6  38
TORSDOF 7
ENDMDL
MODEL 4
REMARK VINA RESULT: -9.059803781      1.954      4.458
REMARK  7 active torsions:
REMARK  status: ('A' for Active; 'I' for Inactive)
REMARK       I    between atoms: C1_4  and  N3_6 
REMARK    1  A    between atoms: C3_9  and  N4_10 
REMARK    2  A    between atoms: C5_15  and  N6_16 
REMARK    3  A    between atoms: N8_23  and  C7_24 
REMARK    4  A    between atoms: C7_24  and  C8_25 
REMARK       I    between atoms: C8_25  and  N9_27 
REMARK    5  A    between atoms: N9_27  and  N10_29 
REMARK    6  A    between atoms: C9_32  and  O4_33 
REMARK    7  A    between atoms: C11_36  and  N11_37 
ROOT
HETATM    1  N4  UNL     1      -3.636 -33.180  44.209  1.00  0.00    -0.209 N 
ATOM      2  H4  UNL     1      -3.922 -32.306  44.650  1.00  0.00     0.178 HD
HETATM    3  C4  UNL     1      -4.400 -33.278  43.263  1.00  0.00     0.700 A 
HETATM    4  N5  UNL     1      -5.343 -32.263  43.088  1.00  0.00    -0.022 N 
ATOM      5  H5  UNL     1      -5.351 -31.486  43.749  1.00  0.00     0.203 HD
HETATM    6  C5  UNL     1      -6.229 -32.261  42.100  1.00  0.00     0.694 A 
HETATM    7  N7  UNL     1      -6.271 -33.238  41.209  1.00  0.00    -0.140 N 
ATOM      8  H7  UNL     1      -6.956 -33.227  40.454  1.00  0.00     0.189 HD
HETATM    9  C6  UNL     1      -5.398 -34.234  41.323  1.00  0.00     0.355 A 
HETATM   10  O2  UNL     1      -5.451 -35.160  40.464  1.00  0.00    -0.245 OA
HETATM   11  N8  UNL     1      -4.495 -34.247  42.320  1.00  0.00    -0.123 N 
ENDROOT
BRANCH   1  12
HETATM   12  C3  UNL     1      -2.633 -33.593  44.976  1.00  0.00     0.221 C 
HETATM   13  C2  UNL     1      -2.795 -33.401  46.468  1.00  0.00     0.254 C 
HETATM   14  N3  UNL     1      -1.635 -33.407  47.251  1.00  0.00    -0.260 N 
HETATM   15  O1  UNL     1      -3.913 -33.245  46.976  1.00  0.00    -0.270 OA
HETATM   16  C1  UNL     1      -1.757 -33.066  48.625  1.00  0.00     0.192 C 
HETATM   17  C11 UNL     1      -0.304 -33.735  46.796  1.00  0.00     0.295 C 
HETATM   18  N1  UNL     1      -2.215 -31.913  48.935  1.00  0.00    -0.373 N 
HETATM   19  N2  UNL     1      -1.366 -34.016  49.590  1.00  0.00    -0.063 NA
ATOM     20  H12 UNL     1      -2.302 -31.669  49.922  1.00  0.00     0.158 HD
ATOM     21  H11 UNL     1      -2.498 -31.226  48.237  1.00  0.00     0.158 HD
HETATM   22  C10 UNL     1      -0.257 -33.912  45.282  1.00  0.00     0.089 C 
HETATM   23  C9  UNL     1      -1.266 -32.935  44.728  1.00  0.00     0.154 C 
BRANCH  17  24
HETATM   24  N11 UNL     1       0.588 -32.643  47.125  1.00  0.00    -0.058 N 
ATOM     25 3H11 UNL     1       1.420 -32.958  47.624  1.00  0.00     0.276 HD
ATOM     26 2H11 UNL     1       1.052 -32.260  46.302  1.00  0.00     0.276 HD
ATOM     27 1H11 UNL     1       0.068 -31.935  47.644  1.00  0.00     0.276 HD
ENDBRANCH  17  24
BRANCH  23  28
HETATM   28  O4  UNL     1      -1.069 -32.613  43.418  1.00  0.00    -0.393 OA
ATOM     29  H4  UNL     1      -0.685 -33.326  42.921  1.00  0.00     0.210 HD
ENDBRANCH  23  28
ENDBRANCH   1  12
BRANCH  11  30
HETATM   30  C7  UNL     1      -3.610 -35.359  42.343  1.00  0.00     0.257 C 
BRANCH  30  31
HETATM   31  C8  UNL     1      -2.245 -35.022  41.873  1.00  0.00     0.254 C 
HETATM   32  O3  UNL     1      -2.082 -34.164  40.987  1.00  0.00    -0.270 OA
HETATM   33  N9  UNL     1      -1.127 -35.673  42.429  1.00  0.00    -0.275 N 
ATOM     34  H9  UNL     1      -1.262 -36.376  43.155  1.00  0.00     0.189 HD
BRANCH  33  35
HETATM   35  N10 UNL     1       0.178 -35.362  41.993  1.00  0.00    -0.343 N 
ATOM     36 2H10 UNL     1       0.405 -34.389  41.783  1.00  0.00     0.176 HD
ATOM     37 1H10 UNL     1       0.881 -36.094  41.889  1.00  0.00     0.176 HD
ENDBRANCH  33  35
ENDBRANCH  30  31
ENDBRANCH  11  30
BRANCH   6  38
HETATM   38  N6  UNL     1      -7.096 -31.304  41.961  1.00  0.00    -0.234 N 
ATOM     39  H62 UNL     1      -7.214 -30.671  42.751  1.00  0.00     0.174 HD
ATOM     40  H61 UNL     1      -7.635 -31.188  41.102  1.00  0.00     0.174 HD
ENDBRANCH   6  38
TORSDOF 7
ENDMDL
MODEL 5
REMARK VINA RESULT: -8.777715070      2.087      6.290
REMARK  7 active torsions:
REMARK  status: ('A' for Active; 'I' for Inactive)
REMARK       I    between atoms: C1_4  and  N3_6 
REMARK    1  A    between atoms: C3_9  and  N4_10 
REMARK    2  A    between atoms: C5_15  and  N6_16 
REMARK    3  A    between atoms: N8_23  and  C7_24 
REMARK    4  A    between atoms: C7_24  and  C8_25 
REMARK       I    between atoms: C8_25  and  N9_27 
REMARK    5  A    between atoms: N9_27  and  N10_29 
REMARK    6  A    between atoms: C9_32  and  O4_33 
REMARK    7  A    between atoms: C11_36  and  N11_37 
ROOT
HETATM    1  N4  UNL     1       0.514 -32.967  44.533  1.00  0.00    -0.209 N 
ATOM      2  H4  UNL     1       1.158 -32.376  44.008  1.00  0.00     0.178 HD
HETATM    3  C4  UNL     1       0.798 -32.726  45.695  1.00  0.00     0.700 A 
HETATM    4  N5  UNL     1       1.820 -31.803  45.931  1.00  0.00    -0.022 N 
ATOM      5  H5  UNL     1       2.278 -31.370  45.129  1.00  0.00     0.203 HD
HETATM    6  C5  UNL     1       2.221 -31.464  47.149  1.00  0.00     0.694 A 
HETATM    7  N7  UNL     1       1.667 -31.990  48.229  1.00  0.00    -0.140 N 
ATOM      8  H7  UNL     1       1.982 -31.722  49.161  1.00  0.00     0.189 HD
HETATM    9  C6  UNL     1       0.688 -32.875  48.069  1.00  0.00     0.355 A 
HETATM   10  O2  UNL     1       0.169 -33.369  49.111  1.00  0.00    -0.245 OA
HETATM   11  N8  UNL     1       0.273 -33.228  46.839  1.00  0.00    -0.123 N 
ENDROOT
BRANCH   1  12
HETATM   12  C3  UNL     1      -0.179 -33.581  43.580  1.00  0.00     0.221 C 
HETATM   13  C2  UNL     1      -1.660 -33.276  43.513  1.00  0.00     0.254 C 
HETATM   14  N3  UNL     1      -2.480 -34.193  42.847  1.00  0.00    -0.260 N 
HETATM   15  O1  UNL     1      -2.127 -32.251  44.028  1.00  0.00    -0.270 OA
HETATM   16  C1  UNL     1      -3.887 -34.003  42.917  1.00  0.00     0.192 C 
HETATM   17  C11 UNL     1      -2.034 -35.331  42.078  1.00  0.00     0.295 C 
HETATM   18  N1  UNL     1      -4.452 -34.008  44.064  1.00  0.00    -0.373 N 
HETATM   19  N2  UNL     1      -4.600 -33.818  41.716  1.00  0.00    -0.063 NA
ATOM     20  H12 UNL     1      -5.462 -33.872  44.114  1.00  0.00     0.158 HD
ATOM     21  H11 UNL     1      -3.936 -34.143  44.933  1.00  0.00     0.158 HD
HETATM   22  C10 UNL     1      -0.528 -35.542  42.213  1.00  0.00     0.089 C 
HETATM   23  C9  UNL     1      -0.184 -35.118  43.620  1.00  0.00     0.154 C 
BRANCH  17  24
HETATM   24  N11 UNL     1      -2.678 -36.524  42.586  1.00  0.00    -0.058 N 
ATOM     25 3H11 UNL     1      -3.080 -36.385  43.513  1.00  0.00     0.276 HD
ATOM     26 2H11 UNL     1      -3.540 -36.742  42.087  1.00  0.00     0.276 HD
ATOM     27 1H11 UNL     1      -2.011 -37.296  42.564  1.00  0.00     0.276 HD
ENDBRANCH  17  24
BRANCH  23  28
HETATM   28  O4  UNL     1       0.989 -35.634  44.087  1.00  0.00    -0.393 OA
ATOM     29  H4  UNL     1       0.940 -35.879  45.003  1.00  0.00     0.210 HD
ENDBRANCH  23  28
ENDBRANCH   1  12
BRANCH  11  30
HETATM   30  C7  UNL     1      -0.781 -34.180  46.787  1.00  0.00     0.257 C 
BRANCH  30  31
HETATM   31  C8  UNL     1      -2.008 -33.724  47.482  1.00  0.00     0.254 C 
HETATM   32  O3  UNL     1      -2.648 -32.748  47.049  1.00  0.00    -0.270 OA
HETATM   33  N9  UNL     1      -2.455 -34.394  48.637  1.00  0.00    -0.275 N 
ATOM     34  H9  UNL     1      -1.929 -35.193  48.991  1.00  0.00     0.189 HD
BRANCH  33  35
HETATM   35  N10 UNL     1      -3.622 -33.972  49.309  1.00  0.00    -0.343 N 
ATOM     36 2H10 UNL     1      -3.923 -33.003  49.204  1.00  0.00     0.176 HD
ATOM     37 1H10 UNL     1      -4.153 -34.623  49.888  1.00  0.00     0.176 HD
ENDBRANCH  33  35
ENDBRANCH  30  31
ENDBRANCH  11  30
BRANCH   6  38
HETATM   38  N6  UNL     1       3.175 -30.603  47.341  1.00  0.00    -0.234 N 
ATOM     39  H62 UNL     1       2.894 -29.641  47.530  1.00  0.00     0.174 HD
ATOM     40  H61 UNL     1       4.158 -30.873  47.304  1.00  0.00     0.174 HD
ENDBRANCH   6  38
TORSDOF 7
ENDMDL
