MODEL 1
REMARK VINA RESULT: -5.842850452      0.000      0.000
REMARK  5 active torsions:
REMARK  status: ('A' for Active; 'I' for Inactive)
REMARK    1  A    between atoms: N1_1  and  N2_4 
REMARK       I    between atoms: N2_4  and  C1_6 
REMARK    2  A    between atoms: N4_8  and  N5_10 
REMARK    3  A    between atoms: N5_10  and  C2_12 
REMARK    4  A    between atoms: C2_12  and  S1_14 
REMARK    5  A    between atoms: S1_14  and  O1_15 
ROOT
HETATM    1  N2  UNL     1      20.156  49.453  67.493  1.00  0.00    -0.279 N 
ATOM      2  H2  UNL     1      20.417  48.682  68.108  1.00  0.00     0.189 HD
HETATM    3  C1  UNL     1      21.007  49.803  66.426  1.00  0.00     0.221 C 
HETATM    4  N3  UNL     1      20.462  49.709  65.099  1.00  0.00    -0.061 NA
HETATM    5  N4  UNL     1      22.221  50.195  66.558  1.00  0.00    -0.271 N 
ATOM      6  H4  UNL     1      22.781  50.433  65.739  1.00  0.00     0.189 HD
ENDROOT
BRANCH   5   7
HETATM    7  N5  UNL     1      22.767  50.292  67.847  1.00  0.00    -0.278 N 
ATOM      8  H5  UNL     1      22.361  50.979  68.482  1.00  0.00     0.189 HD
BRANCH   7   9
HETATM    9  C2  UNL     1      23.820  49.522  68.320  1.00  0.00     0.195 C 
HETATM   10  N6  UNL     1      25.014  50.034  68.792  1.00  0.00    -0.071 NA
BRANCH   9  11
HETATM   11  S1  UNL     1      23.631  47.887  68.273  1.00  0.00     0.061 SA
BRANCH  11  12
HETATM   12  O1  UNL     1      22.141  47.566  68.682  1.00  0.00    -0.323 OA
ATOM     13  H1  UNL     1      21.903  46.740  68.278  1.00  0.00     0.228 HD
ENDBRANCH  11  12
ENDBRANCH   9  11
ENDBRANCH   7   9
ENDBRANCH   5   7
BRANCH   1  14
HETATM   14  N1  UNL     1      18.968  50.138  67.725  1.00  0.00    -0.343 N 
ATOM     15  H12 UNL     1      18.979  51.157  67.672  1.00  0.00     0.176 HD
ATOM     16  H11 UNL     1      18.104  49.643  67.942  1.00  0.00     0.176 HD
ENDBRANCH   1  14
TORSDOF 5
ENDMDL
MODEL 2
REMARK VINA RESULT: -5.530563633      2.751      4.348
REMARK  5 active torsions:
REMARK  status: ('A' for Active; 'I' for Inactive)
REMARK    1  A    between atoms: N1_1  and  N2_4 
REMARK       I    between atoms: N2_4  and  C1_6 
REMARK    2  A    between atoms: N4_8  and  N5_10 
REMARK    3  A    between atoms: N5_10  and  C2_12 
REMARK    4  A    between atoms: C2_12  and  S1_14 
REMARK    5  A    between atoms: S1_14  and  O1_15 
ROOT
HETATM    1  N2  UNL     1      23.445  49.421  68.790  1.00  0.00    -0.279 N 
ATOM      2  H2  UNL     1      23.378  50.425  68.959  1.00  0.00     0.189 HD
HETATM    3  C1  UNL     1      23.159  48.917  67.505  1.00  0.00     0.221 C 
HETATM    4  N3  UNL     1      24.218  48.220  66.828  1.00  0.00    -0.061 NA
HETATM    5  N4  UNL     1      22.031  49.038  66.908  1.00  0.00    -0.271 N 
ATOM      6  H4  UNL     1      21.894  48.646  65.976  1.00  0.00     0.189 HD
ENDROOT
BRANCH   5   7
HETATM    7  N5  UNL     1      20.988  49.716  67.557  1.00  0.00    -0.278 N 
ATOM      8  H5  UNL     1      21.232  50.319  68.342  1.00  0.00     0.189 HD
BRANCH   7   9
HETATM    9  C2  UNL     1      19.647  49.625  67.208  1.00  0.00     0.195 C 
HETATM   10  N6  UNL     1      18.599  49.707  68.105  1.00  0.00    -0.071 NA
BRANCH   9  11
HETATM   11  S1  UNL     1      19.304  49.363  65.620  1.00  0.00     0.061 SA
BRANCH  11  12
HETATM   12  O1  UNL     1      20.189  50.354  64.770  1.00  0.00    -0.323 OA
ATOM     13  H1  UNL     1      19.615  50.806  64.163  1.00  0.00     0.228 HD
ENDBRANCH  11  12
ENDBRANCH   9  11
ENDBRANCH   7   9
ENDBRANCH   5   7
BRANCH   1  14
HETATM   14  N1  UNL     1      23.816  48.577  69.831  1.00  0.00    -0.343 N 
ATOM     15  H12 UNL     1      23.554  47.594  69.774  1.00  0.00     0.176 HD
ATOM     16  H11 UNL     1      24.338  48.925  70.635  1.00  0.00     0.176 HD
ENDBRANCH   1  14
TORSDOF 5
ENDMDL
MODEL 3
REMARK VINA RESULT: -5.452029140      1.938      3.871
REMARK  5 active torsions:
REMARK  status: ('A' for Active; 'I' for Inactive)
REMARK    1  A    between atoms: N1_1  and  N2_4 
REMARK       I    between atoms: N2_4  and  C1_6 
REMARK    2  A    between atoms: N4_8  and  N5_10 
REMARK    3  A    between atoms: N5_10  and  C2_12 
REMARK    4  A    between atoms: C2_12  and  S1_14 
REMARK    5  A    between atoms: S1_14  and  O1_15 
ROOT
HETATM    1  N2  UNL     1      23.645  49.712  68.623  1.00  0.00    -0.279 N 
ATOM      2  H2  UNL     1      23.458  50.659  68.953  1.00  0.00     0.189 HD
HETATM    3  C1  UNL     1      24.045  49.514  67.287  1.00  0.00     0.221 C 
HETATM    4  N3  UNL     1      25.330  48.906  67.074  1.00  0.00    -0.061 NA
HETATM    5  N4  UNL     1      23.347  49.835  66.260  1.00  0.00    -0.271 N 
ATOM      6  H4  UNL     1      23.700  49.661  65.319  1.00  0.00     0.189 HD
ENDROOT
BRANCH   5   7
HETATM    7  N5  UNL     1      22.090  50.429  66.451  1.00  0.00    -0.278 N 
ATOM      8  H5  UNL     1      22.063  51.346  66.898  1.00  0.00     0.189 HD
BRANCH   7   9
HETATM    9  C2  UNL     1      20.881  49.860  66.078  1.00  0.00     0.195 C 
HETATM   10  N6  UNL     1      20.285  50.028  64.842  1.00  0.00    -0.071 NA
BRANCH   9  11
HETATM   11  S1  UNL     1      20.097  48.958  67.211  1.00  0.00     0.061 SA
BRANCH  11  12
HETATM   12  O1  UNL     1      21.183  48.107  67.978  1.00  0.00    -0.323 OA
ATOM     13  H1  UNL     1      21.912  47.969  67.386  1.00  0.00     0.228 HD
ENDBRANCH  11  12
ENDBRANCH   9  11
ENDBRANCH   7   9
ENDBRANCH   5   7
BRANCH   1  14
HETATM   14  N1  UNL     1      23.499  48.643  69.501  1.00  0.00    -0.343 N 
ATOM     15  H12 UNL     1      24.297  48.027  69.650  1.00  0.00     0.176 HD
ATOM     16  H11 UNL     1      22.619  48.473  69.987  1.00  0.00     0.176 HD
ENDBRANCH   1  14
TORSDOF 5
ENDMDL
MODEL 4
REMARK VINA RESULT: -5.423081835      5.472      6.122
REMARK  5 active torsions:
REMARK  status: ('A' for Active; 'I' for Inactive)
REMARK    1  A    between atoms: N1_1  and  N2_4 
REMARK       I    between atoms: N2_4  and  C1_6 
REMARK    2  A    between atoms: N4_8  and  N5_10 
REMARK    3  A    between atoms: N5_10  and  C2_12 
REMARK    4  A    between atoms: C2_12  and  S1_14 
REMARK    5  A    between atoms: S1_14  and  O1_15 
ROOT
HETATM    1  N2  UNL     1      22.320  42.924  68.708  1.00  0.00    -0.279 N 
ATOM      2  H2  UNL     1      21.599  43.317  69.313  1.00  0.00     0.189 HD
HETATM    3  C1  UNL     1      23.675  43.070  69.065  1.00  0.00     0.221 C 
HETATM    4  N3  UNL     1      24.426  41.864  69.281  1.00  0.00    -0.061 NA
HETATM    5  N4  UNL     1      24.276  44.194  69.209  1.00  0.00    -0.271 N 
ATOM      6  H4  UNL     1      25.262  44.225  69.469  1.00  0.00     0.189 HD
ENDROOT
BRANCH   5   7
HETATM    7  N5  UNL     1      23.556  45.380  69.001  1.00  0.00    -0.278 N 
ATOM      8  H5  UNL     1      22.606  45.428  69.370  1.00  0.00     0.189 HD
BRANCH   7   9
HETATM    9  C2  UNL     1      24.042  46.494  68.331  1.00  0.00     0.195 C 
HETATM   10  N6  UNL     1      25.212  46.517  67.598  1.00  0.00    -0.071 NA
BRANCH   9  11
HETATM   11  S1  UNL     1      23.170  47.884  68.462  1.00  0.00     0.061 SA
BRANCH  11  12
HETATM   12  O1  UNL     1      23.471  48.505  69.882  1.00  0.00    -0.323 OA
ATOM     13  H1  UNL     1      23.080  49.370  69.907  1.00  0.00     0.228 HD
ENDBRANCH  11  12
ENDBRANCH   9  11
ENDBRANCH   7   9
ENDBRANCH   5   7
BRANCH   1  14
HETATM   14  N1  UNL     1      21.946  42.255  67.548  1.00  0.00    -0.343 N 
ATOM     15  H12 UNL     1      21.355  41.428  67.635  1.00  0.00     0.176 HD
ATOM     16  H11 UNL     1      22.250  42.577  66.629  1.00  0.00     0.176 HD
ENDBRANCH   1  14
TORSDOF 5
ENDMDL
MODEL 5
REMARK VINA RESULT: -5.401005795      5.140      5.880
REMARK  5 active torsions:
REMARK  status: ('A' for Active; 'I' for Inactive)
REMARK    1  A    between atoms: N1_1  and  N2_4 
REMARK       I    between atoms: N2_4  and  C1_6 
REMARK    2  A    between atoms: N4_8  and  N5_10 
REMARK    3  A    between atoms: N5_10  and  C2_12 
REMARK    4  A    between atoms: C2_12  and  S1_14 
REMARK    5  A    between atoms: S1_14  and  O1_15 
ROOT
HETATM    1  N2  UNL     1      23.162  47.422  69.035  1.00  0.00    -0.279 N 
ATOM      2  H2  UNL     1      22.174  47.176  68.975  1.00  0.00     0.189 HD
HETATM    3  C1  UNL     1      24.102  46.692  68.281  1.00  0.00     0.221 C 
HETATM    4  N3  UNL     1      24.874  47.424  67.316  1.00  0.00    -0.061 NA
HETATM    5  N4  UNL     1      24.312  45.432  68.398  1.00  0.00    -0.271 N 
ATOM      6  H4  UNL     1      25.011  44.967  67.819  1.00  0.00     0.189 HD
ENDROOT
BRANCH   5   7
HETATM    7  N5  UNL     1      23.566  44.703  69.337  1.00  0.00    -0.278 N 
ATOM      8  H5  UNL     1      22.982  45.228  69.988  1.00  0.00     0.189 HD
BRANCH   7   9
HETATM    9  C2  UNL     1      23.565  43.319  69.445  1.00  0.00     0.195 C 
HETATM   10  N6  UNL     1      22.648  42.487  68.832  1.00  0.00    -0.071 NA
BRANCH   9  11
HETATM   11  S1  UNL     1      24.719  42.644  70.406  1.00  0.00     0.061 SA
BRANCH  11  12
HETATM   12  O1  UNL     1      25.220  41.326  69.697  1.00  0.00    -0.323 OA
ATOM     13  H1  UNL     1      26.088  41.132  70.030  1.00  0.00     0.228 HD
ENDBRANCH  11  12
ENDBRANCH   9  11
ENDBRANCH   7   9
ENDBRANCH   5   7
BRANCH   1  14
HETATM   14  N1  UNL     1      23.554  48.471  69.859  1.00  0.00    -0.343 N 
ATOM     15  H12 UNL     1      24.113  49.222  69.455  1.00  0.00     0.176 HD
ATOM     16  H11 UNL     1      23.293  48.497  70.845  1.00  0.00     0.176 HD
ENDBRANCH   1  14
TORSDOF 5
ENDMDL
