MODEL 1
REMARK VINA RESULT: -6.788758295      0.000      0.000
REMARK  0 active torsions:
REMARK  status: ('A' for Active; 'I' for Inactive)
ROOT
HETATM    1  N1  UNL     1      24.722  46.981  68.306  1.00  0.00    -0.232 N 
ATOM      2  H11 UNL     1      25.568  47.365  67.886  1.00  0.00     0.174 HD
ATOM      3  H12 UNL     1      23.870  47.432  68.641  1.00  0.00     0.174 HD
HETATM    4  C1  UNL     1      24.706  45.696  68.454  1.00  0.00     0.705 C 
HETATM    5  N2  UNL     1      23.528  45.160  69.039  1.00  0.00    -0.128 N 
ATOM      6  H2  UNL     1      23.016  45.866  69.569  1.00  0.00     0.205 HD
HETATM    7  N3  UNL     1      22.882  43.909  69.079  1.00  0.00    -0.248 N 
ATOM      8  H3  UNL     1      22.083  43.916  69.713  1.00  0.00     0.191 HD
HETATM    9  C2  UNL     1      23.058  42.641  68.464  1.00  0.00     0.316 C 
HETATM   10  O1  UNL     1      22.065  41.870  68.537  1.00  0.00    -0.262 OA
HETATM   11  C3  UNL     1      24.201  42.072  67.755  1.00  0.00     0.309 C 
HETATM   12  O2  UNL     1      23.970  40.872  67.392  1.00  0.00    -0.276 OA
HETATM   13  C4  UNL     1      25.533  42.537  67.364  1.00  0.00     0.316 C 
HETATM   14  O3  UNL     1      26.228  41.695  66.767  1.00  0.00    -0.262 OA
HETATM   15  N4  UNL     1      26.213  43.760  67.521  1.00  0.00    -0.248 N 
ATOM     16  H4  UNL     1      27.185  43.689  67.222  1.00  0.00     0.191 HD
HETATM   17  N5  UNL     1      25.906  45.061  67.984  1.00  0.00    -0.128 N 
ATOM     18  H5  UNL     1      26.713  45.685  67.984  1.00  0.00     0.205 HD
ENDROOT
TORSDOF 0
ENDMDL
MODEL 2
REMARK VINA RESULT: -6.459750180      4.827      6.006
REMARK  0 active torsions:
REMARK  status: ('A' for Active; 'I' for Inactive)
ROOT
HETATM    1  N1  UNL     1      20.218  49.983  65.746  1.00  0.00    -0.232 N 
ATOM      2  H11 UNL     1      20.401  50.699  65.043  1.00  0.00     0.174 HD
ATOM      3  H12 UNL     1      19.378  49.445  65.957  1.00  0.00     0.174 HD
HETATM    4  C1  UNL     1      21.214  49.692  66.518  1.00  0.00     0.705 C 
HETATM    5  N2  UNL     1      20.960  48.694  67.496  1.00  0.00    -0.128 N 
ATOM      6  H2  UNL     1      19.962  48.594  67.683  1.00  0.00     0.205 HD
HETATM    7  N3  UNL     1      21.726  47.805  68.275  1.00  0.00    -0.248 N 
ATOM      8  H3  UNL     1      21.152  47.304  68.953  1.00  0.00     0.191 HD
HETATM    9  C2  UNL     1      23.093  47.427  68.360  1.00  0.00     0.316 C 
HETATM   10  O1  UNL     1      23.313  46.359  68.988  1.00  0.00    -0.262 OA
HETATM   11  C3  UNL     1      24.297  48.069  67.837  1.00  0.00     0.309 C 
HETATM   12  O2  UNL     1      25.346  47.428  68.174  1.00  0.00    -0.276 OA
HETATM   13  C4  UNL     1      24.590  49.255  67.031  1.00  0.00     0.316 C 
HETATM   14  O3  UNL     1      25.799  49.461  66.822  1.00  0.00    -0.262 OA
HETATM   15  N4  UNL     1      23.780  50.235  66.427  1.00  0.00    -0.248 N 
ATOM     16  H4  UNL     1      24.339  50.991  66.032  1.00  0.00     0.191 HD
HETATM   17  N5  UNL     1      22.397  50.450  66.221  1.00  0.00    -0.128 N 
ATOM     18  H5  UNL     1      22.196  51.338  65.761  1.00  0.00     0.205 HD
ENDROOT
TORSDOF 0
ENDMDL
MODEL 3
REMARK VINA RESULT: -6.194919473      4.222      5.875
REMARK  0 active torsions:
REMARK  status: ('A' for Active; 'I' for Inactive)
ROOT
HETATM    1  N1  UNL     1      21.853  47.824  68.342  1.00  0.00    -0.232 N 
ATOM      2  H11 UNL     1      21.364  48.716  68.421  1.00  0.00     0.174 HD
ATOM      3  H12 UNL     1      21.521  46.894  68.084  1.00  0.00     0.174 HD
HETATM    4  C1  UNL     1      23.117  47.853  68.614  1.00  0.00     0.705 C 
HETATM    5  N2  UNL     1      23.797  46.612  68.503  1.00  0.00    -0.128 N 
ATOM      6  H2  UNL     1      23.154  45.822  68.564  1.00  0.00     0.205 HD
HETATM    7  N3  UNL     1      25.129  46.185  68.331  1.00  0.00    -0.248 N 
ATOM      8  H3  UNL     1      25.214  45.171  68.404  1.00  0.00     0.191 HD
HETATM    9  C2  UNL     1      26.383  46.804  68.083  1.00  0.00     0.316 C 
HETATM   10  O1  UNL     1      27.291  46.029  67.684  1.00  0.00    -0.262 OA
HETATM   11  C3  UNL     1      26.805  48.197  68.210  1.00  0.00     0.309 C 
HETATM   12  O2  UNL     1      28.041  48.334  67.933  1.00  0.00    -0.276 OA
HETATM   13  C4  UNL     1      26.161  49.461  68.575  1.00  0.00     0.316 C 
HETATM   14  O3  UNL     1      26.915  50.450  68.578  1.00  0.00    -0.262 OA
HETATM   15  N4  UNL     1      24.844  49.805  68.931  1.00  0.00    -0.248 N 
ATOM     16  H4  UNL     1      24.780  50.775  69.237  1.00  0.00     0.191 HD
HETATM   17  N5  UNL     1      23.584  49.163  68.977  1.00  0.00    -0.128 N 
ATOM     18  H5  UNL     1      22.846  49.760  69.350  1.00  0.00     0.205 HD
ENDROOT
TORSDOF 0
ENDMDL
MODEL 4
REMARK VINA RESULT: -6.167377606      0.786      2.903
REMARK  0 active torsions:
REMARK  status: ('A' for Active; 'I' for Inactive)
ROOT
HETATM    1  N1  UNL     1      26.242  46.532  68.857  1.00  0.00    -0.232 N 
ATOM      2  H11 UNL     1      25.652  47.098  69.467  1.00  0.00     0.174 HD
ATOM      3  H12 UNL     1      27.224  46.624  68.595  1.00  0.00     0.174 HD
HETATM    4  C1  UNL     1      25.664  45.516  68.305  1.00  0.00     0.705 C 
HETATM    5  N2  UNL     1      26.485  44.728  67.456  1.00  0.00    -0.128 N 
ATOM      6  H2  UNL     1      27.299  45.250  67.128  1.00  0.00     0.205 HD
HETATM    7  N3  UNL     1      26.472  43.414  66.949  1.00  0.00    -0.248 N 
ATOM      8  H3  UNL     1      27.217  43.263  66.268  1.00  0.00     0.191 HD
HETATM    9  C2  UNL     1      25.687  42.245  67.140  1.00  0.00     0.316 C 
HETATM   10  O1  UNL     1      26.206  41.179  66.719  1.00  0.00    -0.262 OA
HETATM   11  C3  UNL     1      24.371  42.066  67.749  1.00  0.00     0.309 C 
HETATM   12  O2  UNL     1      23.992  40.851  67.681  1.00  0.00    -0.276 OA
HETATM   13  C4  UNL     1      23.392  42.931  68.409  1.00  0.00     0.316 C 
HETATM   14  O3  UNL     1      22.350  42.358  68.775  1.00  0.00    -0.262 OA
HETATM   15  N4  UNL     1      23.374  44.303  68.725  1.00  0.00    -0.248 N 
ATOM     16  H4  UNL     1      22.466  44.592  69.089  1.00  0.00     0.191 HD
HETATM   17  N5  UNL     1      24.281  45.388  68.673  1.00  0.00    -0.128 N 
ATOM     18  H5  UNL     1      23.861  46.272  68.959  1.00  0.00     0.205 HD
ENDROOT
TORSDOF 0
ENDMDL
MODEL 5
REMARK VINA RESULT: -6.076325256      2.555      3.408
REMARK  0 active torsions:
REMARK  status: ('A' for Active; 'I' for Inactive)
ROOT
HETATM    1  N1  UNL     1      23.578  49.585  68.707  1.00  0.00    -0.232 N 
ATOM      2  H11 UNL     1      24.177  50.398  68.569  1.00  0.00     0.174 HD
ATOM      3  H12 UNL     1      22.563  49.496  68.759  1.00  0.00     0.174 HD
HETATM    4  C1  UNL     1      24.193  48.455  68.845  1.00  0.00     0.705 C 
HETATM    5  N2  UNL     1      23.359  47.322  69.037  1.00  0.00    -0.128 N 
ATOM      6  H2  UNL     1      22.435  47.588  69.380  1.00  0.00     0.205 HD
HETATM    7  N3  UNL     1      23.473  45.927  68.878  1.00  0.00    -0.248 N 
ATOM      8  H3  UNL     1      22.652  45.437  69.233  1.00  0.00     0.191 HD
HETATM    9  C2  UNL     1      24.439  45.028  68.352  1.00  0.00     0.316 C 
HETATM   10  O1  UNL     1      24.013  43.867  68.114  1.00  0.00    -0.262 OA
HETATM   11  C3  UNL     1      25.851  45.219  68.034  1.00  0.00     0.309 C 
HETATM   12  O2  UNL     1      26.384  44.138  67.621  1.00  0.00    -0.276 OA
HETATM   13  C4  UNL     1      26.796  46.338  68.075  1.00  0.00     0.316 C 
HETATM   14  O3  UNL     1      27.956  46.056  67.726  1.00  0.00    -0.262 OA
HETATM   15  N4  UNL     1      26.671  47.694  68.432  1.00  0.00    -0.248 N 
ATOM     16  H4  UNL     1      27.576  48.161  68.450  1.00  0.00     0.191 HD
HETATM   17  N5  UNL     1      25.622  48.581  68.773  1.00  0.00    -0.128 N 
ATOM     18  H5  UNL     1      25.954  49.512  69.022  1.00  0.00     0.205 HD
ENDROOT
TORSDOF 0
ENDMDL
