MODEL 1
REMARK VINA RESULT: -6.180169817      0.000      0.000
REMARK  2 active torsions:
REMARK  status: ('A' for Active; 'I' for Inactive)
REMARK       I    between atoms: N1_2  and  C2_4 
REMARK       I    between atoms: C2_4  and  N2_6 
REMARK    1  A    between atoms: N2_6  and  C3_8 
REMARK    2  A    between atoms: N5_15  and  N6_16 
ROOT
HETATM    1  C3  UNL     1      24.132  43.468  68.824  1.00  0.00     0.726 A 
HETATM    2  N3  UNL     1      22.815  43.730  68.904  1.00  0.00    -0.126 N 
ATOM      3  H3  UNL     1      22.408  44.578  69.298  1.00  0.00     0.206 HD
HETATM    4  N4  UNL     1      22.118  42.706  68.388  1.00  0.00    -0.235 N 
ATOM      5  H4  UNL     1      21.105  42.622  68.312  1.00  0.00     0.192 HD
HETATM    6  C4  UNL     1      23.042  41.818  67.993  1.00  0.00     0.375 A 
HETATM    7  O2  UNL     1      22.771  40.707  67.450  1.00  0.00    -0.243 OA
HETATM    8  N5  UNL     1      24.276  42.248  68.243  1.00  0.00    -0.035 N 
ENDROOT
BRANCH   1   9
HETATM    9  N2  UNL     1      25.145  44.165  69.193  1.00  0.00    -0.138 N 
HETATM   10  C2  UNL     1      25.859  45.053  68.378  1.00  0.00     0.334 C 
HETATM   11  N1  UNL     1      25.460  46.412  68.240  1.00  0.00    -0.347 N 
HETATM   12  O1  UNL     1      26.872  44.647  67.756  1.00  0.00    -0.247 OA
HETATM   13  C1  UNL     1      26.187  47.329  67.407  1.00  0.00     0.151 C 
ATOM     14  H1  UNL     1      24.638  46.743  68.744  1.00  0.00     0.163 HD
ATOM     15  H2  UNL     1      25.456  44.064  70.159  1.00  0.00     0.189 HD
ENDBRANCH   1   9
BRANCH   8  16
HETATM   16  N6  UNL     1      25.485  41.593  67.970  1.00  0.00    -0.320 N 
ATOM     17  H62 UNL     1      25.771  40.660  68.267  1.00  0.00     0.178 HD
ATOM     18  H61 UNL     1      26.265  41.964  67.426  1.00  0.00     0.178 HD
ENDBRANCH   8  16
TORSDOF 2
ENDMDL
MODEL 2
REMARK VINA RESULT: -6.169207441      5.351      6.865
REMARK  2 active torsions:
REMARK  status: ('A' for Active; 'I' for Inactive)
REMARK       I    between atoms: N1_2  and  C2_4 
REMARK       I    between atoms: C2_4  and  N2_6 
REMARK    1  A    between atoms: N2_6  and  C3_8 
REMARK    2  A    between atoms: N5_15  and  N6_16 
ROOT
HETATM    1  C3  UNL     1      22.298  48.884  67.576  1.00  0.00     0.726 A 
HETATM    2  N3  UNL     1      21.824  47.894  68.355  1.00  0.00    -0.126 N 
ATOM      3  H3  UNL     1      20.846  47.772  68.618  1.00  0.00     0.206 HD
HETATM    4  N4  UNL     1      22.832  47.093  68.732  1.00  0.00    -0.235 N 
ATOM      5  H4  UNL     1      22.776  46.263  69.323  1.00  0.00     0.192 HD
HETATM    6  C4  UNL     1      23.928  47.618  68.165  1.00  0.00     0.375 A 
HETATM    7  O2  UNL     1      25.091  47.137  68.291  1.00  0.00    -0.243 OA
HETATM    8  N5  UNL     1      23.640  48.707  67.457  1.00  0.00    -0.035 N 
ENDROOT
BRANCH   1   9
HETATM    9  N2  UNL     1      21.690  49.858  67.004  1.00  0.00    -0.138 N 
HETATM   10  C2  UNL     1      20.498  49.755  66.276  1.00  0.00     0.334 C 
HETATM   11  N1  UNL     1      19.231  49.846  66.916  1.00  0.00    -0.347 N 
HETATM   12  O1  UNL     1      20.543  49.579  65.032  1.00  0.00    -0.247 OA
HETATM   13  C1  UNL     1      18.004  49.742  66.177  1.00  0.00     0.151 C 
ATOM     14  H1  UNL     1      19.193  49.989  67.925  1.00  0.00     0.163 HD
ATOM     15  H2  UNL     1      22.110  50.785  67.086  1.00  0.00     0.189 HD
ENDBRANCH   1   9
BRANCH   8  16
HETATM   16  N6  UNL     1      24.524  49.516  66.729  1.00  0.00    -0.320 N 
ATOM     17  H62 UNL     1      24.949  50.396  67.021  1.00  0.00     0.178 HD
ATOM     18  H61 UNL     1      24.875  49.336  65.788  1.00  0.00     0.178 HD
ENDBRANCH   8  16
TORSDOF 2
ENDMDL
MODEL 3
REMARK VINA RESULT: -6.080719925      1.528      1.528
REMARK  2 active torsions:
REMARK  status: ('A' for Active; 'I' for Inactive)
REMARK       I    between atoms: N1_2  and  C2_4 
REMARK       I    between atoms: C2_4  and  N2_6 
REMARK    1  A    between atoms: N2_6  and  C3_8 
REMARK    2  A    between atoms: N5_15  and  N6_16 
ROOT
HETATM    1  C3  UNL     1      24.051  43.957  68.353  1.00  0.00     0.726 A 
HETATM    2  N3  UNL     1      22.711  43.883  68.261  1.00  0.00    -0.126 N 
ATOM      3  H3  UNL     1      22.069  44.663  68.403  1.00  0.00     0.206 HD
HETATM    4  N4  UNL     1      22.347  42.628  67.957  1.00  0.00    -0.235 N 
ATOM      5  H4  UNL     1      21.400  42.272  67.824  1.00  0.00     0.192 HD
HETATM    6  C4  UNL     1      23.496  41.942  67.866  1.00  0.00     0.375 A 
HETATM    7  O2  UNL     1      23.566  40.709  67.591  1.00  0.00    -0.243 OA
HETATM    8  N5  UNL     1      24.551  42.718  68.101  1.00  0.00    -0.035 N 
ENDROOT
BRANCH   1   9
HETATM    9  N2  UNL     1      24.815  44.953  68.620  1.00  0.00    -0.138 N 
HETATM   10  C2  UNL     1      24.607  46.271  68.195  1.00  0.00     0.334 C 
HETATM   11  N1  UNL     1      23.809  47.174  68.952  1.00  0.00    -0.347 N 
HETATM   12  O1  UNL     1      25.133  46.670  67.126  1.00  0.00    -0.247 OA
HETATM   13  C1  UNL     1      23.591  48.528  68.524  1.00  0.00     0.151 C 
ATOM     14  H1  UNL     1      23.381  46.853  69.820  1.00  0.00     0.163 HD
ATOM     15  H2  UNL     1      25.642  44.770  69.188  1.00  0.00     0.189 HD
ENDBRANCH   1   9
BRANCH   8  16
HETATM   16  N6  UNL     1      25.904  42.353  68.093  1.00  0.00    -0.320 N 
ATOM     17  H62 UNL     1      26.624  42.637  67.429  1.00  0.00     0.178 HD
ATOM     18  H61 UNL     1      26.370  41.741  68.764  1.00  0.00     0.178 HD
ENDBRANCH   8  16
TORSDOF 2
ENDMDL
MODEL 4
REMARK VINA RESULT: -6.044748963      3.722      5.518
REMARK  2 active torsions:
REMARK  status: ('A' for Active; 'I' for Inactive)
REMARK       I    between atoms: N1_2  and  C2_4 
REMARK       I    between atoms: C2_4  and  N2_6 
REMARK    1  A    between atoms: N2_6  and  C3_8 
REMARK    2  A    between atoms: N5_15  and  N6_16 
ROOT
HETATM    1  C3  UNL     1      23.039  47.672  68.261  1.00  0.00     0.726 A 
HETATM    2  N3  UNL     1      21.705  47.825  68.343  1.00  0.00    -0.126 N 
ATOM      3  H3  UNL     1      21.086  47.275  68.938  1.00  0.00     0.206 HD
HETATM    4  N4  UNL     1      21.312  48.812  67.522  1.00  0.00    -0.235 N 
ATOM      5  H4  UNL     1      20.362  49.152  67.373  1.00  0.00     0.192 HD
HETATM    6  C4  UNL     1      22.437  49.253  66.941  1.00  0.00     0.375 A 
HETATM    7  O2  UNL     1      22.476  50.191  66.092  1.00  0.00    -0.243 OA
HETATM    8  N5  UNL     1      23.504  48.583  67.366  1.00  0.00    -0.035 N 
ENDROOT
BRANCH   1   9
HETATM    9  N2  UNL     1      23.822  46.856  68.866  1.00  0.00    -0.138 N 
HETATM   10  C2  UNL     1      23.944  45.489  68.585  1.00  0.00     0.334 C 
HETATM   11  N1  UNL     1      24.846  45.015  67.593  1.00  0.00    -0.347 N 
HETATM   12  O1  UNL     1      23.245  44.660  69.220  1.00  0.00    -0.247 OA
HETATM   13  C1  UNL     1      24.978  43.616  67.299  1.00  0.00     0.151 C 
ATOM     14  H1  UNL     1      25.415  45.687  67.076  1.00  0.00     0.163 HD
ATOM     15  H2  UNL     1      24.405  47.233  69.614  1.00  0.00     0.189 HD
ENDBRANCH   1   9
BRANCH   8  16
HETATM   16  N6  UNL     1      24.841  48.765  66.984  1.00  0.00    -0.320 N 
ATOM     17  H62 UNL     1      25.197  49.310  66.199  1.00  0.00     0.178 HD
ATOM     18  H61 UNL     1      25.662  48.371  67.445  1.00  0.00     0.178 HD
ENDBRANCH   8  16
TORSDOF 2
ENDMDL
MODEL 5
REMARK VINA RESULT: -5.971273910      1.792      2.323
REMARK  2 active torsions:
REMARK  status: ('A' for Active; 'I' for Inactive)
REMARK       I    between atoms: N1_2  and  C2_4 
REMARK       I    between atoms: C2_4  and  N2_6 
REMARK    1  A    between atoms: N2_6  and  C3_8 
REMARK    2  A    between atoms: N5_15  and  N6_16 
ROOT
HETATM    1  C3  UNL     1      24.614  44.169  68.142  1.00  0.00     0.726 A 
HETATM    2  N3  UNL     1      24.817  43.366  67.082  1.00  0.00    -0.126 N 
ATOM      3  H3  UNL     1      25.509  43.525  66.349  1.00  0.00     0.206 HD
HETATM    4  N4  UNL     1      23.972  42.325  67.135  1.00  0.00    -0.235 N 
ATOM      5  H4  UNL     1      23.894  41.556  66.469  1.00  0.00     0.192 HD
HETATM    6  C4  UNL     1      23.252  42.514  68.250  1.00  0.00     0.375 A 
HETATM    7  O2  UNL     1      22.340  41.732  68.646  1.00  0.00    -0.243 OA
HETATM    8  N5  UNL     1      23.615  43.625  68.886  1.00  0.00    -0.035 N 
ENDROOT
BRANCH   1   9
HETATM    9  N2  UNL     1      25.194  45.261  68.484  1.00  0.00    -0.138 N 
HETATM   10  C2  UNL     1      24.791  46.547  68.103  1.00  0.00     0.334 C 
HETATM   11  N1  UNL     1      23.828  47.274  68.857  1.00  0.00    -0.347 N 
HETATM   12  O1  UNL     1      25.287  47.075  67.076  1.00  0.00    -0.247 OA
HETATM   13  C1  UNL     1      23.410  48.593  68.474  1.00  0.00     0.151 C 
ATOM     14  H1  UNL     1      23.425  46.847  69.691  1.00  0.00     0.163 HD
ATOM     15  H2  UNL     1      26.017  45.187  69.082  1.00  0.00     0.189 HD
ENDBRANCH   1   9
BRANCH   8  16
HETATM   16  N6  UNL     1      23.089  44.142  70.078  1.00  0.00    -0.320 N 
ATOM     17  H62 UNL     1      23.283  43.835  71.031  1.00  0.00     0.178 HD
ATOM     18  H61 UNL     1      22.428  44.914  70.163  1.00  0.00     0.178 HD
ENDBRANCH   8  16
TORSDOF 2
ENDMDL
