MODEL 1
REMARK VINA RESULT: -8.092842990      0.000      0.000
REMARK  5 active torsions:
REMARK  status: ('A' for Active; 'I' for Inactive)
REMARK    1  A    between atoms: N1_2  and  S1_4 
REMARK    2  A    between atoms: S1_4  and  C3_7 
REMARK    3  A    between atoms: C3_7  and  C4_8 
REMARK       I    between atoms: C4_8  and  N2_10 
REMARK    4  A    between atoms: N2_10  and  C5_12 
REMARK    5  A    between atoms: C12_19  and  C13_20 
REMARK       I    between atoms: C13_20  and  N3_22 
ROOT
HETATM    1  C5  UNL     1      -6.169  11.323  21.026  1.00  0.00     0.092 C 
HETATM    2  C6  UNL     1      -5.326  10.459  20.136  1.00  0.00     0.010 C 
HETATM    3  C7  UNL     1      -5.268   9.075  20.700  1.00  0.00     0.011 C 
HETATM    4  C8  UNL     1      -6.672   8.511  20.737  1.00  0.00    -0.013 C 
HETATM    5  C9  UNL     1      -7.623   9.335  21.538  1.00  0.00     0.011 C 
HETATM    6  C10 UNL     1      -7.570  10.750  21.062  1.00  0.00     0.010 C 
HETATM    7  C11 UNL     1      -8.064  10.754  19.608  1.00  0.00     0.026 C 
HETATM    8  C12 UNL     1      -7.286   9.810  18.752  1.00  0.00     0.042 C 
HETATM    9  C18 UNL     1      -7.140   8.420  19.309  1.00  0.00     0.024 C 
HETATM   10  C19 UNL     1      -5.851  10.376  18.730  1.00  0.00     0.026 C 
ENDROOT
BRANCH   1  11
HETATM   11  N2  UNL     1      -5.588  11.327  22.343  1.00  0.00    -0.352 N 
HETATM   12  C4  UNL     1      -4.679  12.320  22.770  1.00  0.00     0.269 C 
HETATM   13  O2  UNL     1      -4.397  13.221  21.921  1.00  0.00    -0.269 OA
ATOM     14  H2  UNL     1      -5.842  10.583  22.993  1.00  0.00     0.163 HD
BRANCH  12  15
HETATM   15  C3  UNL     1      -4.086  12.303  24.146  1.00  0.00     0.249 C 
HETATM   16  C20 UNL     1      -3.536  13.690  24.403  1.00  0.00     0.068 C 
HETATM   17  C21 UNL     1      -4.422  14.313  25.432  1.00  0.00     0.031 C 
HETATM   18  C22 UNL     1      -5.699  13.506  25.164  1.00  0.00     0.170 C 
HETATM   19  O4  UNL     1      -5.198  12.252  25.026  1.00  0.00    -0.356 OA
BRANCH  15  20
HETATM   20  S1  UNL     1      -2.902  10.839  24.251  1.00  0.00     0.206 S 
HETATM   21  O1  UNL     1      -3.223  10.352  25.725  1.00  0.00    -0.219 OA
HETATM   22  F1  UNL     1      -2.412  10.955  22.563  1.00  0.00    -0.127 F 
BRANCH  20  23
HETATM   23  N1  UNL     1      -1.110  11.136  24.653  1.00  0.00    -0.224 NA
HETATM   24  C1  UNL     1      -0.437  11.737  23.559  1.00  0.00     0.128 C 
HETATM   25  C2  UNL     1      -0.521   9.966  25.195  1.00  0.00     0.128 C 
ENDBRANCH  20  23
ENDBRANCH  15  20
ENDBRANCH  12  15
ENDBRANCH   1  11
BRANCH   8  26
HETATM   26  C13 UNL     1      -7.848   9.838  17.385  1.00  0.00     0.228 C 
HETATM   27  O3  UNL     1      -9.073  10.214  17.302  1.00  0.00    -0.273 OA
HETATM   28  N3  UNL     1      -7.158   9.495  16.206  1.00  0.00    -0.351 N 
HETATM   29  C14 UNL     1      -5.817   9.045  15.939  1.00  0.00     0.126 C 
HETATM   30  C17 UNL     1      -7.786   9.548  14.881  1.00  0.00     0.126 C 
HETATM   31  C15 UNL     1      -5.457   9.918  14.727  1.00  0.00     0.021 C 
HETATM   32  C16 UNL     1      -6.697   9.765  13.887  1.00  0.00     0.021 C 
ENDBRANCH   8  26
TORSDOF 5
ENDMDL
MODEL 2
REMARK VINA RESULT: -7.913033969      0.947      1.055
REMARK  5 active torsions:
REMARK  status: ('A' for Active; 'I' for Inactive)
REMARK    1  A    between atoms: N1_2  and  S1_4 
REMARK    2  A    between atoms: S1_4  and  C3_7 
REMARK    3  A    between atoms: C3_7  and  C4_8 
REMARK       I    between atoms: C4_8  and  N2_10 
REMARK    4  A    between atoms: N2_10  and  C5_12 
REMARK    5  A    between atoms: C12_19  and  C13_20 
REMARK       I    between atoms: C13_20  and  N3_22 
ROOT
HETATM    1  C5  UNL     1      -6.303  11.368  20.732  1.00  0.00     0.092 C 
HETATM    2  C6  UNL     1      -5.478  10.590  19.750  1.00  0.00     0.010 C 
HETATM    3  C7  UNL     1      -5.268   9.203  20.268  1.00  0.00     0.011 C 
HETATM    4  C8  UNL     1      -6.617   8.532  20.409  1.00  0.00    -0.013 C 
HETATM    5  C9  UNL     1      -7.554   9.263  21.311  1.00  0.00     0.011 C 
HETATM    6  C10 UNL     1      -7.648  10.688  20.872  1.00  0.00     0.010 C 
HETATM    7  C11 UNL     1      -8.266  10.684  19.466  1.00  0.00     0.026 C 
HETATM    8  C12 UNL     1      -7.497   9.822  18.520  1.00  0.00     0.042 C 
HETATM    9  C18 UNL     1      -7.200   8.436  19.024  1.00  0.00     0.024 C 
HETATM   10  C19 UNL     1      -6.116  10.497  18.392  1.00  0.00     0.026 C 
ENDROOT
BRANCH   1  11
HETATM   11  N2  UNL     1      -5.610  11.388  21.995  1.00  0.00    -0.352 N 
HETATM   12  C4  UNL     1      -4.742  12.438  22.369  1.00  0.00     0.269 C 
HETATM   13  O2  UNL     1      -4.603  13.375  21.523  1.00  0.00    -0.269 OA
ATOM     14  H2  UNL     1      -5.752  10.614  22.644  1.00  0.00     0.163 HD
BRANCH  12  15
HETATM   15  C3  UNL     1      -4.033  12.437  23.688  1.00  0.00     0.249 C 
HETATM   16  C20 UNL     1      -3.724  13.882  24.020  1.00  0.00     0.068 C 
HETATM   17  C21 UNL     1      -4.610  14.253  25.164  1.00  0.00     0.031 C 
HETATM   18  C22 UNL     1      -5.737  13.239  24.928  1.00  0.00     0.170 C 
HETATM   19  O4  UNL     1      -5.031  12.115  24.644  1.00  0.00    -0.356 OA
BRANCH  15  20
HETATM   20  S1  UNL     1      -2.597  11.220  23.575  1.00  0.00     0.206 S 
HETATM   21  O1  UNL     1      -3.338  10.010  22.867  1.00  0.00    -0.219 OA
HETATM   22  F1  UNL     1      -1.411  12.373  24.181  1.00  0.00    -0.127 F 
BRANCH  20  23
HETATM   23  N1  UNL     1      -2.152  10.186  25.056  1.00  0.00    -0.224 NA
HETATM   24  C1  UNL     1      -2.606  10.793  26.254  1.00  0.00     0.128 C 
HETATM   25  C2  UNL     1      -0.785   9.814  25.011  1.00  0.00     0.128 C 
ENDBRANCH  20  23
ENDBRANCH  15  20
ENDBRANCH  12  15
ENDBRANCH   1  11
BRANCH   8  26
HETATM   26  C13 UNL     1      -8.177   9.836  17.208  1.00  0.00     0.228 C 
HETATM   27  O3  UNL     1      -9.394  10.243  17.224  1.00  0.00    -0.273 OA
HETATM   28  N3  UNL     1      -7.603   9.448  15.982  1.00  0.00    -0.351 N 
HETATM   29  C14 UNL     1      -6.303   8.955  15.609  1.00  0.00     0.126 C 
HETATM   30  C17 UNL     1      -8.343   9.489  14.716  1.00  0.00     0.126 C 
HETATM   31  C15 UNL     1      -6.028   9.791  14.349  1.00  0.00     0.021 C 
HETATM   32  C16 UNL     1      -7.342   9.654  13.626  1.00  0.00     0.021 C 
ENDBRANCH   8  26
TORSDOF 5
ENDMDL
MODEL 3
REMARK VINA RESULT: -7.886619049      1.669      2.800
REMARK  5 active torsions:
REMARK  status: ('A' for Active; 'I' for Inactive)
REMARK    1  A    between atoms: N1_2  and  S1_4 
REMARK    2  A    between atoms: S1_4  and  C3_7 
REMARK    3  A    between atoms: C3_7  and  C4_8 
REMARK       I    between atoms: C4_8  and  N2_10 
REMARK    4  A    between atoms: N2_10  and  C5_12 
REMARK    5  A    between atoms: C12_19  and  C13_20 
REMARK       I    between atoms: C13_20  and  N3_22 
ROOT
HETATM    1  C5  UNL     1      -5.915  11.045  20.620  1.00  0.00     0.092 C 
HETATM    2  C6  UNL     1      -5.119  10.513  19.465  1.00  0.00     0.010 C 
HETATM    3  C7  UNL     1      -4.698   9.109  19.758  1.00  0.00     0.011 C 
HETATM    4  C8  UNL     1      -5.939   8.259  19.925  1.00  0.00    -0.013 C 
HETATM    5  C9  UNL     1      -6.849   8.741  21.005  1.00  0.00     0.011 C 
HETATM    6  C10 UNL     1      -7.151  10.187  20.784  1.00  0.00     0.010 C 
HETATM    7  C11 UNL     1      -7.914  10.289  19.456  1.00  0.00     0.026 C 
HETATM    8  C12 UNL     1      -7.160   9.662  18.330  1.00  0.00     0.042 C 
HETATM    9  C18 UNL     1      -6.655   8.271  18.601  1.00  0.00     0.024 C 
HETATM   10  C19 UNL     1      -5.886  10.518  18.172  1.00  0.00     0.026 C 
ENDROOT
BRANCH   1  11
HETATM   11  N2  UNL     1      -5.096  10.987  21.803  1.00  0.00    -0.352 N 
HETATM   12  C4  UNL     1      -4.397  12.110  22.299  1.00  0.00     0.269 C 
HETATM   13  O2  UNL     1      -4.529  13.186  21.638  1.00  0.00    -0.269 OA
ATOM     14  H2  UNL     1      -5.018  10.102  22.303  1.00  0.00     0.163 HD
BRANCH  12  15
HETATM   15  C3  UNL     1      -3.551  12.026  23.532  1.00  0.00     0.249 C 
HETATM   16  C20 UNL     1      -3.041  10.603  23.617  1.00  0.00     0.068 C 
HETATM   17  C21 UNL     1      -1.576  10.660  23.330  1.00  0.00     0.031 C 
HETATM   18  C22 UNL     1      -1.548  11.949  22.499  1.00  0.00     0.170 C 
HETATM   19  O4  UNL     1      -2.372  12.750  23.222  1.00  0.00    -0.356 OA
BRANCH  15  20
HETATM   20  S1  UNL     1      -4.560  12.700  24.976  1.00  0.00     0.206 S 
HETATM   21  O1  UNL     1      -6.016  12.335  24.466  1.00  0.00    -0.219 OA
HETATM   22  F1  UNL     1      -3.142  13.095  25.944  1.00  0.00    -0.127 F 
BRANCH  20  23
HETATM   23  N1  UNL     1      -4.953  14.516  25.051  1.00  0.00    -0.224 NA
HETATM   24  C1  UNL     1      -4.826  15.009  26.375  1.00  0.00     0.128 C 
HETATM   25  C2  UNL     1      -6.176  14.788  24.388  1.00  0.00     0.128 C 
ENDBRANCH  20  23
ENDBRANCH  15  20
ENDBRANCH  12  15
ENDBRANCH   1  11
BRANCH   8  26
HETATM   26  C13 UNL     1      -7.976   9.761  17.101  1.00  0.00     0.228 C 
HETATM   27  O3  UNL     1      -9.190  10.140  17.276  1.00  0.00    -0.273 OA
HETATM   28  N3  UNL     1      -7.530   9.480  15.795  1.00  0.00    -0.351 N 
HETATM   29  C14 UNL     1      -6.270   9.044  15.251  1.00  0.00     0.126 C 
HETATM   30  C17 UNL     1      -8.401   9.601  14.621  1.00  0.00     0.126 C 
HETATM   31  C15 UNL     1      -6.142   9.979  14.038  1.00  0.00     0.021 C 
HETATM   32  C16 UNL     1      -7.523   9.870  13.447  1.00  0.00     0.021 C 
ENDBRANCH   8  26
TORSDOF 5
ENDMDL
MODEL 4
REMARK VINA RESULT: -7.848547495      0.935      1.063
REMARK  5 active torsions:
REMARK  status: ('A' for Active; 'I' for Inactive)
REMARK    1  A    between atoms: N1_2  and  S1_4 
REMARK    2  A    between atoms: S1_4  and  C3_7 
REMARK    3  A    between atoms: C3_7  and  C4_8 
REMARK       I    between atoms: C4_8  and  N2_10 
REMARK    4  A    between atoms: N2_10  and  C5_12 
REMARK    5  A    between atoms: C12_19  and  C13_20 
REMARK       I    between atoms: C13_20  and  N3_22 
ROOT
HETATM    1  C5  UNL     1      -5.192  10.883  20.579  1.00  0.00     0.092 C 
HETATM    2  C6  UNL     1      -4.822   9.501  20.130  1.00  0.00     0.010 C 
HETATM    3  C7  UNL     1      -5.624   8.499  20.898  1.00  0.00     0.011 C 
HETATM    4  C8  UNL     1      -7.090   8.729  20.605  1.00  0.00    -0.013 C 
HETATM    5  C9  UNL     1      -7.557  10.105  20.945  1.00  0.00     0.011 C 
HETATM    6  C10 UNL     1      -6.661  11.104  20.288  1.00  0.00     0.010 C 
HETATM    7  C11 UNL     1      -6.822  10.921  18.772  1.00  0.00     0.026 C 
HETATM    8  C12 UNL     1      -6.554   9.515  18.347  1.00  0.00     0.042 C 
HETATM    9  C18 UNL     1      -7.286   8.464  19.136  1.00  0.00     0.024 C 
HETATM   10  C19 UNL     1      -5.064   9.276  18.663  1.00  0.00     0.026 C 
ENDROOT
BRANCH   1  11
HETATM   11  N2  UNL     1      -4.933  10.989  21.992  1.00  0.00    -0.352 N 
HETATM   12  C4  UNL     1      -4.094  11.985  22.538  1.00  0.00     0.269 C 
HETATM   13  O2  UNL     1      -3.572  12.792  21.709  1.00  0.00    -0.269 OA
ATOM     14  H2  UNL     1      -5.373  10.318  22.622  1.00  0.00     0.163 HD
BRANCH  12  15
HETATM   15  C3  UNL     1      -3.839  12.075  24.012  1.00  0.00     0.249 C 
HETATM   16  C20 UNL     1      -3.362  13.485  24.288  1.00  0.00     0.068 C 
HETATM   17  C21 UNL     1      -4.462  14.167  25.034  1.00  0.00     0.031 C 
HETATM   18  C22 UNL     1      -5.643  13.322  24.536  1.00  0.00     0.170 C 
HETATM   19  O4  UNL     1      -5.125  12.070  24.610  1.00  0.00    -0.356 OA
BRANCH  15  20
HETATM   20  S1  UNL     1      -2.714  10.641  24.496  1.00  0.00     0.206 S 
HETATM   21  O1  UNL     1      -3.187  10.437  25.996  1.00  0.00    -0.219 OA
HETATM   22  F1  UNL     1      -2.065  10.438  22.872  1.00  0.00    -0.127 F 
BRANCH  20  23
HETATM   23  N1  UNL     1      -0.960  10.985  25.011  1.00  0.00    -0.224 NA
HETATM   24  C1  UNL     1      -0.231  11.591  23.957  1.00  0.00     0.128 C 
HETATM   25  C2  UNL     1      -0.381   9.835  25.604  1.00  0.00     0.128 C 
ENDBRANCH  20  23
ENDBRANCH  15  20
ENDBRANCH  12  15
ENDBRANCH   1  11
BRANCH   8  26
HETATM   26  C13 UNL     1      -6.772   9.412  16.889  1.00  0.00     0.228 C 
HETATM   27  O3  UNL     1      -7.868   8.845  16.535  1.00  0.00    -0.273 OA
HETATM   28  N3  UNL     1      -5.892   9.879  15.892  1.00  0.00    -0.351 N 
HETATM   29  C14 UNL     1      -4.615  10.542  15.931  1.00  0.00     0.126 C 
HETATM   30  C17 UNL     1      -6.178   9.739  14.460  1.00  0.00     0.126 C 
HETATM   31  C15 UNL     1      -4.827  11.635  14.871  1.00  0.00     0.021 C 
HETATM   32  C16 UNL     1      -5.452  10.835  13.759  1.00  0.00     0.021 C 
ENDBRANCH   8  26
TORSDOF 5
ENDMDL
MODEL 5
REMARK VINA RESULT: -7.828238096      1.139      1.531
REMARK  5 active torsions:
REMARK  status: ('A' for Active; 'I' for Inactive)
REMARK    1  A    between atoms: N1_2  and  S1_4 
REMARK    2  A    between atoms: S1_4  and  C3_7 
REMARK    3  A    between atoms: C3_7  and  C4_8 
REMARK       I    between atoms: C4_8  and  N2_10 
REMARK    4  A    between atoms: N2_10  and  C5_12 
REMARK    5  A    between atoms: C12_19  and  C13_20 
REMARK       I    between atoms: C13_20  and  N3_22 
ROOT
HETATM    1  C5  UNL     1      -4.975  11.098  20.670  1.00  0.00     0.092 C 
HETATM    2  C6  UNL     1      -4.536   9.728  20.247  1.00  0.00     0.010 C 
HETATM    3  C7  UNL     1      -5.407   8.704  20.901  1.00  0.00     0.011 C 
HETATM    4  C8  UNL     1      -6.832   8.920  20.441  1.00  0.00    -0.013 C 
HETATM    5  C9  UNL     1      -7.355  10.284  20.745  1.00  0.00     0.011 C 
HETATM    6  C10 UNL     1      -6.403  11.305  20.212  1.00  0.00     0.010 C 
HETATM    7  C11 UNL     1      -6.382  11.145  18.685  1.00  0.00     0.026 C 
HETATM    8  C12 UNL     1      -6.047   9.750  18.274  1.00  0.00     0.042 C 
HETATM    9  C18 UNL     1      -6.851   8.677  18.956  1.00  0.00     0.024 C 
HETATM   10  C19 UNL     1      -4.600   9.524  18.759  1.00  0.00     0.026 C 
ENDROOT
BRANCH   1  11
HETATM   11  N2  UNL     1      -4.885  11.183  22.105  1.00  0.00    -0.352 N 
HETATM   12  C4  UNL     1      -4.029  12.096  22.759  1.00  0.00     0.269 C 
HETATM   13  O2  UNL     1      -3.333  12.847  22.008  1.00  0.00    -0.269 OA
ATOM     14  H2  UNL     1      -5.462  10.561  22.670  1.00  0.00     0.163 HD
BRANCH  12  15
HETATM   15  C3  UNL     1      -3.952  12.167  24.254  1.00  0.00     0.249 C 
HETATM   16  C20 UNL     1      -3.592  13.595  24.606  1.00  0.00     0.068 C 
HETATM   17  C21 UNL     1      -4.809  14.197  25.229  1.00  0.00     0.031 C 
HETATM   18  C22 UNL     1      -5.873  13.300  24.584  1.00  0.00     0.170 C 
HETATM   19  O4  UNL     1      -5.296  12.077  24.697  1.00  0.00    -0.356 OA
BRANCH  15  20
HETATM   20  S1  UNL     1      -2.809  10.787  24.843  1.00  0.00     0.206 S 
HETATM   21  O1  UNL     1      -2.999  10.947  26.410  1.00  0.00    -0.219 OA
HETATM   22  F1  UNL     1      -2.485  10.192  23.218  1.00  0.00    -0.127 F 
BRANCH  20  23
HETATM   23  N1  UNL     1      -0.979  11.097  24.953  1.00  0.00    -0.224 NA
HETATM   24  C1  UNL     1      -0.478  11.617  23.732  1.00  0.00     0.128 C 
HETATM   25  C2  UNL     1      -0.312   9.962  25.479  1.00  0.00     0.128 C 
ENDBRANCH  20  23
ENDBRANCH  15  20
ENDBRANCH  12  15
ENDBRANCH   1  11
BRANCH   8  26
HETATM   26  C13 UNL     1      -6.091   9.668  16.799  1.00  0.00     0.228 C 
HETATM   27  O3  UNL     1      -4.951   9.553  16.220  1.00  0.00    -0.273 OA
HETATM   28  N3  UNL     1      -7.257   9.704  16.009  1.00  0.00    -0.351 N 
HETATM   29  C14 UNL     1      -8.658   9.821  16.317  1.00  0.00     0.126 C 
HETATM   30  C17 UNL     1      -7.221   9.617  14.545  1.00  0.00     0.126 C 
HETATM   31  C15 UNL     1      -9.247   8.744  15.392  1.00  0.00     0.021 C 
HETATM   32  C16 UNL     1      -8.526   9.049  14.106  1.00  0.00     0.021 C 
ENDBRANCH   8  26
TORSDOF 5
ENDMDL
