MODEL 1
REMARK VINA RESULT: -7.746868902      0.000      0.000
REMARK  6 active torsions:
REMARK  status: ('A' for Active; 'I' for Inactive)
REMARK    1  A    between atoms: N2_5  and  C4_6 
REMARK    2  A    between atoms: C4_6  and  C5_7 
REMARK       I    between atoms: C5_7  and  N3_9 
REMARK    3  A    between atoms: N3_9  and  C6_11 
REMARK    4  A    between atoms: C11_16  and  C12_17 
REMARK    5  A    between atoms: C12_17  and  S1_18 
REMARK    6  A    between atoms: S1_18  and  N4_21 
ROOT
HETATM    1  C6  UNL     1      -3.850  13.339  20.716  1.00  0.00     0.095 C 
HETATM    2  C7  UNL     1      -3.630  14.825  20.384  1.00  0.00     0.031 C 
HETATM    3  C8  UNL     1      -2.950  14.741  19.054  1.00  0.00    -0.004 C 
HETATM    4  C9  UNL     1      -1.632  14.068  19.286  1.00  0.00     0.006 C 
HETATM    5  C10 UNL     1      -1.929  12.596  19.431  1.00  0.00     0.014 C 
HETATM    6  C11 UNL     1      -3.482  12.580  19.508  1.00  0.00     0.002 C 
HETATM    7  C19 UNL     1      -3.735  13.568  18.409  1.00  0.00    -0.034 C 
HETATM    8  C20 UNL     1      -5.171  13.977  18.225  1.00  0.00     0.016 C 
HETATM    9  C21 UNL     1      -3.131  13.211  17.096  1.00  0.00     0.016 C 
ENDROOT
BRANCH   1  10
HETATM   10  N3  UNL     1      -3.109  13.065  21.906  1.00  0.00    -0.354 N 
HETATM   11  C5  UNL     1      -3.741  12.841  23.148  1.00  0.00     0.246 C 
HETATM   12  O1  UNL     1      -4.991  12.889  23.200  1.00  0.00    -0.272 OA
ATOM     13  H3  UNL     1      -2.091  13.030  21.857  1.00  0.00     0.162 HD
BRANCH  11  14
HETATM   14  C4  UNL     1      -2.997  12.554  24.391  1.00  0.00     0.374 C 
BRANCH  14  15
HETATM   15  N2  UNL     1      -3.027  11.136  24.717  1.00  0.00     0.100 N 
HETATM   16  C3  UNL     1      -2.823  10.951  26.122  1.00  0.00     0.303 C 
HETATM   17  C2  UNL     1      -1.877   9.819  26.446  1.00  0.00     0.302 C 
HETATM   18  N1  UNL     1      -0.607   9.934  25.792  1.00  0.00     0.087 N 
HETATM   19  C1  UNL     1      -0.020   8.620  25.709  1.00  0.00     0.310 C 
HETATM   20  C23 UNL     1      -0.659  10.611  24.533  1.00  0.00     0.302 C 
HETATM   21  C22 UNL     1      -2.016  10.488  23.899  1.00  0.00     0.303 C 
ENDBRANCH  14  15
ENDBRANCH  11  14
ENDBRANCH   1  10
BRANCH   6  22
HETATM   22  C12 UNL     1      -3.903  11.208  19.358  1.00  0.00     0.170 C 
BRANCH  22  23
HETATM   23  S1  UNL     1      -5.127  10.464  20.303  1.00  0.00     0.212 S 
HETATM   24  O2  UNL     1      -6.348  11.323  20.589  1.00  0.00    -0.211 OA
HETATM   25  O3  UNL     1      -4.602   9.837  21.545  1.00  0.00    -0.211 OA
BRANCH  23  26
HETATM   26  N4  UNL     1      -5.845   9.149  19.373  1.00  0.00    -0.207 NA
HETATM   27  C13 UNL     1      -6.800   8.403  20.119  1.00  0.00     0.107 C 
HETATM   28  C14 UNL     1      -6.940   7.049  19.404  1.00  0.00     0.019 C 
HETATM   29  C15 UNL     1      -6.875   7.286  17.909  1.00  0.00     0.045 C 
HETATM   30  C16 UNL     1      -5.478   7.687  17.537  1.00  0.00     0.112 C 
HETATM   31  C17 UNL     1      -5.465   8.735  16.434  1.00  0.00     0.053 C 
HETATM   32  F1  UNL     1      -4.679   6.628  17.177  1.00  0.00    -0.242 F 
HETATM   33  C18 UNL     1      -4.835   8.351  18.751  1.00  0.00     0.150 C 
ENDBRANCH  23  26
ENDBRANCH  22  23
ENDBRANCH   6  22
TORSDOF 6
ENDMDL
MODEL 2
REMARK VINA RESULT: -7.641514930      3.265      5.112
REMARK  6 active torsions:
REMARK  status: ('A' for Active; 'I' for Inactive)
REMARK    1  A    between atoms: N2_5  and  C4_6 
REMARK    2  A    between atoms: C4_6  and  C5_7 
REMARK       I    between atoms: C5_7  and  N3_9 
REMARK    3  A    between atoms: N3_9  and  C6_11 
REMARK    4  A    between atoms: C11_16  and  C12_17 
REMARK    5  A    between atoms: C12_17  and  S1_18 
REMARK    6  A    between atoms: S1_18  and  N4_21 
ROOT
HETATM    1  C6  UNL     1      -5.134  10.287  18.757  1.00  0.00     0.095 C 
HETATM    2  C7  UNL     1      -4.540   9.685  17.472  1.00  0.00     0.031 C 
HETATM    3  C8  UNL     1      -5.238   8.364  17.406  1.00  0.00    -0.004 C 
HETATM    4  C9  UNL     1      -4.784   7.577  18.598  1.00  0.00     0.006 C 
HETATM    5  C10 UNL     1      -5.544   8.125  19.780  1.00  0.00     0.014 C 
HETATM    6  C11 UNL     1      -6.222   9.388  19.179  1.00  0.00     0.002 C 
HETATM    7  C19 UNL     1      -6.658   8.770  17.884  1.00  0.00    -0.034 C 
HETATM    8  C20 UNL     1      -7.262   9.718  16.885  1.00  0.00     0.016 C 
HETATM    9  C21 UNL     1      -7.513   7.560  18.025  1.00  0.00     0.016 C 
ENDROOT
BRANCH   1  10
HETATM   10  N3  UNL     1      -4.051  10.469  19.671  1.00  0.00    -0.354 N 
HETATM   11  C5  UNL     1      -3.420  11.719  19.846  1.00  0.00     0.246 C 
HETATM   12  O1  UNL     1      -3.826  12.694  19.174  1.00  0.00    -0.272 OA
ATOM     13  H3  UNL     1      -3.724   9.670  20.213  1.00  0.00     0.162 HD
BRANCH  11  14
HETATM   14  C4  UNL     1      -2.300  11.932  20.786  1.00  0.00     0.374 C 
BRANCH  14  15
HETATM   15  N2  UNL     1      -2.104  10.782  21.655  1.00  0.00     0.100 N 
HETATM   16  C3  UNL     1      -2.907  10.914  22.833  1.00  0.00     0.303 C 
HETATM   17  C2  UNL     1      -2.177  10.532  24.100  1.00  0.00     0.302 C 
HETATM   18  N1  UNL     1      -0.944  11.240  24.282  1.00  0.00     0.087 N 
HETATM   19  C1  UNL     1      -0.100  10.461  25.153  1.00  0.00     0.310 C 
HETATM   20  C23 UNL     1      -0.303  11.617  23.060  1.00  0.00     0.302 C 
HETATM   21  C22 UNL     1      -0.681  10.695  21.935  1.00  0.00     0.303 C 
ENDBRANCH  14  15
ENDBRANCH  11  14
ENDBRANCH   1  10
BRANCH   6  22
HETATM   22  C12 UNL     1      -7.207   9.839  20.132  1.00  0.00     0.170 C 
BRANCH  22  23
HETATM   23  S1  UNL     1      -7.217  11.399  20.846  1.00  0.00     0.212 S 
HETATM   24  O2  UNL     1      -7.239  12.566  19.873  1.00  0.00    -0.211 OA
HETATM   25  O3  UNL     1      -6.161  11.573  21.878  1.00  0.00    -0.211 OA
BRANCH  23  26
HETATM   26  N4  UNL     1      -8.748  11.630  21.690  1.00  0.00    -0.207 NA
HETATM   27  C13 UNL     1      -8.603  12.339  22.915  1.00  0.00     0.107 C 
HETATM   28  C14 UNL     1      -9.853  12.019  23.748  1.00  0.00     0.019 C 
HETATM   29  C15 UNL     1     -11.049  11.962  22.818  1.00  0.00     0.045 C 
HETATM   30  C16 UNL     1     -10.937  10.743  21.951  1.00  0.00     0.112 C 
HETATM   31  C17 UNL     1     -11.438  11.004  20.539  1.00  0.00     0.053 C 
HETATM   32  F1  UNL     1     -11.570   9.639  22.469  1.00  0.00    -0.242 F 
HETATM   33  C18 UNL     1      -9.458  10.394  21.810  1.00  0.00     0.150 C 
ENDBRANCH  23  26
ENDBRANCH  22  23
ENDBRANCH   6  22
TORSDOF 6
ENDMDL
MODEL 3
REMARK VINA RESULT: -7.554231171      3.002      5.129
REMARK  6 active torsions:
REMARK  status: ('A' for Active; 'I' for Inactive)
REMARK    1  A    between atoms: N2_5  and  C4_6 
REMARK    2  A    between atoms: C4_6  and  C5_7 
REMARK       I    between atoms: C5_7  and  N3_9 
REMARK    3  A    between atoms: N3_9  and  C6_11 
REMARK    4  A    between atoms: C11_16  and  C12_17 
REMARK    5  A    between atoms: C12_17  and  S1_18 
REMARK    6  A    between atoms: S1_18  and  N4_21 
ROOT
HETATM    1  C6  UNL     1      -4.841   9.545  18.853  1.00  0.00     0.095 C 
HETATM    2  C7  UNL     1      -4.527   8.091  19.247  1.00  0.00     0.031 C 
HETATM    3  C8  UNL     1      -5.833   7.414  18.975  1.00  0.00    -0.004 C 
HETATM    4  C9  UNL     1      -6.828   7.999  19.931  1.00  0.00     0.006 C 
HETATM    5  C10 UNL     1      -7.204   9.350  19.374  1.00  0.00     0.014 C 
HETATM    6  C11 UNL     1      -6.173   9.530  18.224  1.00  0.00     0.002 C 
HETATM    7  C19 UNL     1      -6.261   8.139  17.672  1.00  0.00    -0.034 C 
HETATM    8  C20 UNL     1      -5.279   7.812  16.580  1.00  0.00     0.016 C 
HETATM    9  C21 UNL     1      -7.630   7.709  17.275  1.00  0.00     0.016 C 
ENDROOT
BRANCH   1  10
HETATM   10  N3  UNL     1      -4.688  10.337  20.031  1.00  0.00    -0.354 N 
HETATM   11  C5  UNL     1      -3.735  11.374  20.119  1.00  0.00     0.246 C 
HETATM   12  O1  UNL     1      -3.002  11.599  19.129  1.00  0.00    -0.272 OA
ATOM     13  H3  UNL     1      -5.287  10.148  20.835  1.00  0.00     0.162 HD
BRANCH  11  14
HETATM   14  C4  UNL     1      -3.560  12.209  21.325  1.00  0.00     0.374 C 
BRANCH  14  15
HETATM   15  N2  UNL     1      -3.477  11.398  22.530  1.00  0.00     0.100 N 
HETATM   16  C3  UNL     1      -3.381  12.241  23.683  1.00  0.00     0.303 C 
HETATM   17  C2  UNL     1      -2.358  11.765  24.689  1.00  0.00     0.302 C 
HETATM   18  N1  UNL     1      -1.053  11.576  24.127  1.00  0.00     0.087 N 
HETATM   19  C1  UNL     1      -0.333  10.645  24.960  1.00  0.00     0.310 C 
HETATM   20  C23 UNL     1      -1.062  11.209  22.745  1.00  0.00     0.302 C 
HETATM   21  C22 UNL     1      -2.338  10.510  22.370  1.00  0.00     0.303 C 
ENDBRANCH  14  15
ENDBRANCH  11  14
ENDBRANCH   1  10
BRANCH   6  22
HETATM   22  C12 UNL     1      -6.611  10.652  17.429  1.00  0.00     0.170 C 
BRANCH  22  23
HETATM   23  S1  UNL     1      -5.663  11.404  16.214  1.00  0.00     0.212 S 
HETATM   24  O2  UNL     1      -4.233  10.904  16.093  1.00  0.00    -0.211 OA
HETATM   25  O3  UNL     1      -5.715  12.889  16.272  1.00  0.00    -0.211 OA
BRANCH  23  26
HETATM   26  N4  UNL     1      -6.311  10.968  14.633  1.00  0.00    -0.207 NA
HETATM   27  C13 UNL     1      -7.508  10.203  14.717  1.00  0.00     0.107 C 
HETATM   28  C14 UNL     1      -7.656   9.485  13.367  1.00  0.00     0.019 C 
HETATM   29  C15 UNL     1      -7.205  10.427  12.269  1.00  0.00     0.045 C 
HETATM   30  C16 UNL     1      -5.719  10.609  12.360  1.00  0.00     0.112 C 
HETATM   31  C17 UNL     1      -5.301  12.033  12.025  1.00  0.00     0.053 C 
HETATM   32  F1  UNL     1      -5.008   9.725  11.584  1.00  0.00    -0.242 F 
HETATM   33  C18 UNL     1      -5.299  10.381  13.809  1.00  0.00     0.150 C 
ENDBRANCH  23  26
ENDBRANCH  22  23
ENDBRANCH   6  22
TORSDOF 6
ENDMDL
MODEL 4
REMARK VINA RESULT: -7.552145649      3.426      5.342
REMARK  6 active torsions:
REMARK  status: ('A' for Active; 'I' for Inactive)
REMARK    1  A    between atoms: N2_5  and  C4_6 
REMARK    2  A    between atoms: C4_6  and  C5_7 
REMARK       I    between atoms: C5_7  and  N3_9 
REMARK    3  A    between atoms: N3_9  and  C6_11 
REMARK    4  A    between atoms: C11_16  and  C12_17 
REMARK    5  A    between atoms: C12_17  and  S1_18 
REMARK    6  A    between atoms: S1_18  and  N4_21 
ROOT
HETATM    1  C6  UNL     1      -5.117  10.201  18.692  1.00  0.00     0.095 C 
HETATM    2  C7  UNL     1      -4.647   9.684  17.322  1.00  0.00     0.031 C 
HETATM    3  C8  UNL     1      -5.325   8.352  17.251  1.00  0.00    -0.004 C 
HETATM    4  C9  UNL     1      -4.739   7.511  18.344  1.00  0.00     0.006 C 
HETATM    5  C10 UNL     1      -5.384   7.976  19.625  1.00  0.00     0.014 C 
HETATM    6  C11 UNL     1      -6.141   9.255  19.169  1.00  0.00     0.002 C 
HETATM    7  C19 UNL     1      -6.696   8.699  17.891  1.00  0.00    -0.034 C 
HETATM    8  C20 UNL     1      -7.414   9.687  17.014  1.00  0.00     0.016 C 
HETATM    9  C21 UNL     1      -7.512   7.464  18.049  1.00  0.00     0.016 C 
ENDROOT
BRANCH   1  10
HETATM   10  N3  UNL     1      -3.950  10.356  19.501  1.00  0.00    -0.354 N 
HETATM   11  C5  UNL     1      -3.385  11.622  19.766  1.00  0.00     0.246 C 
HETATM   12  O1  UNL     1      -3.928  12.636  19.271  1.00  0.00    -0.272 OA
ATOM     13  H3  UNL     1      -3.512   9.526  19.900  1.00  0.00     0.162 HD
BRANCH  11  14
HETATM   14  C4  UNL     1      -2.181  11.808  20.601  1.00  0.00     0.374 C 
BRANCH  14  15
HETATM   15  N2  UNL     1      -1.986  10.694  21.517  1.00  0.00     0.100 N 
HETATM   16  C3  UNL     1      -2.842  10.838  22.655  1.00  0.00     0.303 C 
HETATM   17  C2  UNL     1      -2.156  10.523  23.964  1.00  0.00     0.302 C 
HETATM   18  N1  UNL     1      -0.955  11.277  24.172  1.00  0.00     0.087 N 
HETATM   19  C1  UNL     1      -0.124  10.555  25.104  1.00  0.00     0.310 C 
HETATM   20  C23 UNL     1      -0.274  11.634  22.966  1.00  0.00     0.302 C 
HETATM   21  C22 UNL     1      -0.574  10.664  21.858  1.00  0.00     0.303 C 
ENDBRANCH  14  15
ENDBRANCH  11  14
ENDBRANCH   1  10
BRANCH   6  22
HETATM   22  C12 UNL     1      -7.032   9.630  20.240  1.00  0.00     0.170 C 
BRANCH  22  23
HETATM   23  S1  UNL     1      -7.185  11.224  20.856  1.00  0.00     0.212 S 
HETATM   24  O2  UNL     1      -7.523  12.294  19.830  1.00  0.00    -0.211 OA
HETATM   25  O3  UNL     1      -6.036  11.632  21.707  1.00  0.00    -0.211 OA
BRANCH  23  26
HETATM   26  N4  UNL     1      -8.602  11.297  21.903  1.00  0.00    -0.207 NA
HETATM   27  C13 UNL     1      -9.304  10.062  21.971  1.00  0.00     0.107 C 
HETATM   28  C14 UNL     1     -10.722  10.399  22.459  1.00  0.00     0.019 C 
HETATM   29  C15 UNL     1     -10.624  11.495  23.500  1.00  0.00     0.045 C 
HETATM   30  C16 UNL     1     -10.218  12.774  22.828  1.00  0.00     0.112 C 
HETATM   31  C17 UNL     1      -9.277  13.596  23.696  1.00  0.00     0.053 C 
HETATM   32  F1  UNL     1     -11.281  13.551  22.435  1.00  0.00    -0.242 F 
HETATM   33  C18 UNL     1      -9.424  12.420  21.573  1.00  0.00     0.150 C 
ENDBRANCH  23  26
ENDBRANCH  22  23
ENDBRANCH   6  22
TORSDOF 6
ENDMDL
MODEL 5
REMARK VINA RESULT: -7.477866498      2.461      3.896
REMARK  6 active torsions:
REMARK  status: ('A' for Active; 'I' for Inactive)
REMARK    1  A    between atoms: N2_5  and  C4_6 
REMARK    2  A    between atoms: C4_6  and  C5_7 
REMARK       I    between atoms: C5_7  and  N3_9 
REMARK    3  A    between atoms: N3_9  and  C6_11 
REMARK    4  A    between atoms: C11_16  and  C12_17 
REMARK    5  A    between atoms: C12_17  and  S1_18 
REMARK    6  A    between atoms: S1_18  and  N4_21 
ROOT
HETATM    1  C6  UNL     1      -4.757  12.311  16.934  1.00  0.00     0.095 C 
HETATM    2  C7  UNL     1      -4.065  13.681  16.835  1.00  0.00     0.031 C 
HETATM    3  C8  UNL     1      -3.724  13.744  15.380  1.00  0.00    -0.004 C 
HETATM    4  C9  UNL     1      -2.733  12.651  15.122  1.00  0.00     0.006 C 
HETATM    5  C10 UNL     1      -3.525  11.368  15.068  1.00  0.00     0.014 C 
HETATM    6  C11 UNL     1      -4.929  11.827  15.553  1.00  0.00     0.002 C 
HETATM    7  C19 UNL     1      -4.994  13.100  14.763  1.00  0.00    -0.034 C 
HETATM    8  C20 UNL     1      -6.181  13.978  15.049  1.00  0.00     0.016 C 
HETATM    9  C21 UNL     1      -4.820  12.934  13.294  1.00  0.00     0.016 C 
ENDROOT
BRANCH   1  10
HETATM   10  N3  UNL     1      -3.966  11.507  17.810  1.00  0.00    -0.354 N 
HETATM   11  C5  UNL     1      -4.262  11.382  19.185  1.00  0.00     0.246 C 
HETATM   12  O1  UNL     1      -5.250  12.001  19.643  1.00  0.00    -0.272 OA
ATOM     13  H3  UNL     1      -3.162  11.008  17.431  1.00  0.00     0.162 HD
BRANCH  11  14
HETATM   14  C4  UNL     1      -3.460  10.556  20.110  1.00  0.00     0.374 C 
BRANCH  14  15
HETATM   15  N2  UNL     1      -2.469  11.351  20.818  1.00  0.00     0.100 N 
HETATM   16  C3  UNL     1      -1.242  10.623  20.927  1.00  0.00     0.303 C 
HETATM   17  C2  UNL     1      -0.604  10.728  22.293  1.00  0.00     0.302 C 
HETATM   18  N1  UNL     1      -1.480  10.348  23.361  1.00  0.00     0.087 N 
HETATM   19  C1  UNL     1      -1.016  10.977  24.573  1.00  0.00     0.310 C 
HETATM   20  C23 UNL     1      -2.865  10.590  23.093  1.00  0.00     0.302 C 
HETATM   21  C22 UNL     1      -3.045  11.706  22.103  1.00  0.00     0.303 C 
ENDBRANCH  14  15
ENDBRANCH  11  14
ENDBRANCH   1  10
BRANCH   6  22
HETATM   22  C12 UNL     1      -5.850  10.753  15.271  1.00  0.00     0.170 C 
BRANCH  22  23
HETATM   23  S1  UNL     1      -7.011  10.158  16.385  1.00  0.00     0.212 S 
HETATM   24  O2  UNL     1      -8.153   9.358  15.780  1.00  0.00    -0.211 OA
HETATM   25  O3  UNL     1      -7.516  11.205  17.313  1.00  0.00    -0.211 OA
BRANCH  23  26
HETATM   26  N4  UNL     1      -6.249   8.942  17.409  1.00  0.00    -0.207 NA
HETATM   27  C13 UNL     1      -5.194   8.249  16.752  1.00  0.00     0.107 C 
HETATM   28  C14 UNL     1      -4.991   6.939  17.530  1.00  0.00     0.019 C 
HETATM   29  C15 UNL     1      -5.166   7.225  19.007  1.00  0.00     0.045 C 
HETATM   30  C16 UNL     1      -6.610   7.523  19.281  1.00  0.00     0.112 C 
HETATM   31  C17 UNL     1      -6.775   8.607  20.335  1.00  0.00     0.053 C 
HETATM   32  F1  UNL     1      -7.344   6.417  19.637  1.00  0.00    -0.242 F 
HETATM   33  C18 UNL     1      -7.229   8.087  18.004  1.00  0.00     0.150 C 
ENDBRANCH  23  26
ENDBRANCH  22  23
ENDBRANCH   6  22
TORSDOF 6
ENDMDL
