MODEL 1
REMARK VINA RESULT: -6.176996945      0.000      0.000
REMARK  2 active torsions:
REMARK  status: ('A' for Active; 'I' for Inactive)
REMARK    1  A    between atoms: C1_2  and  N2_4 
REMARK    2  A    between atoms: N2_4  and  C2_6 
ROOT
HETATM    1  C2  UNL     1      22.926  44.476  69.773  1.00  0.00     0.191 A 
HETATM    2  N3  UNL     1      21.878  44.270  70.599  1.00  0.00    -0.277 N 
ATOM      3  H3  UNL     1      21.660  44.964  71.315  1.00  0.00     0.189 HD
HETATM    4  N4  UNL     1      21.128  43.180  70.496  1.00  0.00    -0.250 N 
ATOM      5  H4  UNL     1      20.343  43.056  71.136  1.00  0.00     0.192 HD
HETATM    6  C3  UNL     1      21.373  42.238  69.574  1.00  0.00     0.341 A 
HETATM    7  O1  UNL     1      20.677  41.206  69.463  1.00  0.00    -0.245 OA
HETATM    8  N5  UNL     1      22.416  42.396  68.716  1.00  0.00    -0.271 N 
ATOM      9  H5  UNL     1      22.621  41.692  68.007  1.00  0.00     0.174 HD
HETATM   10  C4  UNL     1      23.172  43.503  68.827  1.00  0.00     0.295 A 
HETATM   11  O2  UNL     1      24.138  43.661  68.041  1.00  0.00    -0.264 OA
ENDROOT
BRANCH   1  12
HETATM   12  N2  UNL     1      23.674  45.543  69.860  1.00  0.00    -0.316 N 
ATOM     13  H2  UNL     1      24.648  45.461  70.150  1.00  0.00     0.169 HD
BRANCH  12  14
HETATM   14  C1  UNL     1      23.135  46.800  69.554  1.00  0.00     0.186 C 
HETATM   15  N1  UNL     1      21.971  47.246  70.220  1.00  0.00    -0.070 NA
HETATM   16  S1  UNL     1      23.894  47.711  68.417  1.00  0.00    -0.044 SA
ENDBRANCH  12  14
ENDBRANCH   1  12
TORSDOF 2
ENDMDL
MODEL 2
REMARK VINA RESULT: -5.809235323      5.713      6.871
REMARK  2 active torsions:
REMARK  status: ('A' for Active; 'I' for Inactive)
REMARK    1  A    between atoms: C1_2  and  N2_4 
REMARK    2  A    between atoms: N2_4  and  C2_6 
ROOT
HETATM    1  C2  UNL     1      19.443  49.910  67.913  1.00  0.00     0.191 A 
HETATM    2  N3  UNL     1      18.761  49.772  69.069  1.00  0.00    -0.277 N 
ATOM      3  H3  UNL     1      19.247  49.905  69.957  1.00  0.00     0.189 HD
HETATM    4  N4  UNL     1      17.470  49.466  69.072  1.00  0.00    -0.250 N 
ATOM      5  H4  UNL     1      16.985  49.369  69.964  1.00  0.00     0.192 HD
HETATM    6  C3  UNL     1      16.786  49.279  67.934  1.00  0.00     0.341 A 
HETATM    7  O1  UNL     1      15.569  48.990  67.918  1.00  0.00    -0.245 OA
HETATM    8  N5  UNL     1      17.424  49.405  66.740  1.00  0.00    -0.271 N 
ATOM      9  H5  UNL     1      16.924  49.268  65.862  1.00  0.00     0.174 HD
HETATM   10  C4  UNL     1      18.733  49.716  66.746  1.00  0.00     0.295 A 
HETATM   11  O2  UNL     1      19.335  49.836  65.650  1.00  0.00    -0.264 OA
ENDROOT
BRANCH   1  12
HETATM   12  N2  UNL     1      20.713  50.211  67.892  1.00  0.00    -0.316 N 
ATOM     13  H2  UNL     1      21.051  50.956  67.283  1.00  0.00     0.169 HD
BRANCH  12  14
HETATM   14  C1  UNL     1      21.611  49.509  68.707  1.00  0.00     0.186 C 
HETATM   15  N1  UNL     1      21.232  48.263  69.258  1.00  0.00    -0.070 NA
HETATM   16  S1  UNL     1      23.085  50.175  68.989  1.00  0.00    -0.044 SA
ENDBRANCH  12  14
ENDBRANCH   1  12
TORSDOF 2
ENDMDL
MODEL 3
REMARK VINA RESULT: -5.705832829      1.426      1.442
REMARK  2 active torsions:
REMARK  status: ('A' for Active; 'I' for Inactive)
REMARK    1  A    between atoms: C1_2  and  N2_4 
REMARK    2  A    between atoms: N2_4  and  C2_6 
ROOT
HETATM    1  C2  UNL     1      23.664  43.795  69.940  1.00  0.00     0.191 A 
HETATM    2  N3  UNL     1      22.515  44.053  70.599  1.00  0.00    -0.277 N 
ATOM      3  H3  UNL     1      22.471  44.846  71.240  1.00  0.00     0.189 HD
HETATM    4  N4  UNL     1      21.440  43.294  70.427  1.00  0.00    -0.250 N 
ATOM      5  H4  UNL     1      20.587  43.517  70.940  1.00  0.00     0.192 HD
HETATM    6  C3  UNL     1      21.445  42.240  69.598  1.00  0.00     0.341 A 
HETATM    7  O1  UNL     1      20.442  41.513  69.424  1.00  0.00    -0.245 OA
HETATM    8  N5  UNL     1      22.577  41.935  68.909  1.00  0.00    -0.271 N 
ATOM      9  H5  UNL     1      22.604  41.138  68.273  1.00  0.00     0.174 HD
HETATM   10  C4  UNL     1      23.662  42.710  69.089  1.00  0.00     0.295 A 
HETATM   11  O2  UNL     1      24.714  42.439  68.459  1.00  0.00    -0.264 OA
ENDROOT
BRANCH   1  12
HETATM   12  N2  UNL     1      24.730  44.533  70.097  1.00  0.00    -0.316 N 
ATOM     13  H2  UNL     1      25.483  44.218  70.708  1.00  0.00     0.169 HD
BRANCH  12  14
HETATM   14  C1  UNL     1      24.836  45.757  69.423  1.00  0.00     0.186 C 
HETATM   15  N1  UNL     1      23.681  46.359  68.874  1.00  0.00    -0.070 NA
HETATM   16  S1  UNL     1      26.322  46.448  69.303  1.00  0.00    -0.044 SA
ENDBRANCH  12  14
ENDBRANCH   1  12
TORSDOF 2
ENDMDL
MODEL 4
REMARK VINA RESULT: -5.675412111      1.651      2.283
REMARK  2 active torsions:
REMARK  status: ('A' for Active; 'I' for Inactive)
REMARK    1  A    between atoms: C1_2  and  N2_4 
REMARK    2  A    between atoms: N2_4  and  C2_6 
ROOT
HETATM    1  C2  UNL     1      22.727  44.371  69.707  1.00  0.00     0.191 A 
HETATM    2  N3  UNL     1      23.324  43.832  68.623  1.00  0.00    -0.277 N 
ATOM      3  H3  UNL     1      23.820  44.439  67.970  1.00  0.00     0.189 HD
HETATM    4  N4  UNL     1      23.276  42.526  68.391  1.00  0.00    -0.250 N 
ATOM      5  H4  UNL     1      23.738  42.152  67.562  1.00  0.00     0.192 HD
HETATM    6  C3  UNL     1      22.636  41.685  69.217  1.00  0.00     0.341 A 
HETATM    7  O1  UNL     1      22.581  40.452  69.014  1.00  0.00    -0.245 OA
HETATM    8  N5  UNL     1      22.018  42.174  70.324  1.00  0.00    -0.271 N 
ATOM      9  H5  UNL     1      21.526  41.553  70.966  1.00  0.00     0.174 HD
HETATM   10  C4  UNL     1      22.070  43.500  70.552  1.00  0.00     0.295 A 
HETATM   11  O2  UNL     1      21.503  43.965  71.571  1.00  0.00    -0.264 OA
ENDROOT
BRANCH   1  12
HETATM   12  N2  UNL     1      22.764  45.653  69.951  1.00  0.00    -0.316 N 
ATOM     13  H2  UNL     1      22.034  46.087  70.514  1.00  0.00     0.169 HD
BRANCH  12  14
HETATM   14  C1  UNL     1      23.810  46.430  69.436  1.00  0.00     0.186 C 
HETATM   15  N1  UNL     1      25.144  45.971  69.539  1.00  0.00    -0.070 NA
HETATM   16  S1  UNL     1      23.433  47.861  68.723  1.00  0.00    -0.044 SA
ENDBRANCH  12  14
ENDBRANCH   1  12
TORSDOF 2
ENDMDL
MODEL 5
REMARK VINA RESULT: -5.609063583      1.741      1.741
REMARK  2 active torsions:
REMARK  status: ('A' for Active; 'I' for Inactive)
REMARK    1  A    between atoms: C1_2  and  N2_4 
REMARK    2  A    between atoms: N2_4  and  C2_6 
ROOT
HETATM    1  C2  UNL     1      23.396  44.640  69.723  1.00  0.00     0.191 A 
HETATM    2  N3  UNL     1      22.480  44.353  70.671  1.00  0.00    -0.277 N 
ATOM      3  H3  UNL     1      21.743  45.028  70.877  1.00  0.00     0.189 HD
HETATM    4  N4  UNL     1      22.521  43.207  71.340  1.00  0.00    -0.250 N 
ATOM      5  H4  UNL     1      21.812  43.022  72.050  1.00  0.00     0.192 HD
HETATM    6  C3  UNL     1      23.468  42.287  71.108  1.00  0.00     0.341 A 
HETATM    7  O1  UNL     1      23.521  41.203  71.729  1.00  0.00    -0.245 OA
HETATM    8  N5  UNL     1      24.416  42.525  70.164  1.00  0.00    -0.271 N 
ATOM      9  H5  UNL     1      25.146  41.839  69.970  1.00  0.00     0.174 HD
HETATM   10  C4  UNL     1      24.368  43.689  69.490  1.00  0.00     0.295 A 
HETATM   11  O2  UNL     1      25.237  43.921  68.614  1.00  0.00    -0.264 OA
ENDROOT
BRANCH   1  12
HETATM   12  N2  UNL     1      23.371  45.761  69.055  1.00  0.00    -0.316 N 
ATOM     13  H2  UNL     1      23.537  45.760  68.049  1.00  0.00     0.169 HD
BRANCH  12  14
HETATM   14  C1  UNL     1      23.115  46.966  69.723  1.00  0.00     0.186 C 
HETATM   15  N1  UNL     1      21.809  47.248  70.186  1.00  0.00    -0.070 NA
HETATM   16  S1  UNL     1      24.363  48.010  69.943  1.00  0.00    -0.044 SA
ENDBRANCH  12  14
ENDBRANCH   1  12
TORSDOF 2
ENDMDL
