MODEL 1
REMARK VINA RESULT: -7.111246938      0.000      0.000
REMARK  3 active torsions:
REMARK  status: ('A' for Active; 'I' for Inactive)
REMARK       I    between atoms: N1_2  and  C2_4 
REMARK       I    between atoms: C2_4  and  N4_9 
REMARK    1  A    between atoms: N4_9  and  N5_11 
REMARK    2  A    between atoms: N5_11  and  C4_13 
REMARK    3  A    between atoms: N9_20  and  O1_21 
ROOT
HETATM    1  C1  UNL     1      17.649  49.664  66.014  1.00  0.00     0.165 C 
HETATM    2  N1  UNL     1      16.905  50.211  67.109  1.00  0.00    -0.229 N 
ATOM      3  H1  UNL     1      16.303  51.013  66.920  1.00  0.00     0.177 HD
HETATM    4  C2  UNL     1      16.946  49.719  68.434  1.00  0.00     0.701 C 
HETATM    5  N2  UNL     1      15.899  49.236  68.979  1.00  0.00    -0.125 N 
ATOM      6  H2  UNL     1      15.037  49.214  68.433  1.00  0.00     0.197 HD
HETATM    7  C3  UNL     1      15.868  48.732  70.282  1.00  0.00     0.196 C 
HETATM    8  N3  UNL     1      15.825  48.302  71.374  1.00  0.00    -0.171 NA
HETATM    9  N4  UNL     1      18.149  49.758  69.172  1.00  0.00    -0.117 N 
ATOM     10  H4  UNL     1      18.335  50.564  69.769  1.00  0.00     0.206 HD
ENDROOT
BRANCH   9  11
HETATM   11  N5  UNL     1      19.094  48.732  69.113  1.00  0.00    -0.113 N 
ATOM     12  H5  UNL     1      18.833  47.758  69.274  1.00  0.00     0.206 HD
BRANCH  11  13
HETATM   13  C4  UNL     1      20.318  49.068  68.845  1.00  0.00     0.756 A 
HETATM   14  N6  UNL     1      20.674  49.991  67.906  1.00  0.00    -0.111 N 
HETATM   15  N7  UNL     1      21.988  50.056  67.928  1.00  0.00    -0.211 N 
ATOM     16  H6  UNL     1      20.046  50.525  67.306  1.00  0.00     0.207 HD
HETATM   17  N8  UNL     1      22.496  49.239  68.815  1.00  0.00    -0.186 N 
ATOM     18  H7  UNL     1      22.542  50.667  67.328  1.00  0.00     0.210 HD
HETATM   19  N9  UNL     1      21.467  48.627  69.384  1.00  0.00     0.035 N 
ATOM     20  H8  UNL     1      23.484  49.101  69.027  1.00  0.00     0.213 HD
BRANCH  19  21
HETATM   21  O1  UNL     1      21.551  47.755  70.299  1.00  0.00    -0.253 OA
ATOM     22  H1  UNL     1      22.263  47.132  70.394  1.00  0.00     0.247 HD
ENDBRANCH  19  21
ENDBRANCH  11  13
ENDBRANCH   9  11
TORSDOF 3
ENDMDL
MODEL 2
REMARK VINA RESULT: -6.765611460      6.212      7.860
REMARK  3 active torsions:
REMARK  status: ('A' for Active; 'I' for Inactive)
REMARK       I    between atoms: N1_2  and  C2_4 
REMARK       I    between atoms: C2_4  and  N4_9 
REMARK    1  A    between atoms: N4_9  and  N5_11 
REMARK    2  A    between atoms: N5_11  and  C4_13 
REMARK    3  A    between atoms: N9_20  and  O1_21 
ROOT
HETATM    1  C1  UNL     1      23.640  47.345  68.690  1.00  0.00     0.165 C 
HETATM    2  N1  UNL     1      23.106  46.708  69.858  1.00  0.00    -0.229 N 
ATOM      3  H1  UNL     1      22.744  47.307  70.600  1.00  0.00     0.177 HD
HETATM    4  C2  UNL     1      23.046  45.309  70.053  1.00  0.00     0.701 C 
HETATM    5  N2  UNL     1      21.921  44.719  70.168  1.00  0.00    -0.125 N 
ATOM      6  H2  UNL     1      21.073  45.283  70.115  1.00  0.00     0.197 HD
HETATM    7  C3  UNL     1      21.787  43.341  70.362  1.00  0.00     0.196 C 
HETATM    8  N3  UNL     1      21.657  42.185  70.521  1.00  0.00    -0.171 NA
HETATM    9  N4  UNL     1      24.233  44.547  70.122  1.00  0.00    -0.117 N 
ATOM     10  H4  UNL     1      24.650  44.369  71.036  1.00  0.00     0.206 HD
ENDROOT
BRANCH   9  11
HETATM   11  N5  UNL     1      24.855  44.029  68.985  1.00  0.00    -0.113 N 
ATOM     12  H5  UNL     1      25.574  44.554  68.486  1.00  0.00     0.206 HD
BRANCH  11  13
HETATM   13  C4  UNL     1      24.480  42.852  68.589  1.00  0.00     0.756 A 
HETATM   14  N6  UNL     1      24.004  42.577  67.340  1.00  0.00    -0.111 N 
HETATM   15  N7  UNL     1      23.733  41.289  67.322  1.00  0.00    -0.211 N 
ATOM     16  H6  UNL     1      23.883  43.238  66.573  1.00  0.00     0.207 HD
HETATM   17  N8  UNL     1      24.002  40.724  68.471  1.00  0.00    -0.186 N 
ATOM     18  H7  UNL     1      23.359  40.794  66.512  1.00  0.00     0.210 HD
HETATM   19  N9  UNL     1      24.464  41.687  69.256  1.00  0.00     0.035 N 
ATOM     20  H8  UNL     1      23.881  39.740  68.713  1.00  0.00     0.213 HD
BRANCH  19  21
HETATM   21  O1  UNL     1      24.835  41.534  70.458  1.00  0.00    -0.253 OA
ATOM     22  H1  UNL     1      25.604  41.047  70.732  1.00  0.00     0.247 HD
ENDBRANCH  19  21
ENDBRANCH  11  13
ENDBRANCH   9  11
TORSDOF 3
ENDMDL
MODEL 3
REMARK VINA RESULT: -6.605347233      1.913      5.057
REMARK  3 active torsions:
REMARK  status: ('A' for Active; 'I' for Inactive)
REMARK       I    between atoms: N1_2  and  C2_4 
REMARK       I    between atoms: C2_4  and  N4_9 
REMARK    1  A    between atoms: N4_9  and  N5_11 
REMARK    2  A    between atoms: N5_11  and  C4_13 
REMARK    3  A    between atoms: N9_20  and  O1_21 
ROOT
HETATM    1  C1  UNL     1      21.500  48.506  69.718  1.00  0.00     0.165 C 
HETATM    2  N1  UNL     1      21.058  49.475  68.760  1.00  0.00    -0.229 N 
ATOM      3  H1  UNL     1      21.733  50.170  68.442  1.00  0.00     0.177 HD
HETATM    4  C2  UNL     1      19.751  49.537  68.224  1.00  0.00     0.701 C 
HETATM    5  N2  UNL     1      19.553  49.360  66.976  1.00  0.00    -0.125 N 
ATOM      6  H2  UNL     1      20.360  49.173  66.381  1.00  0.00     0.197 HD
HETATM    7  C3  UNL     1      18.290  49.406  66.379  1.00  0.00     0.196 C 
HETATM    8  N3  UNL     1      17.236  49.438  65.863  1.00  0.00    -0.171 NA
HETATM    9  N4  UNL     1      18.646  49.796  69.065  1.00  0.00    -0.117 N 
ATOM     10  H4  UNL     1      18.335  50.760  69.185  1.00  0.00     0.206 HD
ENDROOT
BRANCH   9  11
HETATM   11  N5  UNL     1      17.966  48.779  69.738  1.00  0.00    -0.113 N 
ATOM     12  H5  UNL     1      18.467  48.061  70.263  1.00  0.00     0.206 HD
BRANCH  11  13
HETATM   13  C4  UNL     1      16.671  48.785  69.667  1.00  0.00     0.756 A 
HETATM   14  N6  UNL     1      15.964  49.094  68.542  1.00  0.00    -0.111 N 
HETATM   15  N7  UNL     1      14.692  48.990  68.862  1.00  0.00    -0.211 N 
ATOM     16  H6  UNL     1      16.346  49.355  67.633  1.00  0.00     0.207 HD
HETATM   17  N8  UNL     1      14.537  48.636  70.112  1.00  0.00    -0.186 N 
ATOM     18  H7  UNL     1      13.922  49.164  68.216  1.00  0.00     0.210 HD
HETATM   19  N9  UNL     1      15.758  48.508  70.613  1.00  0.00     0.035 N 
ATOM     20  H8  UNL     1      13.656  48.488  70.603  1.00  0.00     0.213 HD
BRANCH  19  21
HETATM   21  O1  UNL     1      16.027  48.176  71.805  1.00  0.00    -0.253 OA
ATOM     22  H1  UNL     1      15.416  48.214  72.532  1.00  0.00     0.247 HD
ENDBRANCH  19  21
ENDBRANCH  11  13
ENDBRANCH   9  11
TORSDOF 3
ENDMDL
MODEL 4
REMARK VINA RESULT: -6.604636481      4.969      7.606
REMARK  3 active torsions:
REMARK  status: ('A' for Active; 'I' for Inactive)
REMARK       I    between atoms: N1_2  and  C2_4 
REMARK       I    between atoms: C2_4  and  N4_9 
REMARK    1  A    between atoms: N4_9  and  N5_11 
REMARK    2  A    between atoms: N5_11  and  C4_13 
REMARK    3  A    between atoms: N9_20  and  O1_21 
ROOT
HETATM    1  C1  UNL     1      21.802  47.615  70.099  1.00  0.00     0.165 C 
HETATM    2  N1  UNL     1      22.908  47.784  69.203  1.00  0.00    -0.229 N 
ATOM      3  H1  UNL     1      22.851  48.535  68.516  1.00  0.00     0.177 HD
HETATM    4  C2  UNL     1      24.073  46.983  69.205  1.00  0.00     0.701 C 
HETATM    5  N2  UNL     1      25.212  47.495  69.467  1.00  0.00    -0.125 N 
ATOM      6  H2  UNL     1      25.256  48.493  69.674  1.00  0.00     0.197 HD
HETATM    7  C3  UNL     1      26.402  46.764  69.487  1.00  0.00     0.196 C 
HETATM    8  N3  UNL     1      27.411  46.163  69.512  1.00  0.00    -0.171 NA
HETATM    9  N4  UNL     1      23.990  45.603  68.917  1.00  0.00    -0.117 N 
ATOM     10  H4  UNL     1      24.124  45.293  67.954  1.00  0.00     0.206 HD
ENDROOT
BRANCH   9  11
HETATM   11  N5  UNL     1      23.732  44.648  69.902  1.00  0.00    -0.113 N 
ATOM     12  H5  UNL     1      24.333  44.554  70.721  1.00  0.00     0.206 HD
BRANCH  11  13
HETATM   13  C4  UNL     1      22.695  43.887  69.733  1.00  0.00     0.756 A 
HETATM   14  N6  UNL     1      22.450  43.162  68.604  1.00  0.00    -0.111 N 
HETATM   15  N7  UNL     1      21.317  42.526  68.809  1.00  0.00    -0.211 N 
ATOM     16  H6  UNL     1      23.031  43.120  67.767  1.00  0.00     0.207 HD
HETATM   17  N8  UNL     1      20.821  42.795  69.990  1.00  0.00    -0.186 N 
ATOM     18  H7  UNL     1      20.880  41.901  68.132  1.00  0.00     0.210 HD
HETATM   19  N9  UNL     1      21.670  43.636  70.563  1.00  0.00     0.035 N 
ATOM     20  H8  UNL     1      19.955  42.431  70.388  1.00  0.00     0.213 HD
BRANCH  19  21
HETATM   21  O1  UNL     1      21.536  44.132  71.722  1.00  0.00    -0.253 OA
ATOM     22  H1  UNL     1      21.147  43.683  72.464  1.00  0.00     0.247 HD
ENDBRANCH  19  21
ENDBRANCH  11  13
ENDBRANCH   9  11
TORSDOF 3
ENDMDL
MODEL 5
REMARK VINA RESULT: -6.552701062      5.007      7.485
REMARK  3 active torsions:
REMARK  status: ('A' for Active; 'I' for Inactive)
REMARK       I    between atoms: N1_2  and  C2_4 
REMARK       I    between atoms: C2_4  and  N4_9 
REMARK    1  A    between atoms: N4_9  and  N5_11 
REMARK    2  A    between atoms: N5_11  and  C4_13 
REMARK    3  A    between atoms: N9_20  and  O1_21 
ROOT
HETATM    1  C1  UNL     1      27.098  46.457  68.683  1.00  0.00     0.165 C 
HETATM    2  N1  UNL     1      26.307  46.964  69.766  1.00  0.00    -0.229 N 
ATOM      3  H1  UNL     1      26.786  47.494  70.494  1.00  0.00     0.177 HD
HETATM    4  C2  UNL     1      24.911  46.781  69.895  1.00  0.00     0.701 C 
HETATM    5  N2  UNL     1      24.122  47.783  69.876  1.00  0.00    -0.125 N 
ATOM      6  H2  UNL     1      24.525  48.713  69.765  1.00  0.00     0.197 HD
HETATM    7  C3  UNL     1      22.734  47.676  69.999  1.00  0.00     0.196 C 
HETATM    8  N3  UNL     1      21.566  47.604  70.096  1.00  0.00    -0.171 NA
HETATM    9  N4  UNL     1      24.373  45.485  70.048  1.00  0.00    -0.117 N 
ATOM     10  H4  UNL     1      24.220  45.124  70.990  1.00  0.00     0.206 HD
ENDROOT
BRANCH   9  11
HETATM   11  N5  UNL     1      24.043  44.680  68.956  1.00  0.00    -0.113 N 
ATOM     12  H5  UNL     1      24.492  44.806  68.048  1.00  0.00     0.206 HD
BRANCH  11  13
HETATM   13  C4  UNL     1      23.143  43.765  69.144  1.00  0.00     0.756 A 
HETATM   14  N6  UNL     1      23.084  42.590  68.454  1.00  0.00    -0.111 N 
HETATM   15  N7  UNL     1      22.044  41.935  68.924  1.00  0.00    -0.211 N 
ATOM     16  H6  UNL     1      23.720  42.281  67.720  1.00  0.00     0.207 HD
HETATM   17  N8  UNL     1      21.435  42.610  69.865  1.00  0.00    -0.186 N 
ATOM     18  H7  UNL     1      21.749  41.016  68.595  1.00  0.00     0.210 HD
HETATM   19  N9  UNL     1      22.111  43.742  70.004  1.00  0.00     0.035 N 
ATOM     20  H8  UNL     1      20.607  42.323  70.387  1.00  0.00     0.213 HD
BRANCH  19  21
HETATM   21  O1  UNL     1      21.829  44.665  70.824  1.00  0.00    -0.253 OA
ATOM     22  H1  UNL     1      21.929  44.605  71.767  1.00  0.00     0.247 HD
ENDBRANCH  19  21
ENDBRANCH  11  13
ENDBRANCH   9  11
TORSDOF 3
ENDMDL
