MODEL 1
REMARK VINA RESULT: -6.069376958      0.000      0.000
REMARK  5 active torsions:
REMARK  status: ('A' for Active; 'I' for Inactive)
REMARK    1  A    between atoms: N1_1  and  N2_4 
REMARK    2  A    between atoms: N2_4  and  C1_6 
REMARK    3  A    between atoms: C2_13  and  N6_14 
REMARK    4  A    between atoms: N6_14  and  S1_16 
REMARK    5  A    between atoms: S1_16  and  N7_17 
ROOT
HETATM    1  C1  UNL     1      22.682  41.765  69.384  1.00  0.00     0.182 A 
HETATM    2  N3  UNL     1      21.462  41.454  68.915  1.00  0.00    -0.267 N 
ATOM      3  H3  UNL     1      21.227  40.579  68.446  1.00  0.00     0.190 HD
HETATM    4  N4  UNL     1      20.609  42.435  69.143  1.00  0.00    -0.239 N 
ATOM      5  H4  UNL     1      19.623  42.447  68.885  1.00  0.00     0.208 HD
HETATM    6  N5  UNL     1      21.264  43.397  69.765  1.00  0.00    -0.267 N 
ATOM      7  H5  UNL     1      20.862  44.284  70.070  1.00  0.00     0.190 HD
HETATM    8  C2  UNL     1      22.550  43.024  69.934  1.00  0.00     0.179 A 
ENDROOT
BRANCH   8   9
HETATM    9  N6  UNL     1      23.511  43.669  70.489  1.00  0.00    -0.249 N 
ATOM     10  H6  UNL     1      23.661  43.596  71.496  1.00  0.00     0.182 HD
BRANCH   9  11
HETATM   11  S1  UNL     1      24.547  44.659  69.537  1.00  0.00     0.318 S 
HETATM   12  O1  UNL     1      23.692  45.662  68.818  1.00  0.00    -0.183 OA
HETATM   13  O2  UNL     1      25.283  43.874  68.500  1.00  0.00    -0.183 OA
BRANCH  11  14
HETATM   14  N7  UNL     1      25.710  45.480  70.495  1.00  0.00    -0.311 N 
ATOM     15  H72 UNL     1      25.463  46.170  71.204  1.00  0.00     0.170 HD
ATOM     16  H71 UNL     1      26.663  45.194  70.268  1.00  0.00     0.170 HD
ENDBRANCH  11  14
ENDBRANCH   9  11
ENDBRANCH   8   9
BRANCH   1  17
HETATM   17  N2  UNL     1      23.757  41.053  69.341  1.00  0.00    -0.288 N 
ATOM     18  H2  UNL     1      24.049  40.541  70.173  1.00  0.00     0.188 HD
BRANCH  17  19
HETATM   19  N1  UNL     1      24.527  40.969  68.187  1.00  0.00    -0.343 N 
ATOM     20  H12 UNL     1      24.057  40.748  67.308  1.00  0.00     0.176 HD
ATOM     21  H11 UNL     1      25.536  41.121  68.206  1.00  0.00     0.176 HD
ENDBRANCH  17  19
ENDBRANCH   1  17
TORSDOF 5
ENDMDL
MODEL 2
REMARK VINA RESULT: -5.888883699      2.470      3.635
REMARK  5 active torsions:
REMARK  status: ('A' for Active; 'I' for Inactive)
REMARK    1  A    between atoms: N1_1  and  N2_4 
REMARK    2  A    between atoms: N2_4  and  C1_6 
REMARK    3  A    between atoms: C2_13  and  N6_14 
REMARK    4  A    between atoms: N6_14  and  S1_16 
REMARK    5  A    between atoms: S1_16  and  N7_17 
ROOT
HETATM    1  C1  UNL     1      22.024  43.933  69.840  1.00  0.00     0.182 A 
HETATM    2  N3  UNL     1      22.108  45.133  70.439  1.00  0.00    -0.267 N 
ATOM      3  H3  UNL     1      21.473  45.464  71.166  1.00  0.00     0.190 HD
HETATM    4  N4  UNL     1      23.124  45.824  69.960  1.00  0.00    -0.239 N 
ATOM      5  H4  UNL     1      23.403  46.762  70.246  1.00  0.00     0.208 HD
HETATM    6  N5  UNL     1      23.715  45.082  69.042  1.00  0.00    -0.267 N 
ATOM      7  H5  UNL     1      24.534  45.356  68.499  1.00  0.00     0.190 HD
HETATM    8  C2  UNL     1      23.066  43.904  68.936  1.00  0.00     0.179 A 
ENDROOT
BRANCH   8   9
HETATM    9  N6  UNL     1      23.319  42.909  68.164  1.00  0.00    -0.249 N 
ATOM     10  H6  UNL     1      23.189  42.999  67.156  1.00  0.00     0.182 HD
BRANCH   9  11
HETATM   11  S1  UNL     1      23.879  41.425  68.829  1.00  0.00     0.318 S 
HETATM   12  O1  UNL     1      24.803  40.792  67.831  1.00  0.00    -0.183 OA
HETATM   13  O2  UNL     1      22.763  40.462  69.080  1.00  0.00    -0.183 OA
BRANCH  11  14
HETATM   14  N7  UNL     1      24.711  41.659  70.312  1.00  0.00    -0.311 N 
ATOM     15  H72 UNL     1      24.428  42.348  71.008  1.00  0.00     0.170 HD
ATOM     16  H71 UNL     1      25.510  41.031  70.405  1.00  0.00     0.170 HD
ENDBRANCH  11  14
ENDBRANCH   9  11
ENDBRANCH   8   9
BRANCH   1  17
HETATM   17  N2  UNL     1      21.162  42.997  70.051  1.00  0.00    -0.288 N 
ATOM     18  H2  UNL     1      20.957  42.716  71.010  1.00  0.00     0.188 HD
BRANCH  17  19
HETATM   19  N1  UNL     1      20.508  42.360  69.003  1.00  0.00    -0.343 N 
ATOM     20  H12 UNL     1      19.652  41.845  69.211  1.00  0.00     0.176 HD
ATOM     21  H11 UNL     1      20.864  42.401  68.048  1.00  0.00     0.176 HD
ENDBRANCH  17  19
ENDBRANCH   1  17
TORSDOF 5
ENDMDL
MODEL 3
REMARK VINA RESULT: -5.629117673      2.607      4.109
REMARK  5 active torsions:
REMARK  status: ('A' for Active; 'I' for Inactive)
REMARK    1  A    between atoms: N1_1  and  N2_4 
REMARK    2  A    between atoms: N2_4  and  C1_6 
REMARK    3  A    between atoms: C2_13  and  N6_14 
REMARK    4  A    between atoms: N6_14  and  S1_16 
REMARK    5  A    between atoms: S1_16  and  N7_17 
ROOT
HETATM    1  C1  UNL     1      22.502  44.585  70.124  1.00  0.00     0.182 A 
HETATM    2  N3  UNL     1      23.216  45.724  70.097  1.00  0.00    -0.267 N 
ATOM      3  H3  UNL     1      23.202  46.435  70.828  1.00  0.00     0.190 HD
HETATM    4  N4  UNL     1      23.938  45.795  68.995  1.00  0.00    -0.239 N 
ATOM      5  H4  UNL     1      24.564  46.557  68.734  1.00  0.00     0.208 HD
HETATM    6  N5  UNL     1      23.703  44.704  68.291  1.00  0.00    -0.267 N 
ATOM      7  H5  UNL     1      24.123  44.482  67.388  1.00  0.00     0.190 HD
HETATM    8  C2  UNL     1      22.819  43.928  68.953  1.00  0.00     0.179 A 
ENDROOT
BRANCH   8   9
HETATM    9  N6  UNL     1      22.332  42.790  68.614  1.00  0.00    -0.249 N 
ATOM     10  H6  UNL     1      21.516  42.746  68.003  1.00  0.00     0.182 HD
BRANCH   9  11
HETATM   11  S1  UNL     1      23.054  41.338  69.189  1.00  0.00     0.318 S 
HETATM   12  O1  UNL     1      22.054  40.230  69.026  1.00  0.00    -0.183 OA
HETATM   13  O2  UNL     1      23.402  41.417  70.641  1.00  0.00    -0.183 OA
BRANCH  11  14
HETATM   14  N7  UNL     1      24.486  40.948  68.328  1.00  0.00    -0.311 N 
ATOM     15  H72 UNL     1      24.660  41.248  67.369  1.00  0.00     0.170 HD
ATOM     16  H71 UNL     1      25.129  40.389  68.889  1.00  0.00     0.170 HD
ENDBRANCH  11  14
ENDBRANCH   9  11
ENDBRANCH   8   9
BRANCH   1  17
HETATM   17  N2  UNL     1      21.690  44.177  71.040  1.00  0.00    -0.288 N 
ATOM     18  H2  UNL     1      20.689  44.337  70.924  1.00  0.00     0.188 HD
BRANCH  17  19
HETATM   19  N1  UNL     1      22.146  43.525  72.180  1.00  0.00    -0.343 N 
ATOM     20  H12 UNL     1      22.398  44.091  72.991  1.00  0.00     0.176 HD
ATOM     21  H11 UNL     1      22.231  42.509  72.216  1.00  0.00     0.176 HD
ENDBRANCH  17  19
ENDBRANCH   1  17
TORSDOF 5
ENDMDL
MODEL 4
REMARK VINA RESULT: -5.556230149      1.980      2.199
REMARK  5 active torsions:
REMARK  status: ('A' for Active; 'I' for Inactive)
REMARK    1  A    between atoms: N1_1  and  N2_4 
REMARK    2  A    between atoms: N2_4  and  C1_6 
REMARK    3  A    between atoms: C2_13  and  N6_14 
REMARK    4  A    between atoms: N6_14  and  S1_16 
REMARK    5  A    between atoms: S1_16  and  N7_17 
ROOT
HETATM    1  C1  UNL     1      22.645  43.406  68.731  1.00  0.00     0.182 A 
HETATM    2  N3  UNL     1      21.573  42.625  68.945  1.00  0.00    -0.267 N 
ATOM      3  H3  UNL     1      21.255  41.891  68.312  1.00  0.00     0.190 HD
HETATM    4  N4  UNL     1      20.988  42.938  70.085  1.00  0.00    -0.239 N 
ATOM      5  H4  UNL     1      20.157  42.495  70.476  1.00  0.00     0.208 HD
HETATM    6  N5  UNL     1      21.673  43.927  70.628  1.00  0.00    -0.267 N 
ATOM      7  H5  UNL     1      21.455  44.377  71.517  1.00  0.00     0.190 HD
HETATM    8  C2  UNL     1      22.707  44.248  69.822  1.00  0.00     0.179 A 
ENDROOT
BRANCH   8   9
HETATM    9  N6  UNL     1      23.606  45.150  69.984  1.00  0.00    -0.249 N 
ATOM     10  H6  UNL     1      24.550  44.885  70.265  1.00  0.00     0.182 HD
BRANCH   9  11
HETATM   11  S1  UNL     1      23.219  46.806  69.729  1.00  0.00     0.318 S 
HETATM   12  O1  UNL     1      21.781  47.008  70.112  1.00  0.00    -0.183 OA
HETATM   13  O2  UNL     1      23.359  47.205  68.295  1.00  0.00    -0.183 OA
BRANCH  11  14
HETATM   14  N7  UNL     1      24.212  47.850  70.662  1.00  0.00    -0.311 N 
ATOM     15  H72 UNL     1      23.967  48.160  71.602  1.00  0.00     0.170 HD
ATOM     16  H71 UNL     1      25.062  48.115  70.164  1.00  0.00     0.170 HD
ENDBRANCH  11  14
ENDBRANCH   9  11
ENDBRANCH   8   9
BRANCH   1  17
HETATM   17  N2  UNL     1      23.455  43.388  67.727  1.00  0.00    -0.288 N 
ATOM     18  H2  UNL     1      23.687  44.264  67.258  1.00  0.00     0.188 HD
BRANCH  17  19
HETATM   19  N1  UNL     1      24.020  42.204  67.268  1.00  0.00    -0.343 N 
ATOM     20  H12 UNL     1      24.834  41.835  67.761  1.00  0.00     0.176 HD
ATOM     21  H11 UNL     1      23.640  41.708  66.462  1.00  0.00     0.176 HD
ENDBRANCH  17  19
ENDBRANCH   1  17
TORSDOF 5
ENDMDL
MODEL 5
REMARK VINA RESULT: -5.537047888      2.983      3.615
REMARK  5 active torsions:
REMARK  status: ('A' for Active; 'I' for Inactive)
REMARK    1  A    between atoms: N1_1  and  N2_4 
REMARK    2  A    between atoms: N2_4  and  C1_6 
REMARK    3  A    between atoms: C2_13  and  N6_14 
REMARK    4  A    between atoms: N6_14  and  S1_16 
REMARK    5  A    between atoms: S1_16  and  N7_17 
ROOT
HETATM    1  C1  UNL     1      22.668  43.899  69.824  1.00  0.00     0.182 A 
HETATM    2  N3  UNL     1      22.261  43.412  68.639  1.00  0.00    -0.267 N 
ATOM      3  H3  UNL     1      22.706  43.616  67.744  1.00  0.00     0.190 HD
HETATM    4  N4  UNL     1      21.206  42.634  68.792  1.00  0.00    -0.239 N 
ATOM      5  H4  UNL     1      20.707  42.144  68.050  1.00  0.00     0.208 HD
HETATM    6  N5  UNL     1      20.913  42.605  70.079  1.00  0.00    -0.267 N 
ATOM      7  H5  UNL     1      20.144  42.082  70.497  1.00  0.00     0.190 HD
HETATM    8  C2  UNL     1      21.793  43.375  70.753  1.00  0.00     0.179 A 
ENDROOT
BRANCH   8   9
HETATM    9  N6  UNL     1      21.856  43.612  72.014  1.00  0.00    -0.249 N 
ATOM     10  H6  UNL     1      21.353  44.406  72.409  1.00  0.00     0.182 HD
BRANCH   9  11
HETATM   11  S1  UNL     1      22.790  42.591  73.035  1.00  0.00     0.318 S 
HETATM   12  O1  UNL     1      24.240  42.862  72.756  1.00  0.00    -0.183 OA
HETATM   13  O2  UNL     1      22.545  41.142  72.762  1.00  0.00    -0.183 OA
BRANCH  11  14
HETATM   14  N7  UNL     1      22.464  42.873  74.697  1.00  0.00    -0.311 N 
ATOM     15  H72 UNL     1      21.772  42.344  75.227  1.00  0.00     0.170 HD
ATOM     16  H71 UNL     1      23.041  43.623  75.078  1.00  0.00     0.170 HD
ENDBRANCH  11  14
ENDBRANCH   9  11
ENDBRANCH   8   9
BRANCH   1  17
HETATM   17  N2  UNL     1      23.660  44.688  70.061  1.00  0.00    -0.288 N 
ATOM     18  H2  UNL     1      23.488  45.688  70.164  1.00  0.00     0.188 HD
BRANCH  17  19
HETATM   19  N1  UNL     1      24.959  44.208  70.181  1.00  0.00    -0.343 N 
ATOM     20  H12 UNL     1      25.583  44.297  69.378  1.00  0.00     0.176 HD
ATOM     21  H11 UNL     1      25.291  43.776  71.044  1.00  0.00     0.176 HD
ENDBRANCH  17  19
ENDBRANCH   1  17
TORSDOF 5
ENDMDL
