MODEL 1
REMARK VINA RESULT: -6.948787226      0.000      0.000
REMARK  0 active torsions:
REMARK  status: ('A' for Active; 'I' for Inactive)
REMARK       I    between atoms: C1_2  and  N2_4 
ROOT
HETATM    1  N1  UNL     1      23.070  40.614  69.370  1.00  0.00    -0.040 NA
HETATM    2  C1  UNL     1      23.384  41.638  70.296  1.00  0.00     0.334 C 
HETATM    3  O1  UNL     1      22.922  41.630  71.477  1.00  0.00    -0.251 OA
HETATM    4  N2  UNL     1      24.219  42.700  69.940  1.00  0.00    -0.292 N 
ATOM      5  H2  UNL     1      25.213  42.479  69.892  1.00  0.00     0.172 HD
HETATM    6  C2  UNL     1      23.914  43.896  69.668  1.00  0.00     0.182 C 
HETATM    7  N3  UNL     1      24.927  44.754  69.344  1.00  0.00    -0.290 N 
ATOM      8  H3  UNL     1      25.790  44.327  69.009  1.00  0.00     0.172 HD
HETATM    9  C3  UNL     1      24.917  46.092  69.416  1.00  0.00     0.329 C 
HETATM   10  O2  UNL     1      25.993  46.624  69.001  1.00  0.00    -0.246 OA
HETATM   11  N4  UNL     1      23.969  46.934  69.848  1.00  0.00    -0.260 N 
ATOM     12  H4  UNL     1      24.246  47.904  70.005  1.00  0.00     0.175 HD
HETATM   13  C4  UNL     1      22.668  46.612  70.097  1.00  0.00     0.331 C 
HETATM   14  O3  UNL     1      21.943  47.572  70.447  1.00  0.00    -0.246 OA
HETATM   15  N5  UNL     1      22.052  45.423  70.023  1.00  0.00    -0.272 N 
ATOM     16  H5  UNL     1      21.051  45.429  70.220  1.00  0.00     0.174 HD
HETATM   17  C5  UNL     1      22.578  44.225  69.723  1.00  0.00     0.293 C 
HETATM   18  O4  UNL     1      21.751  43.304  69.462  1.00  0.00    -0.264 OA
ENDROOT
TORSDOF 0
ENDMDL
MODEL 2
REMARK VINA RESULT: -6.844410297      1.930      4.931
REMARK  0 active torsions:
REMARK  status: ('A' for Active; 'I' for Inactive)
REMARK       I    between atoms: C1_2  and  N2_4 
ROOT
HETATM    1  N1  UNL     1      24.830  47.257  69.731  1.00  0.00    -0.040 NA
HETATM    2  C1  UNL     1      25.464  45.992  69.668  1.00  0.00     0.334 C 
HETATM    3  O1  UNL     1      26.450  45.781  68.899  1.00  0.00    -0.251 OA
HETATM    4  N2  UNL     1      25.023  44.925  70.454  1.00  0.00    -0.292 N 
ATOM      5  H2  UNL     1      25.280  44.971  71.440  1.00  0.00     0.172 HD
HETATM    6  C2  UNL     1      24.350  43.910  70.114  1.00  0.00     0.182 C 
HETATM    7  N3  UNL     1      24.040  42.997  71.083  1.00  0.00    -0.290 N 
ATOM      8  H3  UNL     1      24.060  43.336  72.045  1.00  0.00     0.172 HD
HETATM    9  C3  UNL     1      23.715  41.709  70.915  1.00  0.00     0.329 C 
HETATM   10  O2  UNL     1      23.430  41.118  72.003  1.00  0.00    -0.246 OA
HETATM   11  N4  UNL     1      23.643  40.966  69.803  1.00  0.00    -0.260 N 
ATOM     12  H4  UNL     1      23.571  39.956  69.923  1.00  0.00     0.175 HD
HETATM   13  C4  UNL     1      23.658  41.440  68.524  1.00  0.00     0.331 C 
HETATM   14  O3  UNL     1      23.530  40.567  67.635  1.00  0.00    -0.246 OA
HETATM   15  N5  UNL     1      23.789  42.699  68.079  1.00  0.00    -0.272 N 
ATOM     16  H5  UNL     1      23.732  42.819  67.068  1.00  0.00     0.174 HD
HETATM   17  C5  UNL     1      23.986  43.820  68.790  1.00  0.00     0.293 C 
HETATM   18  O4  UNL     1      23.816  44.909  68.168  1.00  0.00    -0.264 OA
ENDROOT
TORSDOF 0
ENDMDL
MODEL 3
REMARK VINA RESULT: -6.579389752      1.378      2.725
REMARK  0 active torsions:
REMARK  status: ('A' for Active; 'I' for Inactive)
REMARK       I    between atoms: C1_2  and  N2_4 
ROOT
HETATM    1  N1  UNL     1      22.830  40.521  69.437  1.00  0.00    -0.040 NA
HETATM    2  C1  UNL     1      23.088  41.681  68.666  1.00  0.00     0.334 C 
HETATM    3  O1  UNL     1      23.853  41.650  67.656  1.00  0.00    -0.251 OA
HETATM    4  N2  UNL     1      22.504  42.907  68.993  1.00  0.00    -0.292 N 
ATOM      5  H2  UNL     1      21.517  43.001  68.751  1.00  0.00     0.172 HD
HETATM    6  C2  UNL     1      23.027  43.916  69.546  1.00  0.00     0.182 C 
HETATM    7  N3  UNL     1      22.233  45.008  69.761  1.00  0.00    -0.290 N 
ATOM      8  H3  UNL     1      21.228  44.837  69.788  1.00  0.00     0.172 HD
HETATM    9  C3  UNL     1      22.624  46.276  69.940  1.00  0.00     0.329 C 
HETATM   10  O2  UNL     1      21.659  47.070  70.167  1.00  0.00    -0.246 OA
HETATM   11  N4  UNL     1      23.846  46.823  69.919  1.00  0.00    -0.260 N 
ATOM     12  H4  UNL     1      23.899  47.841  69.880  1.00  0.00     0.175 HD
HETATM   13  C4  UNL     1      25.027  46.141  69.946  1.00  0.00     0.331 C 
HETATM   14  O3  UNL     1      26.052  46.859  69.969  1.00  0.00    -0.246 OA
HETATM   15  N5  UNL     1      25.250  44.818  69.951  1.00  0.00    -0.272 N 
ATOM     16  H5  UNL     1      26.228  44.535  70.013  1.00  0.00     0.174 HD
HETATM   17  C5  UNL     1      24.357  43.818  69.886  1.00  0.00     0.293 C 
HETATM   18  O4  UNL     1      24.792  42.665  70.170  1.00  0.00    -0.264 OA
ENDROOT
TORSDOF 0
ENDMDL
MODEL 4
REMARK VINA RESULT: -6.518784572      1.465      4.483
REMARK  0 active torsions:
REMARK  status: ('A' for Active; 'I' for Inactive)
REMARK       I    between atoms: C1_2  and  N2_4 
ROOT
HETATM    1  N1  UNL     1      24.234  47.846  70.148  1.00  0.00    -0.040 NA
HETATM    2  C1  UNL     1      24.161  46.720  69.292  1.00  0.00     0.334 C 
HETATM    3  O1  UNL     1      23.740  46.818  68.100  1.00  0.00    -0.251 OA
HETATM    4  N2  UNL     1      24.550  45.453  69.734  1.00  0.00    -0.292 N 
ATOM      5  H2  UNL     1      25.557  45.302  69.797  1.00  0.00     0.172 HD
HETATM    6  C2  UNL     1      23.830  44.469  70.065  1.00  0.00     0.182 C 
HETATM    7  N3  UNL     1      24.461  43.325  70.468  1.00  0.00    -0.290 N 
ATOM      8  H3  UNL     1      25.418  43.432  70.803  1.00  0.00     0.172 HD
HETATM    9  C3  UNL     1      23.966  42.080  70.474  1.00  0.00     0.329 C 
HETATM   10  O2  UNL     1      24.773  41.223  70.951  1.00  0.00    -0.246 OA
HETATM   11  N4  UNL     1      22.780  41.612  70.064  1.00  0.00    -0.260 N 
ATOM     12  H4  UNL     1      22.687  40.600  69.973  1.00  0.00     0.175 HD
HETATM   13  C4  UNL     1      21.686  42.366  69.759  1.00  0.00     0.331 C 
HETATM   14  O3  UNL     1      20.665  41.714  69.445  1.00  0.00    -0.246 OA
HETATM   15  N5  UNL     1      21.543  43.700  69.746  1.00  0.00    -0.272 N 
ATOM     16  H5  UNL     1      20.609  44.044  69.521  1.00  0.00     0.174 HD
HETATM   17  C5  UNL     1      22.467  44.643  69.991  1.00  0.00     0.293 C 
HETATM   18  O4  UNL     1      22.029  45.816  70.174  1.00  0.00    -0.264 OA
ENDROOT
TORSDOF 0
ENDMDL
MODEL 5
REMARK VINA RESULT: -6.195959353      1.472      2.719
REMARK  0 active torsions:
REMARK  status: ('A' for Active; 'I' for Inactive)
REMARK       I    between atoms: C1_2  and  N2_4 
ROOT
HETATM    1  N1  UNL     1      23.739  41.199  70.913  1.00  0.00    -0.040 NA
HETATM    2  C1  UNL     1      23.403  42.042  69.826  1.00  0.00     0.334 C 
HETATM    3  O1  UNL     1      23.715  41.745  68.633  1.00  0.00    -0.251 OA
HETATM    4  N2  UNL     1      22.713  43.239  70.030  1.00  0.00    -0.292 N 
ATOM      5  H2  UNL     1      21.716  43.143  70.224  1.00  0.00     0.172 HD
HETATM    6  C2  UNL     1      23.151  44.425  70.007  1.00  0.00     0.182 C 
HETATM    7  N3  UNL     1      22.262  45.437  70.241  1.00  0.00    -0.290 N 
ATOM      8  H3  UNL     1      21.413  45.184  70.746  1.00  0.00     0.172 HD
HETATM    9  C3  UNL     1      22.378  46.722  69.884  1.00  0.00     0.329 C 
HETATM   10  O2  UNL     1      21.411  47.442  70.283  1.00  0.00    -0.246 OA
HETATM   11  N4  UNL     1      23.335  47.351  69.188  1.00  0.00    -0.260 N 
ATOM     12  H4  UNL     1      23.125  48.293  68.857  1.00  0.00     0.175 HD
HETATM   13  C4  UNL     1      24.563  46.844  68.882  1.00  0.00     0.331 C 
HETATM   14  O3  UNL     1      25.319  47.627  68.263  1.00  0.00    -0.246 OA
HETATM   15  N5  UNL     1      25.079  45.634  69.146  1.00  0.00    -0.272 N 
ATOM     16  H5  UNL     1      26.045  45.491  68.852  1.00  0.00     0.174 HD
HETATM   17  C5  UNL     1      24.493  44.587  69.747  1.00  0.00     0.293 C 
HETATM   18  O4  UNL     1      25.263  43.653  70.114  1.00  0.00    -0.264 OA
ENDROOT
TORSDOF 0
ENDMDL
