MODEL 1
REMARK VINA RESULT: -10.007332589      0.000      0.000
REMARK  10 active torsions:
REMARK  status: ('A' for Active; 'I' for Inactive)
REMARK    1  A    between atoms: C2_2  and  C3_3 
REMARK    2  A    between atoms: C2_2  and  C19_37 
REMARK    3  A    between atoms: C3_3  and  N1_4 
REMARK    4  A    between atoms: N1_4  and  C4_6 
REMARK    5  A    between atoms: C5_9  and  N3_10 
REMARK    6  A    between atoms: N5_17  and  C8_18 
REMARK    7  A    between atoms: C11_22  and  C12_23 
REMARK    8  A    between atoms: C12_23  and  C13_24 
REMARK    9  A    between atoms: C13_24  and  C14_25 
REMARK   10  A    between atoms: C19_37  and  C20_38 
ROOT
HETATM    1  C4  UNL     1      17.403  14.105  33.890  1.00  0.00     0.681 A 
HETATM    2  N2  UNL     1      18.714  13.845  33.841  1.00  0.00    -0.175 N 
ATOM      3  H2  UNL     1      19.118  13.205  34.524  1.00  0.00     0.186 HD
HETATM    4  C5  UNL     1      19.515  14.405  32.917  1.00  0.00     0.145 A 
HETATM    5  C6  UNL     1      18.969  15.271  31.993  1.00  0.00     0.123 A 
HETATM    6  N4  UNL     1      19.467  15.979  30.966  1.00  0.00    -0.346 N 
ATOM      7  H4  UNL     1      20.438  16.008  30.654  1.00  0.00     0.167 HD
HETATM    8  C7  UNL     1      18.442  16.633  30.438  1.00  0.00     0.186 A 
HETATM    9  N5  UNL     1      17.291  16.378  31.084  1.00  0.00    -0.313 N 
HETATM   10  C18 UNL     1      17.615  15.516  32.071  1.00  0.00     0.155 A 
HETATM   11  N8  UNL     1      16.829  14.953  32.995  1.00  0.00    -0.174 N 
ATOM     12  H8  UNL     1      15.829  15.154  33.029  1.00  0.00     0.186 HD
ENDROOT
BRANCH   9  13
HETATM   13  C8  UNL     1      16.041  16.916  30.748  1.00  0.00     0.186 C 
HETATM   14  C9  UNL     1      15.014  15.982  30.202  1.00  0.00     0.201 C 
HETATM   15  O1  UNL     1      14.095  16.721  29.459  1.00  0.00    -0.388 OA
HETATM   16  C10 UNL     1      13.840  17.968  29.991  1.00  0.00     0.179 C 
HETATM   17  C11 UNL     1      13.919  18.012  31.493  1.00  0.00     0.082 C 
HETATM   18  C17 UNL     1      15.356  17.690  31.841  1.00  0.00     0.158 C 
HETATM   19  O2  UNL     1      15.869  18.022  32.869  1.00  0.00    -0.295 OA
BRANCH  17  20
HETATM   20  C12 UNL     1      13.558  19.390  31.957  1.00  0.00     0.020 C 
BRANCH  20  21
HETATM   21  C13 UNL     1      13.530  20.436  30.894  1.00  0.00     0.059 C 
BRANCH  21  22
HETATM   22  C14 UNL     1      14.760  21.262  31.040  1.00  0.00     0.025 A 
HETATM   23  C15 UNL     1      14.875  22.626  30.784  1.00  0.00     0.113 A 
HETATM   24  N6  UNL     1      16.153  23.026  31.033  1.00  0.00    -0.360 N 
HETATM   25  C16 UNL     1      16.821  21.937  31.436  1.00  0.00     0.180 A 
ATOM     26  H6  UNL     1      16.527  23.969  30.932  1.00  0.00     0.166 HD
HETATM   27  N7  UNL     1      15.988  20.885  31.440  1.00  0.00    -0.355 N 
ATOM     28  H7  UNL     1      16.249  19.936  31.707  1.00  0.00     0.166 HD
ENDBRANCH  21  22
ENDBRANCH  20  21
ENDBRANCH  17  20
ENDBRANCH   9  13
BRANCH   4  29
HETATM   29  N3  UNL     1      20.779  14.169  32.855  1.00  0.00    -0.383 N 
ATOM     30  H32 UNL     1      21.405  14.949  32.655  1.00  0.00     0.157 HD
ATOM     31  H31 UNL     1      21.176  13.240  32.998  1.00  0.00     0.157 HD
ENDBRANCH   4  29
BRANCH   1  32
HETATM   32  N1  UNL     1      16.630  13.591  34.751  1.00  0.00    -0.226 N 
ATOM     33  H1  UNL     1      16.236  12.670  34.558  1.00  0.00     0.177 HD
BRANCH  32  34
HETATM   34  C3  UNL     1      16.281  14.228  35.968  1.00  0.00     0.142 C 
BRANCH  34  35
HETATM   35  C2  UNL     1      14.841  13.979  36.381  1.00  0.00     0.000 C 
HETATM   36  C1  UNL     1      14.737  13.753  37.877  1.00  0.00     0.011 C 
BRANCH  35  37
HETATM   37  C19 UNL     1      14.358  12.756  35.628  1.00  0.00     0.010 C 
BRANCH  37  38
HETATM   38  C20 UNL     1      13.036  13.017  34.940  1.00  0.00    -0.014 C 
HETATM   39  C21 UNL     1      13.199  13.461  33.511  1.00  0.00     0.005 C 
HETATM   40  C22 UNL     1      11.766  13.302  33.000  1.00  0.00     0.000 C 
HETATM   41  C23 UNL     1      11.235  12.071  33.733  1.00  0.00     0.000 C 
HETATM   42  C24 UNL     1      12.296  11.707  34.755  1.00  0.00     0.005 C 
ENDBRANCH  37  38
ENDBRANCH  35  37
ENDBRANCH  34  35
ENDBRANCH  32  34
ENDBRANCH   1  32
TORSDOF 10
ENDMDL
MODEL 2
REMARK VINA RESULT: -9.890811146      0.668      1.060
REMARK  10 active torsions:
REMARK  status: ('A' for Active; 'I' for Inactive)
REMARK    1  A    between atoms: C2_2  and  C3_3 
REMARK    2  A    between atoms: C2_2  and  C19_37 
REMARK    3  A    between atoms: C3_3  and  N1_4 
REMARK    4  A    between atoms: N1_4  and  C4_6 
REMARK    5  A    between atoms: C5_9  and  N3_10 
REMARK    6  A    between atoms: N5_17  and  C8_18 
REMARK    7  A    between atoms: C11_22  and  C12_23 
REMARK    8  A    between atoms: C12_23  and  C13_24 
REMARK    9  A    between atoms: C13_24  and  C14_25 
REMARK   10  A    between atoms: C19_37  and  C20_38 
ROOT
HETATM    1  C4  UNL     1      17.570  14.154  33.807  1.00  0.00     0.681 A 
HETATM    2  N2  UNL     1      18.880  13.907  33.710  1.00  0.00    -0.175 N 
ATOM      3  H2  UNL     1      19.315  13.267  34.375  1.00  0.00     0.186 HD
HETATM    4  C5  UNL     1      19.642  14.479  32.761  1.00  0.00     0.145 A 
HETATM    5  C6  UNL     1      19.056  15.345  31.861  1.00  0.00     0.123 A 
HETATM    6  N4  UNL     1      19.511  16.063  30.821  1.00  0.00    -0.346 N 
ATOM      7  H4  UNL     1      20.469  16.102  30.476  1.00  0.00     0.167 HD
HETATM    8  C7  UNL     1      18.462  16.710  30.334  1.00  0.00     0.186 A 
HETATM    9  N5  UNL     1      17.337  16.440  31.019  1.00  0.00    -0.313 N 
HETATM   10  C18 UNL     1      17.704  15.576  31.989  1.00  0.00     0.155 A 
HETATM   11  N8  UNL     1      16.956  15.001  32.938  1.00  0.00    -0.174 N 
ATOM     12  H8  UNL     1      15.956  15.193  33.008  1.00  0.00     0.186 HD
ENDROOT
BRANCH   9  13
HETATM   13  C8  UNL     1      16.071  16.968  30.731  1.00  0.00     0.186 C 
HETATM   14  C9  UNL     1      15.029  16.024  30.232  1.00  0.00     0.201 C 
HETATM   15  O1  UNL     1      14.076  16.753  29.523  1.00  0.00    -0.388 OA
HETATM   16  C10 UNL     1      13.833  18.001  30.058  1.00  0.00     0.179 C 
HETATM   17  C11 UNL     1      13.973  18.055  31.555  1.00  0.00     0.082 C 
HETATM   18  C17 UNL     1      15.425  17.744  31.846  1.00  0.00     0.158 C 
HETATM   19  O2  UNL     1      15.976  18.086  32.851  1.00  0.00    -0.295 OA
BRANCH  17  20
HETATM   20  C12 UNL     1      13.622  19.434  32.026  1.00  0.00     0.020 C 
BRANCH  20  21
HETATM   21  C13 UNL     1      12.972  20.310  31.009  1.00  0.00     0.059 C 
BRANCH  21  22
HETATM   22  C14 UNL     1      13.931  21.400  30.674  1.00  0.00     0.025 A 
HETATM   23  C15 UNL     1      15.154  21.643  31.292  1.00  0.00     0.113 A 
HETATM   24  N6  UNL     1      15.746  22.724  30.713  1.00  0.00    -0.360 N 
HETATM   25  C16 UNL     1      14.911  23.147  29.754  1.00  0.00     0.180 A 
ATOM     26  H6  UNL     1      16.647  23.132  30.961  1.00  0.00     0.166 HD
HETATM   27  N7  UNL     1      13.828  22.355  29.732  1.00  0.00    -0.355 N 
ATOM     28  H7  UNL     1      13.040  22.462  29.093  1.00  0.00     0.166 HD
ENDBRANCH  21  22
ENDBRANCH  20  21
ENDBRANCH  17  20
ENDBRANCH   9  13
BRANCH   4  29
HETATM   29  N3  UNL     1      20.906  14.255  32.652  1.00  0.00    -0.383 N 
ATOM     30  H32 UNL     1      21.216  13.288  32.549  1.00  0.00     0.157 HD
ATOM     31  H31 UNL     1      21.603  15.000  32.665  1.00  0.00     0.157 HD
ENDBRANCH   4  29
BRANCH   1  32
HETATM   32  N1  UNL     1      16.832  13.628  34.692  1.00  0.00    -0.226 N 
ATOM     33  H1  UNL     1      16.590  12.642  34.595  1.00  0.00     0.177 HD
BRANCH  32  34
HETATM   34  C3  UNL     1      16.326  14.337  35.809  1.00  0.00     0.142 C 
BRANCH  34  35
HETATM   35  C2  UNL     1      14.942  13.876  36.232  1.00  0.00     0.000 C 
HETATM   36  C1  UNL     1      14.826  13.820  37.743  1.00  0.00     0.011 C 
BRANCH  35  37
HETATM   37  C19 UNL     1      14.719  12.502  35.634  1.00  0.00     0.010 C 
BRANCH  37  38
HETATM   38  C20 UNL     1      13.415  12.436  34.872  1.00  0.00    -0.014 C 
HETATM   39  C21 UNL     1      12.260  13.023  35.637  1.00  0.00     0.005 C 
HETATM   40  C22 UNL     1      11.213  13.138  34.528  1.00  0.00     0.000 C 
HETATM   41  C23 UNL     1      12.020  13.492  33.279  1.00  0.00     0.000 C 
HETATM   42  C24 UNL     1      13.478  13.369  33.679  1.00  0.00     0.005 C 
ENDBRANCH  37  38
ENDBRANCH  35  37
ENDBRANCH  34  35
ENDBRANCH  32  34
ENDBRANCH   1  32
TORSDOF 10
ENDMDL
MODEL 3
REMARK VINA RESULT: -9.868627223      1.132      2.082
REMARK  10 active torsions:
REMARK  status: ('A' for Active; 'I' for Inactive)
REMARK    1  A    between atoms: C2_2  and  C3_3 
REMARK    2  A    between atoms: C2_2  and  C19_37 
REMARK    3  A    between atoms: C3_3  and  N1_4 
REMARK    4  A    between atoms: N1_4  and  C4_6 
REMARK    5  A    between atoms: C5_9  and  N3_10 
REMARK    6  A    between atoms: N5_17  and  C8_18 
REMARK    7  A    between atoms: C11_22  and  C12_23 
REMARK    8  A    between atoms: C12_23  and  C13_24 
REMARK    9  A    between atoms: C13_24  and  C14_25 
REMARK   10  A    between atoms: C19_37  and  C20_38 
ROOT
HETATM    1  C4  UNL     1      17.807  14.015  33.649  1.00  0.00     0.681 A 
HETATM    2  N2  UNL     1      19.122  13.808  33.534  1.00  0.00    -0.175 N 
ATOM      3  H2  UNL     1      19.580  13.160  34.175  1.00  0.00     0.186 HD
HETATM    4  C5  UNL     1      19.860  14.430  32.597  1.00  0.00     0.145 A 
HETATM    5  C6  UNL     1      19.242  15.306  31.730  1.00  0.00     0.123 A 
HETATM    6  N4  UNL     1      19.667  16.069  30.709  1.00  0.00    -0.346 N 
ATOM      7  H4  UNL     1      20.622  16.145  30.357  1.00  0.00     0.167 HD
HETATM    8  C7  UNL     1      18.597  16.701  30.250  1.00  0.00     0.186 A 
HETATM    9  N5  UNL     1      17.486  16.380  30.937  1.00  0.00    -0.313 N 
HETATM   10  C18 UNL     1      17.885  15.496  31.876  1.00  0.00     0.155 A 
HETATM   11  N8  UNL     1      17.162  14.872  32.812  1.00  0.00    -0.174 N 
ATOM     12  H8  UNL     1      16.158  15.034  32.897  1.00  0.00     0.186 HD
ENDROOT
BRANCH   9  13
HETATM   13  C8  UNL     1      16.203  16.882  30.675  1.00  0.00     0.186 C 
HETATM   14  C9  UNL     1      15.179  15.922  30.169  1.00  0.00     0.201 C 
HETATM   15  O1  UNL     1      14.199  16.642  29.487  1.00  0.00    -0.388 OA
HETATM   16  C10 UNL     1      13.932  17.872  30.052  1.00  0.00     0.179 C 
HETATM   17  C11 UNL     1      14.090  17.897  31.549  1.00  0.00     0.082 C 
HETATM   18  C17 UNL     1      15.553  17.617  31.815  1.00  0.00     0.158 C 
HETATM   19  O2  UNL     1      16.108  17.950  32.820  1.00  0.00    -0.295 OA
BRANCH  17  20
HETATM   20  C12 UNL     1      13.710  19.255  32.053  1.00  0.00     0.020 C 
BRANCH  20  21
HETATM   21  C13 UNL     1      13.596  20.316  31.011  1.00  0.00     0.059 C 
BRANCH  21  22
HETATM   22  C14 UNL     1      14.800  21.186  31.120  1.00  0.00     0.025 A 
HETATM   23  C15 UNL     1      14.848  22.561  30.904  1.00  0.00     0.113 A 
HETATM   24  N6  UNL     1      16.121  23.004  31.098  1.00  0.00    -0.360 N 
HETATM   25  C16 UNL     1      16.852  21.931  31.428  1.00  0.00     0.180 A 
ATOM     26  H6  UNL     1      16.453  23.964  31.009  1.00  0.00     0.166 HD
HETATM   27  N7  UNL     1      16.062  20.846  31.440  1.00  0.00    -0.355 N 
ATOM     28  H7  UNL     1      16.373  19.901  31.661  1.00  0.00     0.166 HD
ENDBRANCH  21  22
ENDBRANCH  20  21
ENDBRANCH  17  20
ENDBRANCH   9  13
BRANCH   4  29
HETATM   29  N3  UNL     1      21.128  14.244  32.471  1.00  0.00    -0.383 N 
ATOM     30  H32 UNL     1      21.741  14.595  33.208  1.00  0.00     0.157 HD
ATOM     31  H31 UNL     1      21.540  13.762  31.672  1.00  0.00     0.157 HD
ENDBRANCH   4  29
BRANCH   1  32
HETATM   32  N1  UNL     1      17.091  13.443  34.524  1.00  0.00    -0.226 N 
ATOM     33  H1  UNL     1      17.437  13.409  35.483  1.00  0.00     0.177 HD
BRANCH  32  34
HETATM   34  C3  UNL     1      15.838  12.847  34.241  1.00  0.00     0.142 C 
BRANCH  34  35
HETATM   35  C2  UNL     1      14.687  13.493  34.993  1.00  0.00     0.000 C 
HETATM   36  C1  UNL     1      14.117  14.662  34.213  1.00  0.00     0.011 C 
BRANCH  35  37
HETATM   37  C19 UNL     1      15.224  13.961  36.330  1.00  0.00     0.010 C 
BRANCH  37  38
HETATM   38  C20 UNL     1      14.645  13.155  37.471  1.00  0.00    -0.014 C 
HETATM   39  C21 UNL     1      14.611  13.919  38.768  1.00  0.00     0.005 C 
HETATM   40  C22 UNL     1      13.691  13.024  39.600  1.00  0.00     0.000 C 
HETATM   41  C23 UNL     1      12.674  12.485  38.595  1.00  0.00     0.000 C 
HETATM   42  C24 UNL     1      13.166  12.927  37.229  1.00  0.00     0.005 C 
ENDBRANCH  37  38
ENDBRANCH  35  37
ENDBRANCH  34  35
ENDBRANCH  32  34
ENDBRANCH   1  32
TORSDOF 10
ENDMDL
MODEL 4
REMARK VINA RESULT: -9.814930190      1.009      2.496
REMARK  10 active torsions:
REMARK  status: ('A' for Active; 'I' for Inactive)
REMARK    1  A    between atoms: C2_2  and  C3_3 
REMARK    2  A    between atoms: C2_2  and  C19_37 
REMARK    3  A    between atoms: C3_3  and  N1_4 
REMARK    4  A    between atoms: N1_4  and  C4_6 
REMARK    5  A    between atoms: C5_9  and  N3_10 
REMARK    6  A    between atoms: N5_17  and  C8_18 
REMARK    7  A    between atoms: C11_22  and  C12_23 
REMARK    8  A    between atoms: C12_23  and  C13_24 
REMARK    9  A    between atoms: C13_24  and  C14_25 
REMARK   10  A    between atoms: C19_37  and  C20_38 
ROOT
HETATM    1  C4  UNL     1      17.099  13.506  33.916  1.00  0.00     0.681 A 
HETATM    2  N2  UNL     1      18.412  13.318  34.076  1.00  0.00    -0.175 N 
ATOM      3  H2  UNL     1      18.735  12.600  34.724  1.00  0.00     0.186 HD
HETATM    4  C5  UNL     1      19.322  14.050  33.408  1.00  0.00     0.145 A 
HETATM    5  C6  UNL     1      18.887  15.022  32.531  1.00  0.00     0.123 A 
HETATM    6  N4  UNL     1      19.506  15.903  31.728  1.00  0.00    -0.346 N 
ATOM      7  H4  UNL     1      20.512  16.023  31.611  1.00  0.00     0.167 HD
HETATM    8  C7  UNL     1      18.547  16.582  31.116  1.00  0.00     0.186 A 
HETATM    9  N5  UNL     1      17.321  16.177  31.493  1.00  0.00    -0.313 N 
HETATM   10  C18 UNL     1      17.527  15.189  32.389  1.00  0.00     0.155 A 
HETATM   11  N8  UNL     1      16.632  14.455  33.060  1.00  0.00    -0.174 N 
ATOM     12  H8  UNL     1      15.630  14.602  32.934  1.00  0.00     0.186 HD
ENDROOT
BRANCH   9  13
HETATM   13  C8  UNL     1      16.114  16.702  31.009  1.00  0.00     0.186 C 
HETATM   14  C9  UNL     1      15.123  15.741  30.444  1.00  0.00     0.201 C 
HETATM   15  O1  UNL     1      14.286  16.433  29.571  1.00  0.00    -0.388 OA
HETATM   16  C10 UNL     1      14.006  17.719  29.987  1.00  0.00     0.179 C 
HETATM   17  C11 UNL     1      13.954  17.873  31.483  1.00  0.00     0.082 C 
HETATM   18  C17 UNL     1      15.350  17.562  31.978  1.00  0.00     0.158 C 
HETATM   19  O2  UNL     1      15.776  17.963  33.021  1.00  0.00    -0.295 OA
BRANCH  17  20
HETATM   20  C12 UNL     1      13.578  19.285  31.812  1.00  0.00     0.020 C 
BRANCH  20  21
HETATM   21  C13 UNL     1      13.685  20.255  30.684  1.00  0.00     0.059 C 
BRANCH  21  22
HETATM   22  C14 UNL     1      14.864  21.126  30.947  1.00  0.00     0.025 A 
HETATM   23  C15 UNL     1      14.927  22.506  30.774  1.00  0.00     0.113 A 
HETATM   24  N6  UNL     1      16.168  22.948  31.119  1.00  0.00    -0.360 N 
HETATM   25  C16 UNL     1      16.865  21.869  31.499  1.00  0.00     0.180 A 
ATOM     26  H6  UNL     1      16.501  23.911  31.093  1.00  0.00     0.166 HD
HETATM   27  N7  UNL     1      16.085  20.782  31.396  1.00  0.00    -0.355 N 
ATOM     28  H7  UNL     1      16.375  19.832  31.625  1.00  0.00     0.166 HD
ENDBRANCH  21  22
ENDBRANCH  20  21
ENDBRANCH  17  20
ENDBRANCH   9  13
BRANCH   4  29
HETATM   29  N3  UNL     1      20.591  13.885  33.550  1.00  0.00    -0.383 N 
ATOM     30  H32 UNL     1      21.195  14.087  32.753  1.00  0.00     0.157 HD
ATOM     31  H31 UNL     1      21.012  13.564  34.422  1.00  0.00     0.157 HD
ENDBRANCH   4  29
BRANCH   1  32
HETATM   32  N1  UNL     1      16.224  12.831  34.534  1.00  0.00    -0.226 N 
ATOM     33  H1  UNL     1      16.527  12.002  35.046  1.00  0.00     0.177 HD
BRANCH  32  34
HETATM   34  C3  UNL     1      14.848  13.165  34.553  1.00  0.00     0.142 C 
BRANCH  34  35
HETATM   35  C2  UNL     1      14.142  12.719  35.822  1.00  0.00     0.000 C 
HETATM   36  C1  UNL     1      12.667  13.067  35.774  1.00  0.00     0.011 C 
BRANCH  35  37
HETATM   37  C19 UNL     1      14.813  13.421  36.985  1.00  0.00     0.010 C 
BRANCH  37  38
HETATM   38  C20 UNL     1      13.961  13.359  38.233  1.00  0.00    -0.014 C 
HETATM   39  C21 UNL     1      13.890  11.977  38.825  1.00  0.00     0.005 C 
HETATM   40  C22 UNL     1      13.295  12.287  40.200  1.00  0.00     0.000 C 
HETATM   41  C23 UNL     1      13.904  13.635  40.582  1.00  0.00     0.000 C 
HETATM   42  C24 UNL     1      14.647  14.120  39.351  1.00  0.00     0.005 C 
ENDBRANCH  37  38
ENDBRANCH  35  37
ENDBRANCH  34  35
ENDBRANCH  32  34
ENDBRANCH   1  32
TORSDOF 10
ENDMDL
MODEL 5
REMARK VINA RESULT: -9.728153288      1.448      2.590
REMARK  10 active torsions:
REMARK  status: ('A' for Active; 'I' for Inactive)
REMARK    1  A    between atoms: C2_2  and  C3_3 
REMARK    2  A    between atoms: C2_2  and  C19_37 
REMARK    3  A    between atoms: C3_3  and  N1_4 
REMARK    4  A    between atoms: N1_4  and  C4_6 
REMARK    5  A    between atoms: C5_9  and  N3_10 
REMARK    6  A    between atoms: N5_17  and  C8_18 
REMARK    7  A    between atoms: C11_22  and  C12_23 
REMARK    8  A    between atoms: C12_23  and  C13_24 
REMARK    9  A    between atoms: C13_24  and  C14_25 
REMARK   10  A    between atoms: C19_37  and  C20_38 
ROOT
HETATM    1  C4  UNL     1      17.678  14.487  33.829  1.00  0.00     0.681 A 
HETATM    2  N2  UNL     1      18.959  14.138  33.671  1.00  0.00    -0.175 N 
ATOM      3  H2  UNL     1      19.386  13.501  34.344  1.00  0.00     0.186 HD
HETATM    4  C5  UNL     1      19.702  14.602  32.651  1.00  0.00     0.145 A 
HETATM    5  C6  UNL     1      19.126  15.464  31.740  1.00  0.00     0.123 A 
HETATM    6  N4  UNL     1      19.568  16.093  30.639  1.00  0.00    -0.346 N 
ATOM      7  H4  UNL     1      20.505  16.043  30.238  1.00  0.00     0.167 HD
HETATM    8  C7  UNL     1      18.541  16.791  30.177  1.00  0.00     0.186 A 
HETATM    9  N5  UNL     1      17.443  16.642  30.939  1.00  0.00    -0.313 N 
HETATM   10  C18 UNL     1      17.804  15.802  31.932  1.00  0.00     0.155 A 
HETATM   11  N8  UNL     1      17.076  15.333  32.951  1.00  0.00    -0.174 N 
ATOM     12  H8  UNL     1      16.098  15.603  33.067  1.00  0.00     0.186 HD
ENDROOT
BRANCH   9  13
HETATM   13  C8  UNL     1      16.203  17.248  30.694  1.00  0.00     0.186 C 
HETATM   14  C9  UNL     1      14.988  16.386  30.769  1.00  0.00     0.201 C 
HETATM   15  O1  UNL     1      13.979  16.978  30.012  1.00  0.00    -0.388 OA
HETATM   16  C10 UNL     1      13.986  18.356  30.075  1.00  0.00     0.179 C 
HETATM   17  C11 UNL     1      14.459  18.899  31.396  1.00  0.00     0.082 C 
HETATM   18  C17 UNL     1      15.901  18.461  31.530  1.00  0.00     0.158 C 
HETATM   19  O2  UNL     1      16.692  19.028  32.225  1.00  0.00    -0.295 OA
BRANCH  17  20
HETATM   20  C12 UNL     1      14.359  20.394  31.370  1.00  0.00     0.020 C 
BRANCH  20  21
HETATM   21  C13 UNL     1      13.472  20.956  30.312  1.00  0.00     0.059 C 
BRANCH  21  22
HETATM   22  C14 UNL     1      14.332  21.702  29.351  1.00  0.00     0.025 A 
HETATM   23  C15 UNL     1      14.893  22.961  29.550  1.00  0.00     0.113 A 
HETATM   24  N6  UNL     1      15.615  23.312  28.450  1.00  0.00    -0.360 N 
HETATM   25  C16 UNL     1      15.509  22.295  27.584  1.00  0.00     0.180 A 
ATOM     26  H6  UNL     1      16.135  24.178  28.313  1.00  0.00     0.166 HD
HETATM   27  N7  UNL     1      14.742  21.335  28.124  1.00  0.00    -0.355 N 
ATOM     28  H7  UNL     1      14.505  20.454  27.669  1.00  0.00     0.166 HD
ENDBRANCH  21  22
ENDBRANCH  20  21
ENDBRANCH  17  20
ENDBRANCH   9  13
BRANCH   4  29
HETATM   29  N3  UNL     1      20.937  14.279  32.484  1.00  0.00    -0.383 N 
ATOM     30  H32 UNL     1      21.404  13.759  33.228  1.00  0.00     0.157 HD
ATOM     31  H31 UNL     1      21.463  14.519  31.643  1.00  0.00     0.157 HD
ENDBRANCH   4  29
BRANCH   1  32
HETATM   32  N1  UNL     1      16.959  14.063  34.781  1.00  0.00    -0.226 N 
ATOM     33  H1  UNL     1      16.947  14.597  35.650  1.00  0.00     0.177 HD
BRANCH  32  34
HETATM   34  C3  UNL     1      16.172  12.888  34.704  1.00  0.00     0.142 C 
BRANCH  34  35
HETATM   35  C2  UNL     1      14.902  12.965  35.535  1.00  0.00     0.000 C 
HETATM   36  C1  UNL     1      13.820  13.733  34.801  1.00  0.00     0.011 C 
BRANCH  35  37
HETATM   37  C19 UNL     1      15.253  13.658  36.836  1.00  0.00     0.010 C 
BRANCH  37  38
HETATM   38  C20 UNL     1      14.158  13.486  37.865  1.00  0.00    -0.014 C 
HETATM   39  C21 UNL     1      13.878  12.043  38.187  1.00  0.00     0.005 C 
HETATM   40  C22 UNL     1      13.032  12.192  39.452  1.00  0.00     0.000 C 
HETATM   41  C23 UNL     1      13.632  13.400  40.170  1.00  0.00     0.000 C 
HETATM   42  C24 UNL     1      14.644  13.995  39.208  1.00  0.00     0.005 C 
ENDBRANCH  37  38
ENDBRANCH  35  37
ENDBRANCH  34  35
ENDBRANCH  32  34
ENDBRANCH   1  32
TORSDOF 10
ENDMDL
