MODEL 1
REMARK VINA RESULT: -8.401831909      0.000      0.000
REMARK  13 active torsions:
REMARK  status: ('A' for Active; 'I' for Inactive)
REMARK    1  A    between atoms: C2_2  and  C3_3 
REMARK    2  A    between atoms: C3_3  and  C4_4 
REMARK    3  A    between atoms: C4_4  and  O1_5 
REMARK    4  A    between atoms: C8_10  and  O2_11 
REMARK    5  A    between atoms: C10_14  and  C11_15 
REMARK    6  A    between atoms: C11_15  and  C12_16 
REMARK    7  A    between atoms: C12_16  and  C13_17 
REMARK    8  A    between atoms: C13_17  and  C14_18 
REMARK    9  A    between atoms: C14_18  and  C15_19 
REMARK   10  A    between atoms: C15_19  and  C16_20 
REMARK   11  A    between atoms: C16_20  and  O3_21 
REMARK   12  A    between atoms: C23_30  and  O5_31 
REMARK   13  A    between atoms: C23_30  and  C24_33 
ROOT
HETATM    1  C3  UNL     1      18.259  15.660  32.773  1.00  0.00     0.103 C 
HETATM    2  C5  UNL     1      18.809  16.860  32.064  1.00  0.00     0.083 C 
HETATM    3  C6  UNL     1      17.781  17.969  31.903  1.00  0.00    -0.042 A 
HETATM    4  C7  UNL     1      18.425  19.072  32.423  1.00  0.00     0.044 A 
HETATM    5  C8  UNL     1      17.792  20.281  32.395  1.00  0.00     0.066 A 
HETATM    6  C9  UNL     1      16.531  20.414  31.856  1.00  0.00     0.044 A 
HETATM    7  C10 UNL     1      15.898  19.267  31.334  1.00  0.00    -0.046 A 
HETATM    8  C17 UNL     1      16.502  18.046  31.349  1.00  0.00    -0.010 A 
HETATM    9  C18 UNL     1      15.546  17.140  30.705  1.00  0.00     0.100 A 
HETATM   10  C19 UNL     1      16.350  16.373  29.694  1.00  0.00     0.059 A 
HETATM   11  C20 UNL     1      15.866  15.630  30.811  1.00  0.00     0.024 A 
HETATM   12  C21 UNL     1      14.871  14.631  30.185  1.00  0.00     0.022 C 
HETATM   13  C22 UNL     1      15.995  15.404  32.207  1.00  0.00     0.178 C 
HETATM   14  O4  UNL     1      16.957  15.911  32.978  1.00  0.00    -0.364 OA
HETATM   15  C23 UNL     1      14.679  15.850  32.900  1.00  0.00     0.165 C 
HETATM   16  C26 UNL     1      13.690  16.342  31.917  1.00  0.00     0.217 C 
HETATM   17  O7  UNL     1      14.233  17.087  30.873  1.00  0.00    -0.371 OA
ENDROOT
BRANCH   7  18
HETATM   18  C11 UNL     1      14.545  19.539  30.757  1.00  0.00     0.039 C 
BRANCH  18  19
HETATM   19  C12 UNL     1      14.172  21.029  30.917  1.00  0.00     0.005 C 
BRANCH  19  20
HETATM   20  C13 UNL     1      13.632  21.549  29.578  1.00  0.00     0.000 C 
BRANCH  20  21
HETATM   21  C14 UNL     1      14.645  21.315  28.481  1.00  0.00     0.002 C 
BRANCH  21  22
HETATM   22  C15 UNL     1      15.613  22.454  28.307  1.00  0.00     0.026 C 
BRANCH  22  23
HETATM   23  C16 UNL     1      15.270  23.263  27.055  1.00  0.00     0.164 C 
BRANCH  23  24
HETATM   24  O3  UNL     1      15.986  24.478  27.095  1.00  0.00    -0.401 OA
ATOM     25  H3  UNL     1      15.951  24.878  26.233  1.00  0.00     0.209 HD
ENDBRANCH  23  24
ENDBRANCH  22  23
ENDBRANCH  21  22
ENDBRANCH  20  21
ENDBRANCH  19  20
ENDBRANCH  18  19
ENDBRANCH   7  18
BRANCH   5  26
HETATM   26  O2  UNL     1      18.413  21.442  32.917  1.00  0.00    -0.361 OA
ATOM     27  H2  UNL     1      19.353  21.564  32.853  1.00  0.00     0.217 HD
ENDBRANCH   5  26
BRANCH   1  28
HETATM   28  C2  UNL     1      18.603  14.408  32.056  1.00  0.00     0.003 C 
HETATM   29  C1  UNL     1      19.719  14.365  31.353  1.00  0.00     0.010 C 
ENDBRANCH   1  28
BRANCH   1  30
HETATM   30  C4  UNL     1      18.885  15.528  34.179  1.00  0.00     0.206 C 
BRANCH  30  31
HETATM   31  O1  UNL     1      18.061  14.807  35.013  1.00  0.00    -0.398 OA
ATOM     32  H1  UNL     1      18.474  13.990  35.269  1.00  0.00     0.209 HD
ENDBRANCH  30  31
ENDBRANCH   1  30
BRANCH  15  33
HETATM   33  O5  UNL     1      14.963  16.906  33.821  1.00  0.00    -0.377 OA
ATOM     34  H5  UNL     1      14.320  17.597  33.717  1.00  0.00     0.211 HD
ENDBRANCH  15  33
BRANCH  15  35
HETATM   35  C24 UNL     1      14.069  14.803  33.739  1.00  0.00     0.162 C 
HETATM   36  C25 UNL     1      12.851  14.048  33.197  1.00  0.00     0.094 C 
HETATM   37  O6  UNL     1      14.412  14.443  34.843  1.00  0.00    -0.295 OA
ENDBRANCH  15  35
TORSDOF 13
ENDMDL
MODEL 2
REMARK VINA RESULT: -8.232976590      1.614      1.911
REMARK  13 active torsions:
REMARK  status: ('A' for Active; 'I' for Inactive)
REMARK    1  A    between atoms: C2_2  and  C3_3 
REMARK    2  A    between atoms: C3_3  and  C4_4 
REMARK    3  A    between atoms: C4_4  and  O1_5 
REMARK    4  A    between atoms: C8_10  and  O2_11 
REMARK    5  A    between atoms: C10_14  and  C11_15 
REMARK    6  A    between atoms: C11_15  and  C12_16 
REMARK    7  A    between atoms: C12_16  and  C13_17 
REMARK    8  A    between atoms: C13_17  and  C14_18 
REMARK    9  A    between atoms: C14_18  and  C15_19 
REMARK   10  A    between atoms: C15_19  and  C16_20 
REMARK   11  A    between atoms: C16_20  and  O3_21 
REMARK   12  A    between atoms: C23_30  and  O5_31 
REMARK   13  A    between atoms: C23_30  and  C24_33 
ROOT
HETATM    1  C3  UNL     1      17.964  15.294  32.865  1.00  0.00     0.103 C 
HETATM    2  C5  UNL     1      18.702  16.531  32.454  1.00  0.00     0.083 C 
HETATM    3  C6  UNL     1      17.813  17.764  32.424  1.00  0.00    -0.042 A 
HETATM    4  C7  UNL     1      18.503  18.669  33.203  1.00  0.00     0.044 A 
HETATM    5  C8  UNL     1      17.999  19.928  33.356  1.00  0.00     0.066 A 
HETATM    6  C9  UNL     1      16.823  20.305  32.746  1.00  0.00     0.044 A 
HETATM    7  C10 UNL     1      16.139  19.357  31.957  1.00  0.00    -0.046 A 
HETATM    8  C17 UNL     1      16.615  18.092  31.787  1.00  0.00    -0.010 A 
HETATM    9  C18 UNL     1      15.648  17.438  30.898  1.00  0.00     0.100 A 
HETATM   10  C19 UNL     1      16.477  16.782  29.831  1.00  0.00     0.059 A 
HETATM   11  C20 UNL     1      15.804  15.907  30.736  1.00  0.00     0.024 A 
HETATM   12  C21 UNL     1      14.788  15.165  29.843  1.00  0.00     0.022 C 
HETATM   13  C22 UNL     1      15.759  15.415  32.066  1.00  0.00     0.178 C 
HETATM   14  O4  UNL     1      16.678  15.654  33.002  1.00  0.00    -0.364 OA
HETATM   15  C23 UNL     1      14.427  15.877  32.716  1.00  0.00     0.165 C 
HETATM   16  C26 UNL     1      13.603  16.655  31.767  1.00  0.00     0.217 C 
HETATM   17  O7  UNL     1      14.325  17.510  30.938  1.00  0.00    -0.371 OA
ENDROOT
BRANCH   7  18
HETATM   18  C11 UNL     1      14.890  19.887  31.331  1.00  0.00     0.039 C 
BRANCH  18  19
HETATM   19  C12 UNL     1      15.035  21.391  31.009  1.00  0.00     0.005 C 
BRANCH  19  20
HETATM   20  C13 UNL     1      15.162  21.561  29.489  1.00  0.00     0.000 C 
BRANCH  20  21
HETATM   21  C14 UNL     1      14.555  20.373  28.780  1.00  0.00     0.002 C 
BRANCH  21  22
HETATM   22  C15 UNL     1      13.056  20.454  28.652  1.00  0.00     0.026 C 
BRANCH  22  23
HETATM   23  C16 UNL     1      12.461  19.060  28.447  1.00  0.00     0.164 C 
BRANCH  23  24
HETATM   24  O3  UNL     1      11.269  19.185  27.702  1.00  0.00    -0.401 OA
ATOM     25  H3  UNL     1      11.466  19.640  26.891  1.00  0.00     0.209 HD
ENDBRANCH  23  24
ENDBRANCH  22  23
ENDBRANCH  21  22
ENDBRANCH  20  21
ENDBRANCH  19  20
ENDBRANCH  18  19
ENDBRANCH   7  18
BRANCH   5  26
HETATM   26  O2  UNL     1      18.673  20.892  34.146  1.00  0.00    -0.361 OA
ATOM     27  H2  UNL     1      18.276  21.734  34.332  1.00  0.00     0.217 HD
ENDBRANCH   5  26
BRANCH   1  28
HETATM   28  C2  UNL     1      18.257  14.164  31.950  1.00  0.00     0.003 C 
HETATM   29  C1  UNL     1      17.761  12.974  32.231  1.00  0.00     0.010 C 
ENDBRANCH   1  28
BRANCH   1  30
HETATM   30  C4  UNL     1      18.419  14.833  34.267  1.00  0.00     0.206 C 
BRANCH  30  31
HETATM   31  O1  UNL     1      17.346  14.753  35.126  1.00  0.00    -0.398 OA
ATOM     32  H1  UNL     1      17.551  14.197  35.868  1.00  0.00     0.209 HD
ENDBRANCH  30  31
ENDBRANCH   1  30
BRANCH  15  33
HETATM   33  O5  UNL     1      14.714  16.704  33.847  1.00  0.00    -0.377 OA
ATOM     34  H5  UNL     1      13.916  17.130  34.136  1.00  0.00     0.211 HD
ENDBRANCH  15  33
BRANCH  15  35
HETATM   35  C24 UNL     1      13.630  14.772  33.279  1.00  0.00     0.162 C 
HETATM   36  C25 UNL     1      13.993  14.243  34.670  1.00  0.00     0.094 C 
HETATM   37  O6  UNL     1      12.690  14.201  32.771  1.00  0.00    -0.295 OA
ENDBRANCH  15  35
TORSDOF 13
ENDMDL
MODEL 3
REMARK VINA RESULT: -8.012940300      6.282      9.724
REMARK  13 active torsions:
REMARK  status: ('A' for Active; 'I' for Inactive)
REMARK    1  A    between atoms: C2_2  and  C3_3 
REMARK    2  A    between atoms: C3_3  and  C4_4 
REMARK    3  A    between atoms: C4_4  and  O1_5 
REMARK    4  A    between atoms: C8_10  and  O2_11 
REMARK    5  A    between atoms: C10_14  and  C11_15 
REMARK    6  A    between atoms: C11_15  and  C12_16 
REMARK    7  A    between atoms: C12_16  and  C13_17 
REMARK    8  A    between atoms: C13_17  and  C14_18 
REMARK    9  A    between atoms: C14_18  and  C15_19 
REMARK   10  A    between atoms: C15_19  and  C16_20 
REMARK   11  A    between atoms: C16_20  and  O3_21 
REMARK   12  A    between atoms: C23_30  and  O5_31 
REMARK   13  A    between atoms: C23_30  and  C24_33 
ROOT
HETATM    1  C3  UNL     1      10.414  11.662  39.702  1.00  0.00     0.103 C 
HETATM    2  C5  UNL     1      11.779  11.759  40.311  1.00  0.00     0.083 C 
HETATM    3  C6  UNL     1      12.795  12.400  39.377  1.00  0.00    -0.042 A 
HETATM    4  C7  UNL     1      13.339  13.406  40.147  1.00  0.00     0.044 A 
HETATM    5  C8  UNL     1      14.340  14.171  39.624  1.00  0.00     0.066 A 
HETATM    6  C9  UNL     1      14.813  13.951  38.348  1.00  0.00     0.044 A 
HETATM    7  C10 UNL     1      14.236  12.916  37.585  1.00  0.00    -0.046 A 
HETATM    8  C17 UNL     1      13.233  12.137  38.079  1.00  0.00    -0.010 A 
HETATM    9  C18 UNL     1      12.932  11.181  37.008  1.00  0.00     0.100 A 
HETATM   10  C19 UNL     1      12.904   9.836  37.677  1.00  0.00     0.059 A 
HETATM   11  C20 UNL     1      11.654  10.330  37.199  1.00  0.00     0.024 A 
HETATM   12  C21 UNL     1      11.269   9.337  36.082  1.00  0.00     0.022 C 
HETATM   13  C22 UNL     1      10.627  11.292  37.393  1.00  0.00     0.178 C 
HETATM   14  O4  UNL     1      10.534  12.109  38.442  1.00  0.00    -0.364 OA
HETATM   15  C23 UNL     1      10.609  12.244  36.168  1.00  0.00     0.165 C 
HETATM   16  C26 UNL     1      11.627  11.859  35.167  1.00  0.00     0.217 C 
HETATM   17  O7  UNL     1      12.832  11.418  35.708  1.00  0.00    -0.371 OA
ENDROOT
BRANCH   7  18
HETATM   18  C11 UNL     1      14.845  12.759  36.229  1.00  0.00     0.039 C 
BRANCH  18  19
HETATM   19  C12 UNL     1      15.142  14.139  35.600  1.00  0.00     0.005 C 
BRANCH  19  20
HETATM   20  C13 UNL     1      16.581  14.137  35.066  1.00  0.00     0.000 C 
BRANCH  20  21
HETATM   21  C14 UNL     1      16.780  12.987  34.106  1.00  0.00     0.002 C 
BRANCH  21  22
HETATM   22  C15 UNL     1      18.025  13.115  33.268  1.00  0.00     0.026 C 
BRANCH  22  23
HETATM   23  C16 UNL     1      18.951  14.187  33.846  1.00  0.00     0.164 C 
BRANCH  23  24
HETATM   24  O3  UNL     1      20.277  13.884  33.471  1.00  0.00    -0.401 OA
ATOM     25  H3  UNL     1      20.818  14.649  33.628  1.00  0.00     0.209 HD
ENDBRANCH  23  24
ENDBRANCH  22  23
ENDBRANCH  21  22
ENDBRANCH  20  21
ENDBRANCH  19  20
ENDBRANCH  18  19
ENDBRANCH   7  18
BRANCH   5  26
HETATM   26  O2  UNL     1      14.930  15.216  40.376  1.00  0.00    -0.361 OA
ATOM     27  H2  UNL     1      14.503  16.061  40.458  1.00  0.00     0.217 HD
ENDBRANCH   5  26
BRANCH   1  28
HETATM   28  C2  UNL     1       9.838  10.308  39.889  1.00  0.00     0.003 C 
HETATM   29  C1  UNL     1      10.400   9.494  40.762  1.00  0.00     0.010 C 
ENDBRANCH   1  28
BRANCH   1  30
HETATM   30  C4  UNL     1       9.440  12.637  40.399  1.00  0.00     0.206 C 
BRANCH  30  31
HETATM   31  O1  UNL     1       9.420  13.852  39.753  1.00  0.00    -0.398 OA
ATOM     32  H1  UNL     1       8.549  14.045  39.427  1.00  0.00     0.209 HD
ENDBRANCH  30  31
ENDBRANCH   1  30
BRANCH  15  33
HETATM   33  O5  UNL     1      10.885  13.579  36.600  1.00  0.00    -0.377 OA
ATOM     34  H5  UNL     1      10.677  14.187  35.901  1.00  0.00     0.211 HD
ENDBRANCH  15  33
BRANCH  15  35
HETATM   35  C24 UNL     1       9.288  12.348  35.520  1.00  0.00     0.162 C 
HETATM   36  C25 UNL     1       8.277  13.355  36.078  1.00  0.00     0.094 C 
HETATM   37  O6  UNL     1       8.876  11.720  34.570  1.00  0.00    -0.295 OA
ENDBRANCH  15  35
TORSDOF 13
ENDMDL
MODEL 4
REMARK VINA RESULT: -7.993255243      1.278      1.472
REMARK  13 active torsions:
REMARK  status: ('A' for Active; 'I' for Inactive)
REMARK    1  A    between atoms: C2_2  and  C3_3 
REMARK    2  A    between atoms: C3_3  and  C4_4 
REMARK    3  A    between atoms: C4_4  and  O1_5 
REMARK    4  A    between atoms: C8_10  and  O2_11 
REMARK    5  A    between atoms: C10_14  and  C11_15 
REMARK    6  A    between atoms: C11_15  and  C12_16 
REMARK    7  A    between atoms: C12_16  and  C13_17 
REMARK    8  A    between atoms: C13_17  and  C14_18 
REMARK    9  A    between atoms: C14_18  and  C15_19 
REMARK   10  A    between atoms: C15_19  and  C16_20 
REMARK   11  A    between atoms: C16_20  and  O3_21 
REMARK   12  A    between atoms: C23_30  and  O5_31 
REMARK   13  A    between atoms: C23_30  and  C24_33 
ROOT
HETATM    1  C3  UNL     1      18.286  16.064  32.398  1.00  0.00     0.103 C 
HETATM    2  C5  UNL     1      18.297  17.271  31.511  1.00  0.00     0.083 C 
HETATM    3  C6  UNL     1      16.987  18.043  31.552  1.00  0.00    -0.042 A 
HETATM    4  C7  UNL     1      17.391  19.331  31.835  1.00  0.00     0.044 A 
HETATM    5  C8  UNL     1      16.451  20.319  31.900  1.00  0.00     0.066 A 
HETATM    6  C9  UNL     1      15.116  20.048  31.688  1.00  0.00     0.044 A 
HETATM    7  C10 UNL     1      14.735  18.721  31.404  1.00  0.00    -0.046 A 
HETATM    8  C17 UNL     1      15.649  17.713  31.333  1.00  0.00    -0.010 A 
HETATM    9  C18 UNL     1      14.871  16.516  30.998  1.00  0.00     0.100 A 
HETATM   10  C19 UNL     1      15.611  15.871  29.861  1.00  0.00     0.059 A 
HETATM   11  C20 UNL     1      15.623  15.168  31.103  1.00  0.00     0.024 A 
HETATM   12  C21 UNL     1      14.839  13.874  30.800  1.00  0.00     0.022 C 
HETATM   13  C22 UNL     1      16.121  15.155  32.432  1.00  0.00     0.178 C 
HETATM   14  O4  UNL     1      17.048  15.986  32.909  1.00  0.00    -0.364 OA
HETATM   15  C23 UNL     1      14.925  15.320  33.407  1.00  0.00     0.165 C 
HETATM   16  C26 UNL     1      13.642  15.412  32.678  1.00  0.00     0.217 C 
HETATM   17  O7  UNL     1      13.700  16.140  31.493  1.00  0.00    -0.371 OA
ENDROOT
BRANCH   7  18
HETATM   18  C11 UNL     1      13.268  18.555  31.171  1.00  0.00     0.039 C 
BRANCH  18  19
HETATM   19  C12 UNL     1      12.710  19.731  30.339  1.00  0.00     0.005 C 
BRANCH  19  20
HETATM   20  C13 UNL     1      13.088  19.517  28.867  1.00  0.00     0.000 C 
BRANCH  20  21
HETATM   21  C14 UNL     1      14.044  20.595  28.411  1.00  0.00     0.002 C 
BRANCH  21  22
HETATM   22  C15 UNL     1      13.817  21.921  29.088  1.00  0.00     0.026 C 
BRANCH  22  23
HETATM   23  C16 UNL     1      15.134  22.687  29.219  1.00  0.00     0.164 C 
BRANCH  23  24
HETATM   24  O3  UNL     1      15.071  23.494  30.375  1.00  0.00    -0.401 OA
ATOM     25  H3  UNL     1      15.811  24.090  30.368  1.00  0.00     0.209 HD
ENDBRANCH  23  24
ENDBRANCH  22  23
ENDBRANCH  21  22
ENDBRANCH  20  21
ENDBRANCH  19  20
ENDBRANCH  18  19
ENDBRANCH   7  18
BRANCH   5  26
HETATM   26  O2  UNL     1      16.817  21.656  32.187  1.00  0.00    -0.361 OA
ATOM     27  H2  UNL     1      16.290  22.194  32.767  1.00  0.00     0.217 HD
ENDBRANCH   5  26
BRANCH   1  28
HETATM   28  C2  UNL     1      18.801  14.869  31.686  1.00  0.00     0.003 C 
HETATM   29  C1  UNL     1      19.994  14.930  31.125  1.00  0.00     0.010 C 
ENDBRANCH   1  28
BRANCH   1  30
HETATM   30  C4  UNL     1      19.224  16.273  33.608  1.00  0.00     0.206 C 
BRANCH  30  31
HETATM   31  O1  UNL     1      19.006  15.309  34.565  1.00  0.00    -0.398 OA
ATOM     32  H1  UNL     1      19.033  15.688  35.436  1.00  0.00     0.209 HD
ENDBRANCH  30  31
ENDBRANCH   1  30
BRANCH  15  33
HETATM   33  O5  UNL     1      15.097  16.517  34.170  1.00  0.00    -0.377 OA
ATOM     34  H5  UNL     1      14.505  16.506  34.912  1.00  0.00     0.211 HD
ENDBRANCH  15  33
BRANCH  15  35
HETATM   35  C24 UNL     1      14.844  14.259  34.427  1.00  0.00     0.162 C 
HETATM   36  C25 UNL     1      15.926  13.175  34.443  1.00  0.00     0.094 C 
HETATM   37  O6  UNL     1      14.004  14.121  35.289  1.00  0.00    -0.295 OA
ENDBRANCH  15  35
TORSDOF 13
ENDMDL
MODEL 5
REMARK VINA RESULT: -7.958342141      1.799      2.104
REMARK  13 active torsions:
REMARK  status: ('A' for Active; 'I' for Inactive)
REMARK    1  A    between atoms: C2_2  and  C3_3 
REMARK    2  A    between atoms: C3_3  and  C4_4 
REMARK    3  A    between atoms: C4_4  and  O1_5 
REMARK    4  A    between atoms: C8_10  and  O2_11 
REMARK    5  A    between atoms: C10_14  and  C11_15 
REMARK    6  A    between atoms: C11_15  and  C12_16 
REMARK    7  A    between atoms: C12_16  and  C13_17 
REMARK    8  A    between atoms: C13_17  and  C14_18 
REMARK    9  A    between atoms: C14_18  and  C15_19 
REMARK   10  A    between atoms: C15_19  and  C16_20 
REMARK   11  A    between atoms: C16_20  and  O3_21 
REMARK   12  A    between atoms: C23_30  and  O5_31 
REMARK   13  A    between atoms: C23_30  and  C24_33 
ROOT
HETATM    1  C3  UNL     1      18.199  15.170  32.935  1.00  0.00     0.103 C 
HETATM    2  C5  UNL     1      18.531  16.336  32.055  1.00  0.00     0.083 C 
HETATM    3  C6  UNL     1      17.467  17.423  32.092  1.00  0.00    -0.042 A 
HETATM    4  C7  UNL     1      18.190  18.560  32.385  1.00  0.00     0.044 A 
HETATM    5  C8  UNL     1      17.539  19.758  32.449  1.00  0.00     0.066 A 
HETATM    6  C9  UNL     1      16.182  19.845  32.226  1.00  0.00     0.044 A 
HETATM    7  C10 UNL     1      15.470  18.664  31.931  1.00  0.00    -0.046 A 
HETATM    8  C17 UNL     1      16.092  17.454  31.861  1.00  0.00    -0.010 A 
HETATM    9  C18 UNL     1      15.031  16.502  31.514  1.00  0.00     0.100 A 
HETATM   10  C19 UNL     1      15.587  15.691  30.379  1.00  0.00     0.059 A 
HETATM   11  C20 UNL     1      15.405  15.004  31.616  1.00  0.00     0.024 A 
HETATM   12  C21 UNL     1      14.313  13.960  31.300  1.00  0.00     0.022 C 
HETATM   13  C22 UNL     1      15.872  14.857  32.948  1.00  0.00     0.178 C 
HETATM   14  O4  UNL     1      16.979  15.416  33.437  1.00  0.00    -0.364 OA
HETATM   15  C23 UNL     1      14.751  15.324  33.916  1.00  0.00     0.165 C 
HETATM   16  C26 UNL     1      13.543  15.750  33.179  1.00  0.00     0.217 C 
HETATM   17  O7  UNL     1      13.798  16.442  31.998  1.00  0.00    -0.371 OA
ENDROOT
BRANCH   7  18
HETATM   18  C11 UNL     1      14.013  18.888  31.687  1.00  0.00     0.039 C 
BRANCH  18  19
HETATM   19  C12 UNL     1      13.674  20.394  31.739  1.00  0.00     0.005 C 
BRANCH  19  20
HETATM   20  C13 UNL     1      12.592  20.693  30.693  1.00  0.00     0.000 C 
BRANCH  20  21
HETATM   21  C14 UNL     1      13.224  21.217  29.424  1.00  0.00     0.002 C 
BRANCH  21  22
HETATM   22  C15 UNL     1      13.466  20.148  28.391  1.00  0.00     0.026 C 
BRANCH  22  23
HETATM   23  C16 UNL     1      12.434  19.028  28.527  1.00  0.00     0.164 C 
BRANCH  23  24
HETATM   24  O3  UNL     1      11.321  19.342  27.718  1.00  0.00    -0.401 OA
ATOM     25  H3  UNL     1      10.852  18.539  27.523  1.00  0.00     0.209 HD
ENDBRANCH  23  24
ENDBRANCH  22  23
ENDBRANCH  21  22
ENDBRANCH  20  21
ENDBRANCH  19  20
ENDBRANCH  18  19
ENDBRANCH   7  18
BRANCH   5  26
HETATM   26  O2  UNL     1      18.239  20.953  32.746  1.00  0.00    -0.361 OA
ATOM     27  H2  UNL     1      18.080  21.748  32.252  1.00  0.00     0.217 HD
ENDBRANCH   5  26
BRANCH   1  28
HETATM   28  C2  UNL     1      18.391  13.885  32.220  1.00  0.00     0.003 C 
HETATM   29  C1  UNL     1      17.835  12.795  32.714  1.00  0.00     0.010 C 
ENDBRANCH   1  28
BRANCH   1  30
HETATM   30  C4  UNL     1      19.148  15.124  34.153  1.00  0.00     0.206 C 
BRANCH  30  31
HETATM   31  O1  UNL     1      20.231  14.315  33.896  1.00  0.00    -0.398 OA
ATOM     32  H1  UNL     1      20.744  14.178  34.684  1.00  0.00     0.209 HD
ENDBRANCH  30  31
ENDBRANCH   1  30
BRANCH  15  33
HETATM   33  O5  UNL     1      15.223  16.432  34.687  1.00  0.00    -0.377 OA
ATOM     34  H5  UNL     1      16.006  16.177  35.159  1.00  0.00     0.211 HD
ENDBRANCH  15  33
BRANCH  15  35
HETATM   35  C24 UNL     1      14.388  14.317  34.930  1.00  0.00     0.162 C 
HETATM   36  C25 UNL     1      15.386  14.017  36.053  1.00  0.00     0.094 C 
HETATM   37  O6  UNL     1      13.368  13.668  34.998  1.00  0.00    -0.295 OA
ENDBRANCH  15  35
TORSDOF 13
ENDMDL
