MODEL 1
REMARK VINA RESULT: -8.629461366      0.000      0.000
REMARK  15 active torsions:
REMARK  status: ('A' for Active; 'I' for Inactive)
REMARK    1  A    between atoms: C2_2  and  C3_3 
REMARK    2  A    between atoms: C3_3  and  C5_5 
REMARK    3  A    between atoms: C5_5  and  C6_6 
REMARK    4  A    between atoms: C6_6  and  C7_7 
REMARK    5  A    between atoms: C7_7  and  O7_35 
REMARK    6  A    between atoms: C8_8  and  C9_9 
REMARK    7  A    between atoms: C10_10  and  C11_11 
REMARK    8  A    between atoms: C11_11  and  C12_12 
REMARK    9  A    between atoms: C12_12  and  C14_14 
REMARK   10  A    between atoms: C14_14  and  C20_21 
REMARK   11  A    between atoms: C21_23  and  O3_24 
REMARK   12  A    between atoms: C22_26  and  O4_27 
REMARK   13  A    between atoms: C23_29  and  O5_30 
REMARK   14  A    between atoms: C24_32  and  O6_33 
REMARK   15  A    between atoms: O7_35  and  C25_36 
ROOT
HETATM    1  C14 UNL     1      15.026  17.595  31.637  1.00  0.00     0.020 C 
HETATM    2  C15 UNL     1      16.396  17.488  31.686  1.00  0.00     0.002 C 
HETATM    3  C16 UNL     1      17.273  16.369  32.058  1.00  0.00     0.044 C 
HETATM    4  C17 UNL     1      18.622  16.768  31.394  1.00  0.00     0.012 C 
HETATM    5  C18 UNL     1      18.682  18.225  31.660  1.00  0.00     0.084 C 
HETATM    6  C19 UNL     1      17.245  18.678  31.655  1.00  0.00     0.156 C 
HETATM    7  O1  UNL     1      16.953  19.909  31.636  1.00  0.00    -0.293 OA
ENDROOT
BRANCH   1   8
HETATM    8  C12 UNL     1      14.353  16.379  32.062  1.00  0.00    -0.003 C 
HETATM    9  C13 UNL     1      14.509  16.916  33.840  1.00  0.00     0.059 C 
BRANCH   8  10
HETATM   10  C11 UNL     1      13.811  15.408  32.409  1.00  0.00    -0.120 C 
BRANCH  10  11
HETATM   11  C10 UNL     1      13.259  14.140  32.716  1.00  0.00     0.056 C 
HETATM   12  C9  UNL     1      13.033  13.471  33.790  1.00  0.00     0.011 C 
BRANCH  12  13
HETATM   13  C8  UNL     1      13.254  13.767  35.162  1.00  0.00     0.033 C 
HETATM   14  C7  UNL     1      14.411  13.593  35.833  1.00  0.00     0.056 C 
BRANCH  14  15
HETATM   15  C6  UNL     1      15.613  13.057  35.143  1.00  0.00     0.069 C 
BRANCH  15  16
HETATM   16  C5  UNL     1      16.735  14.024  34.870  1.00  0.00     0.044 C 
BRANCH  16  17
HETATM   17  C3  UNL     1      17.493  13.410  33.694  1.00  0.00    -0.068 C 
HETATM   18  C4  UNL     1      18.837  13.455  33.690  1.00  0.00     0.019 C 
BRANCH  17  19
HETATM   19  C2  UNL     1      16.822  12.679  32.671  1.00  0.00    -0.004 C 
HETATM   20  C1  UNL     1      16.358  13.116  31.512  1.00  0.00     0.012 C 
ENDBRANCH  17  19
ENDBRANCH  16  17
ENDBRANCH  15  16
ENDBRANCH  14  15
BRANCH  14  21
HETATM   21  O7  UNL     1      14.615  13.864  37.165  1.00  0.00    -0.290 OA
BRANCH  21  22
HETATM   22  C25 UNL     1      14.156  13.204  38.237  1.00  0.00     0.403 C 
HETATM   23  O8  UNL     1      14.191  13.611  39.397  1.00  0.00    -0.276 OA
ENDBRANCH  21  22
ENDBRANCH  14  21
ENDBRANCH  12  13
ENDBRANCH  10  11
ENDBRANCH   8  10
ENDBRANCH   1   8
BRANCH   1  24
HETATM   24  C20 UNL     1      14.381  18.588  30.794  1.00  0.00     0.093 C 
HETATM   25  O2  UNL     1      13.426  18.269  29.894  1.00  0.00    -0.319 OA
HETATM   26  C21 UNL     1      13.037  19.459  29.264  1.00  0.00     0.294 C 
HETATM   27  C22 UNL     1      12.010  20.097  30.142  1.00  0.00     0.205 C 
HETATM   28  C23 UNL     1      12.656  20.381  31.449  1.00  0.00     0.186 C 
HETATM   29  C24 UNL     1      14.025  19.838  31.614  1.00  0.00     0.207 C 
BRANCH  26  30
HETATM   30  O3  UNL     1      12.586  19.306  27.976  1.00  0.00    -0.368 OA
ATOM     31  H3  UNL     1      11.665  19.085  27.901  1.00  0.00     0.212 HD
ENDBRANCH  26  30
BRANCH  27  32
HETATM   32  O4  UNL     1      11.592  21.285  29.589  1.00  0.00    -0.388 OA
ATOM     33  H4  UNL     1      12.287  21.659  29.061  1.00  0.00     0.210 HD
ENDBRANCH  27  32
BRANCH  28  34
HETATM   34  O5  UNL     1      11.776  19.964  32.430  1.00  0.00    -0.390 OA
ATOM     35  H5  UNL     1      12.292  19.521  33.093  1.00  0.00     0.210 HD
ENDBRANCH  28  34
BRANCH  29  36
HETATM   36  O6  UNL     1      14.164  19.536  32.983  1.00  0.00    -0.386 OA
ATOM     37  H6  UNL     1      14.420  20.326  33.445  1.00  0.00     0.210 HD
ENDBRANCH  29  36
ENDBRANCH   1  24
TORSDOF 15
ENDMDL
MODEL 2
REMARK VINA RESULT: -8.459302818      2.125      5.205
REMARK  15 active torsions:
REMARK  status: ('A' for Active; 'I' for Inactive)
REMARK    1  A    between atoms: C2_2  and  C3_3 
REMARK    2  A    between atoms: C3_3  and  C5_5 
REMARK    3  A    between atoms: C5_5  and  C6_6 
REMARK    4  A    between atoms: C6_6  and  C7_7 
REMARK    5  A    between atoms: C7_7  and  O7_35 
REMARK    6  A    between atoms: C8_8  and  C9_9 
REMARK    7  A    between atoms: C10_10  and  C11_11 
REMARK    8  A    between atoms: C11_11  and  C12_12 
REMARK    9  A    between atoms: C12_12  and  C14_14 
REMARK   10  A    between atoms: C14_14  and  C20_21 
REMARK   11  A    between atoms: C21_23  and  O3_24 
REMARK   12  A    between atoms: C22_26  and  O4_27 
REMARK   13  A    between atoms: C23_29  and  O5_30 
REMARK   14  A    between atoms: C24_32  and  O6_33 
REMARK   15  A    between atoms: O7_35  and  C25_36 
ROOT
HETATM    1  C14 UNL     1      14.704  18.106  31.300  1.00  0.00     0.020 C 
HETATM    2  C15 UNL     1      13.744  19.064  31.074  1.00  0.00     0.002 C 
HETATM    3  C16 UNL     1      12.311  19.102  31.395  1.00  0.00     0.044 C 
HETATM    4  C17 UNL     1      11.997  20.624  31.339  1.00  0.00     0.012 C 
HETATM    5  C18 UNL     1      12.774  21.060  30.154  1.00  0.00     0.084 C 
HETATM    6  C19 UNL     1      13.979  20.155  30.129  1.00  0.00     0.156 C 
HETATM    7  O1  UNL     1      14.959  20.401  29.368  1.00  0.00    -0.293 OA
ENDROOT
BRANCH   1   8
HETATM    8  C12 UNL     1      14.170  16.919  31.948  1.00  0.00    -0.003 C 
HETATM    9  C13 UNL     1      14.301  17.766  33.603  1.00  0.00     0.059 C 
BRANCH   8  10
HETATM   10  C11 UNL     1      13.739  15.973  32.472  1.00  0.00    -0.120 C 
BRANCH  10  11
HETATM   11  C10 UNL     1      13.333  14.728  33.012  1.00  0.00     0.056 C 
HETATM   12  C9  UNL     1      13.911  13.615  33.294  1.00  0.00     0.011 C 
BRANCH  12  13
HETATM   13  C8  UNL     1      15.259  13.185  33.176  1.00  0.00     0.033 C 
HETATM   14  C7  UNL     1      16.154  13.096  34.183  1.00  0.00     0.056 C 
BRANCH  14  15
HETATM   15  C6  UNL     1      15.767  13.454  35.572  1.00  0.00     0.069 C 
BRANCH  15  16
HETATM   16  C5  UNL     1      15.083  12.389  36.390  1.00  0.00     0.044 C 
BRANCH  16  17
HETATM   17  C3  UNL     1      14.073  13.151  37.246  1.00  0.00    -0.068 C 
HETATM   18  C4  UNL     1      12.765  13.058  36.948  1.00  0.00     0.019 C 
BRANCH  17  19
HETATM   19  C2  UNL     1      14.466  13.849  38.424  1.00  0.00    -0.004 C 
HETATM   20  C1  UNL     1      14.170  13.576  39.684  1.00  0.00     0.012 C 
ENDBRANCH  17  19
ENDBRANCH  16  17
ENDBRANCH  15  16
ENDBRANCH  14  15
BRANCH  14  21
HETATM   21  O7  UNL     1      17.463  12.695  34.061  1.00  0.00    -0.290 OA
BRANCH  21  22
HETATM   22  C25 UNL     1      18.532  13.415  33.695  1.00  0.00     0.403 C 
HETATM   23  O8  UNL     1      18.660  14.629  33.841  1.00  0.00    -0.276 OA
ENDBRANCH  21  22
ENDBRANCH  14  21
ENDBRANCH  12  13
ENDBRANCH  10  11
ENDBRANCH   8  10
ENDBRANCH   1   8
BRANCH   1  24
HETATM   24  C20 UNL     1      16.114  18.455  31.355  1.00  0.00     0.093 C 
HETATM   25  O2  UNL     1      16.780  18.614  32.518  1.00  0.00    -0.319 OA
HETATM   26  C21 UNL     1      18.103  18.949  32.196  1.00  0.00     0.294 C 
HETATM   27  C22 UNL     1      18.825  17.664  31.949  1.00  0.00     0.205 C 
HETATM   28  C23 UNL     1      18.158  16.992  30.803  1.00  0.00     0.186 C 
HETATM   29  C24 UNL     1      16.910  17.634  30.327  1.00  0.00     0.207 C 
BRANCH  26  30
HETATM   30  O3  UNL     1      18.743  19.724  33.132  1.00  0.00    -0.368 OA
ATOM     31  H3  UNL     1      18.464  19.577  34.028  1.00  0.00     0.212 HD
ENDBRANCH  26  30
BRANCH  27  32
HETATM   32  O4  UNL     1      20.133  17.918  31.609  1.00  0.00    -0.388 OA
ATOM     33  H4  UNL     1      20.239  17.871  30.667  1.00  0.00     0.210 HD
ENDBRANCH  27  32
BRANCH  28  34
HETATM   34  O5  UNL     1      17.996  15.666  31.155  1.00  0.00    -0.390 OA
ATOM     35  H5  UNL     1      18.547  15.513  31.914  1.00  0.00     0.210 HD
ENDBRANCH  28  34
BRANCH  29  36
HETATM   36  O6  UNL     1      16.092  16.593  29.848  1.00  0.00    -0.386 OA
ATOM     37  H6  UNL     1      15.668  16.881  29.048  1.00  0.00     0.210 HD
ENDBRANCH  29  36
ENDBRANCH   1  24
TORSDOF 15
ENDMDL
MODEL 3
REMARK VINA RESULT: -8.413999425      2.666      7.749
REMARK  15 active torsions:
REMARK  status: ('A' for Active; 'I' for Inactive)
REMARK    1  A    between atoms: C2_2  and  C3_3 
REMARK    2  A    between atoms: C3_3  and  C5_5 
REMARK    3  A    between atoms: C5_5  and  C6_6 
REMARK    4  A    between atoms: C6_6  and  C7_7 
REMARK    5  A    between atoms: C7_7  and  O7_35 
REMARK    6  A    between atoms: C8_8  and  C9_9 
REMARK    7  A    between atoms: C10_10  and  C11_11 
REMARK    8  A    between atoms: C11_11  and  C12_12 
REMARK    9  A    between atoms: C12_12  and  C14_14 
REMARK   10  A    between atoms: C14_14  and  C20_21 
REMARK   11  A    between atoms: C21_23  and  O3_24 
REMARK   12  A    between atoms: C22_26  and  O4_27 
REMARK   13  A    between atoms: C23_29  and  O5_30 
REMARK   14  A    between atoms: C24_32  and  O6_33 
REMARK   15  A    between atoms: O7_35  and  C25_36 
ROOT
HETATM    1  C14 UNL     1      15.986  15.703  31.887  1.00  0.00     0.020 C 
HETATM    2  C15 UNL     1      17.250  16.034  31.460  1.00  0.00     0.002 C 
HETATM    3  C16 UNL     1      17.733  17.119  30.595  1.00  0.00     0.044 C 
HETATM    4  C17 UNL     1      19.241  17.197  30.968  1.00  0.00     0.012 C 
HETATM    5  C18 UNL     1      19.608  15.767  31.087  1.00  0.00     0.084 C 
HETATM    6  C19 UNL     1      18.358  15.087  31.581  1.00  0.00     0.156 C 
HETATM    7  O1  UNL     1      18.389  13.892  31.997  1.00  0.00    -0.293 OA
ENDROOT
BRANCH   1   8
HETATM    8  C12 UNL     1      14.963  16.583  31.347  1.00  0.00    -0.003 C 
HETATM    9  C13 UNL     1      15.007  15.643  29.738  1.00  0.00     0.059 C 
BRANCH   8  10
HETATM   10  C11 UNL     1      14.140  17.282  30.909  1.00  0.00    -0.120 C 
BRANCH  10  11
HETATM   11  C10 UNL     1      13.060  18.119  30.538  1.00  0.00     0.056 C 
HETATM   12  C9  UNL     1      12.888  19.086  29.709  1.00  0.00     0.011 C 
BRANCH  12  13
HETATM   13  C8  UNL     1      13.763  19.717  28.786  1.00  0.00     0.033 C 
HETATM   14  C7  UNL     1      14.242  20.975  28.881  1.00  0.00     0.056 C 
BRANCH  14  15
HETATM   15  C6  UNL     1      13.874  21.839  30.032  1.00  0.00     0.069 C 
BRANCH  15  16
HETATM   16  C5  UNL     1      14.229  21.337  31.408  1.00  0.00     0.044 C 
BRANCH  16  17
HETATM   17  C3  UNL     1      15.756  21.327  31.431  1.00  0.00    -0.068 C 
HETATM   18  C4  UNL     1      16.420  22.473  31.198  1.00  0.00     0.019 C 
BRANCH  17  19
HETATM   19  C2  UNL     1      16.491  20.170  31.821  1.00  0.00    -0.004 C 
HETATM   20  C1  UNL     1      17.473  20.072  32.701  1.00  0.00     0.012 C 
ENDBRANCH  17  19
ENDBRANCH  16  17
ENDBRANCH  15  16
ENDBRANCH  14  15
BRANCH  14  21
HETATM   21  O7  UNL     1      15.075  21.588  27.976  1.00  0.00    -0.290 OA
BRANCH  21  22
HETATM   22  C25 UNL     1      15.191  22.891  27.688  1.00  0.00     0.403 C 
HETATM   23  O8  UNL     1      16.238  23.472  27.409  1.00  0.00    -0.276 OA
ENDBRANCH  21  22
ENDBRANCH  14  21
ENDBRANCH  12  13
ENDBRANCH  10  11
ENDBRANCH   8  10
ENDBRANCH   1   8
BRANCH   1  24
HETATM   24  C20 UNL     1      15.783  14.925  33.098  1.00  0.00     0.093 C 
HETATM   25  O2  UNL     1      15.213  15.441  34.208  1.00  0.00    -0.319 OA
HETATM   26  C21 UNL     1      15.183  14.421  35.170  1.00  0.00     0.294 C 
HETATM   27  C22 UNL     1      13.954  13.613  34.904  1.00  0.00     0.205 C 
HETATM   28  C23 UNL     1      14.083  13.044  33.537  1.00  0.00     0.186 C 
HETATM   29  C24 UNL     1      15.243  13.527  32.753  1.00  0.00     0.207 C 
BRANCH  26  30
HETATM   30  O3  UNL     1      15.237  14.858  36.471  1.00  0.00    -0.368 OA
ATOM     31  H3  UNL     1      14.424  15.219  36.803  1.00  0.00     0.212 HD
ENDBRANCH  26  30
BRANCH  27  32
HETATM   32  O4  UNL     1      13.867  12.579  35.806  1.00  0.00    -0.388 OA
ATOM     33  H4  UNL     1      12.961  12.318  35.913  1.00  0.00     0.210 HD
ENDBRANCH  27  32
BRANCH  28  34
HETATM   34  O5  UNL     1      12.870  13.241  32.905  1.00  0.00    -0.390 OA
ATOM     35  H5  UNL     1      12.446  12.392  32.851  1.00  0.00     0.210 HD
ENDBRANCH  28  34
BRANCH  29  36
HETATM   36  O6  UNL     1      14.836  13.519  31.405  1.00  0.00    -0.386 OA
ATOM     37  H6  UNL     1      15.002  12.658  31.041  1.00  0.00     0.210 HD
ENDBRANCH  29  36
ENDBRANCH   1  24
TORSDOF 15
ENDMDL
MODEL 4
REMARK VINA RESULT: -8.333684802      1.506      4.184
REMARK  15 active torsions:
REMARK  status: ('A' for Active; 'I' for Inactive)
REMARK    1  A    between atoms: C2_2  and  C3_3 
REMARK    2  A    between atoms: C3_3  and  C5_5 
REMARK    3  A    between atoms: C5_5  and  C6_6 
REMARK    4  A    between atoms: C6_6  and  C7_7 
REMARK    5  A    between atoms: C7_7  and  O7_35 
REMARK    6  A    between atoms: C8_8  and  C9_9 
REMARK    7  A    between atoms: C10_10  and  C11_11 
REMARK    8  A    between atoms: C11_11  and  C12_12 
REMARK    9  A    between atoms: C12_12  and  C14_14 
REMARK   10  A    between atoms: C14_14  and  C20_21 
REMARK   11  A    between atoms: C21_23  and  O3_24 
REMARK   12  A    between atoms: C22_26  and  O4_27 
REMARK   13  A    between atoms: C23_29  and  O5_30 
REMARK   14  A    between atoms: C24_32  and  O6_33 
REMARK   15  A    between atoms: O7_35  and  C25_36 
ROOT
HETATM    1  C14 UNL     1      14.684  17.947  31.467  1.00  0.00     0.020 C 
HETATM    2  C15 UNL     1      13.654  18.854  31.382  1.00  0.00     0.002 C 
HETATM    3  C16 UNL     1      12.231  18.748  31.733  1.00  0.00     0.044 C 
HETATM    4  C17 UNL     1      11.811  20.239  31.875  1.00  0.00     0.012 C 
HETATM    5  C18 UNL     1      12.522  20.874  30.741  1.00  0.00     0.084 C 
HETATM    6  C19 UNL     1      13.785  20.069  30.577  1.00  0.00     0.156 C 
HETATM    7  O1  UNL     1      14.724  20.478  29.835  1.00  0.00    -0.293 OA
ENDROOT
BRANCH   1   8
HETATM    8  C12 UNL     1      14.253  16.654  31.970  1.00  0.00    -0.003 C 
HETATM    9  C13 UNL     1      14.449  17.270  33.718  1.00  0.00     0.059 C 
BRANCH   8  10
HETATM   10  C11 UNL     1      13.904  15.621  32.380  1.00  0.00    -0.120 C 
BRANCH  10  11
HETATM   11  C10 UNL     1      13.474  14.311  32.706  1.00  0.00     0.056 C 
HETATM   12  C9  UNL     1      13.326  13.635  33.789  1.00  0.00     0.011 C 
BRANCH  12  13
HETATM   13  C8  UNL     1      13.539  13.962  35.154  1.00  0.00     0.033 C 
HETATM   14  C7  UNL     1      14.705  13.850  35.823  1.00  0.00     0.056 C 
BRANCH  14  15
HETATM   15  C6  UNL     1      15.927  13.357  35.136  1.00  0.00     0.069 C 
BRANCH  15  16
HETATM   16  C5  UNL     1      16.820  14.389  34.497  1.00  0.00     0.044 C 
BRANCH  16  17
HETATM   17  C3  UNL     1      17.715  13.590  33.551  1.00  0.00    -0.068 C 
HETATM   18  C4  UNL     1      19.045  13.603  33.746  1.00  0.00     0.019 C 
BRANCH  17  19
HETATM   19  C2  UNL     1      17.170  12.730  32.554  1.00  0.00    -0.004 C 
HETATM   20  C1  UNL     1      16.324  13.024  31.582  1.00  0.00     0.012 C 
ENDBRANCH  17  19
ENDBRANCH  16  17
ENDBRANCH  15  16
ENDBRANCH  14  15
BRANCH  14  21
HETATM   21  O7  UNL     1      14.903  14.152  37.150  1.00  0.00    -0.290 OA
BRANCH  21  22
HETATM   22  C25 UNL     1      14.449  13.510  38.234  1.00  0.00     0.403 C 
HETATM   23  O8  UNL     1      14.081  12.338  38.269  1.00  0.00    -0.276 OA
ENDBRANCH  21  22
ENDBRANCH  14  21
ENDBRANCH  12  13
ENDBRANCH  10  11
ENDBRANCH   8  10
ENDBRANCH   1   8
BRANCH   1  24
HETATM   24  C20 UNL     1      16.068  18.389  31.537  1.00  0.00     0.093 C 
HETATM   25  O2  UNL     1      16.753  18.451  32.699  1.00  0.00    -0.319 OA
HETATM   26  C21 UNL     1      18.041  18.917  32.395  1.00  0.00     0.294 C 
HETATM   27  C22 UNL     1      18.842  17.728  31.975  1.00  0.00     0.205 C 
HETATM   28  C23 UNL     1      18.192  17.156  30.768  1.00  0.00     0.186 C 
HETATM   29  C24 UNL     1      16.889  17.760  30.400  1.00  0.00     0.207 C 
BRANCH  26  30
HETATM   30  O3  UNL     1      18.651  19.615  33.408  1.00  0.00    -0.368 OA
ATOM     31  H3  UNL     1      19.595  19.689  33.327  1.00  0.00     0.212 HD
ENDBRANCH  26  30
BRANCH  27  32
HETATM   32  O4  UNL     1      20.120  18.116  31.645  1.00  0.00    -0.388 OA
ATOM     33  H4  UNL     1      20.699  17.364  31.653  1.00  0.00     0.210 HD
ENDBRANCH  27  32
BRANCH  28  34
HETATM   34  O5  UNL     1      18.132  15.788  30.955  1.00  0.00    -0.390 OA
ATOM     35  H5  UNL     1      17.687  15.426  30.198  1.00  0.00     0.210 HD
ENDBRANCH  28  34
BRANCH  29  36
HETATM   36  O6  UNL     1      16.132  16.730  29.811  1.00  0.00    -0.386 OA
ATOM     37  H6  UNL     1      16.701  15.987  29.649  1.00  0.00     0.210 HD
ENDBRANCH  29  36
ENDBRANCH   1  24
TORSDOF 15
ENDMDL
MODEL 5
REMARK VINA RESULT: -8.262385727      1.824      3.272
REMARK  15 active torsions:
REMARK  status: ('A' for Active; 'I' for Inactive)
REMARK    1  A    between atoms: C2_2  and  C3_3 
REMARK    2  A    between atoms: C3_3  and  C5_5 
REMARK    3  A    between atoms: C5_5  and  C6_6 
REMARK    4  A    between atoms: C6_6  and  C7_7 
REMARK    5  A    between atoms: C7_7  and  O7_35 
REMARK    6  A    between atoms: C8_8  and  C9_9 
REMARK    7  A    between atoms: C10_10  and  C11_11 
REMARK    8  A    between atoms: C11_11  and  C12_12 
REMARK    9  A    between atoms: C12_12  and  C14_14 
REMARK   10  A    between atoms: C14_14  and  C20_21 
REMARK   11  A    between atoms: C21_23  and  O3_24 
REMARK   12  A    between atoms: C22_26  and  O4_27 
REMARK   13  A    between atoms: C23_29  and  O5_30 
REMARK   14  A    between atoms: C24_32  and  O6_33 
REMARK   15  A    between atoms: O7_35  and  C25_36 
ROOT
HETATM    1  C14 UNL     1      15.573  18.184  31.417  1.00  0.00     0.020 C 
HETATM    2  C15 UNL     1      16.889  18.415  31.740  1.00  0.00     0.002 C 
HETATM    3  C16 UNL     1      17.997  17.494  32.030  1.00  0.00     0.044 C 
HETATM    4  C17 UNL     1      19.246  18.388  31.788  1.00  0.00     0.012 C 
HETATM    5  C18 UNL     1      18.828  19.678  32.385  1.00  0.00     0.084 C 
HETATM    6  C19 UNL     1      17.339  19.739  32.168  1.00  0.00     0.156 C 
HETATM    7  O1  UNL     1      16.697  20.812  32.366  1.00  0.00    -0.293 OA
ENDROOT
BRANCH   1   8
HETATM    8  C12 UNL     1      15.240  16.770  31.395  1.00  0.00    -0.003 C 
HETATM    9  C13 UNL     1      14.786  16.851  33.202  1.00  0.00     0.059 C 
BRANCH   8  10
HETATM   10  C11 UNL     1      14.968  15.637  31.384  1.00  0.00    -0.120 C 
BRANCH  10  11
HETATM   11  C10 UNL     1      14.812  14.230  31.342  1.00  0.00     0.056 C 
HETATM   12  C9  UNL     1      15.565  13.214  31.573  1.00  0.00     0.011 C 
BRANCH  12  13
HETATM   13  C8  UNL     1      16.917  13.105  31.992  1.00  0.00     0.033 C 
HETATM   14  C7  UNL     1      17.343  12.962  33.264  1.00  0.00     0.056 C 
BRANCH  14  15
HETATM   15  C6  UNL     1      16.369  12.894  34.384  1.00  0.00     0.069 C 
BRANCH  15  16
HETATM   16  C5  UNL     1      16.254  14.108  35.269  1.00  0.00     0.044 C 
BRANCH  16  17
HETATM   17  C3  UNL     1      14.936  13.916  36.017  1.00  0.00    -0.068 C 
HETATM   18  C4  UNL     1      13.801  13.770  35.311  1.00  0.00     0.019 C 
BRANCH  17  19
HETATM   19  C2  UNL     1      14.895  13.756  37.432  1.00  0.00    -0.004 C 
HETATM   20  C1  UNL     1      14.102  12.982  38.154  1.00  0.00     0.012 C 
ENDBRANCH  17  19
ENDBRANCH  16  17
ENDBRANCH  15  16
ENDBRANCH  14  15
BRANCH  14  21
HETATM   21  O7  UNL     1      18.654  12.875  33.668  1.00  0.00    -0.290 OA
BRANCH  21  22
HETATM   22  C25 UNL     1      19.586  13.837  33.711  1.00  0.00     0.403 C 
HETATM   23  O8  UNL     1      20.040  14.437  32.740  1.00  0.00    -0.276 OA
ENDBRANCH  21  22
ENDBRANCH  14  21
ENDBRANCH  12  13
ENDBRANCH  10  11
ENDBRANCH   8  10
ENDBRANCH   1   8
BRANCH   1  24
HETATM   24  C20 UNL     1      14.791  19.179  30.701  1.00  0.00     0.093 C 
HETATM   25  O2  UNL     1      14.083  18.887  29.590  1.00  0.00    -0.319 OA
HETATM   26  C21 UNL     1      13.464  20.072  29.169  1.00  0.00     0.294 C 
HETATM   27  C22 UNL     1      12.198  20.199  29.952  1.00  0.00     0.205 C 
HETATM   28  C23 UNL     1      12.569  20.280  31.389  1.00  0.00     0.186 C 
HETATM   29  C24 UNL     1      14.002  20.053  31.690  1.00  0.00     0.207 C 
BRANCH  26  30
HETATM   30  O3  UNL     1      13.240  20.155  27.817  1.00  0.00    -0.368 OA
ATOM     31  H3  UNL     1      12.456  19.711  27.516  1.00  0.00     0.212 HD
ENDBRANCH  26  30
BRANCH  27  32
HETATM   32  O4  UNL     1      11.541  21.355  29.601  1.00  0.00    -0.388 OA
ATOM     33  H4  UNL     1      10.603  21.235  29.687  1.00  0.00     0.210 HD
ENDBRANCH  27  32
BRANCH  28  34
HETATM   34  O5  UNL     1      11.721  19.428  32.071  1.00  0.00    -0.390 OA
ATOM     35  H5  UNL     1      12.269  18.792  32.516  1.00  0.00     0.210 HD
ENDBRANCH  28  34
BRANCH  29  36
HETATM   36  O6  UNL     1      14.045  19.451  32.961  1.00  0.00    -0.386 OA
ATOM     37  H6  UNL     1      14.281  18.537  32.858  1.00  0.00     0.210 HD
ENDBRANCH  29  36
ENDBRANCH   1  24
TORSDOF 15
ENDMDL
