MODEL 1
REMARK VINA RESULT: -6.413783950      0.000      0.000
REMARK  2 active torsions:
REMARK  status: ('A' for Active; 'I' for Inactive)
REMARK    1  A    between atoms: C4_7  and  C5_8 
REMARK    2  A    between atoms: C5_8  and  N2_9 
ROOT
HETATM    1  C1  UNL     1     108.655  35.351  78.201  1.00  0.00     0.259 C 
HETATM    2  C2  UNL     1     108.376  36.833  78.434  1.00  0.00     0.259 C 
HETATM    3  N1  UNL     1     108.761  37.127  79.785  1.00  0.00    -0.072 N 
ATOM      4  H11 UNL     1     109.433  37.894  79.804  1.00  0.00     0.277 HD
ATOM      5  H12 UNL     1     109.341  36.377  80.162  1.00  0.00     0.277 HD
HETATM    6  C3  UNL     1     107.669  37.402  80.665  1.00  0.00     0.267 C 
HETATM    7  C4  UNL     1     107.777  36.424  81.837  1.00  0.00     0.239 C 
HETATM    8  N4  UNL     1     107.248  35.160  81.349  1.00  0.00    -0.066 N 
ATOM      9  H41 UNL     1     106.533  35.316  80.637  1.00  0.00     0.277 HD
ATOM     10  H42 UNL     1     106.678  34.704  82.061  1.00  0.00     0.277 HD
HETATM   11  C10 UNL     1     108.266  34.278  80.866  1.00  0.00     0.260 C 
HETATM   12  C11 UNL     1     107.808  33.585  79.592  1.00  0.00     0.259 C 
HETATM   13  N5  UNL     1     107.524  34.526  78.538  1.00  0.00    -0.072 N 
ATOM     14  H51 UNL     1     107.162  34.049  77.712  1.00  0.00     0.277 HD
ATOM     15  H52 UNL     1     106.711  35.098  78.769  1.00  0.00     0.277 HD
ENDROOT
BRANCH   7  16
HETATM   16  C5  UNL     1     106.932  36.879  83.001  1.00  0.00     0.307 C 
BRANCH  16  17
HETATM   17  N2  UNL     1     105.649  36.228  83.053  1.00  0.00     0.093 N 
HETATM   18  C6  UNL     1     105.543  35.631  84.388  1.00  0.00     0.300 C 
HETATM   19  C7  UNL     1     104.250  34.869  84.546  1.00  0.00     0.262 C 
HETATM   20  N3  UNL     1     103.104  35.621  84.146  1.00  0.00    -0.072 N 
HETATM   21  C8  UNL     1     103.260  36.341  82.918  1.00  0.00     0.262 C 
ATOM     22  H32 UNL     1     102.284  35.017  84.100  1.00  0.00     0.277 HD
ATOM     23  H31 UNL     1     102.817  36.253  84.893  1.00  0.00     0.277 HD
HETATM   24  C9  UNL     1     104.551  37.163  82.943  1.00  0.00     0.300 C 
ENDBRANCH  16  17
ENDBRANCH   7  16
TORSDOF 2
ENDMDL
MODEL 2
REMARK VINA RESULT: -5.448814840      1.604      5.644
REMARK  2 active torsions:
REMARK  status: ('A' for Active; 'I' for Inactive)
REMARK    1  A    between atoms: C4_7  and  C5_8 
REMARK    2  A    between atoms: C5_8  and  N2_9 
ROOT
HETATM    1  C1  UNL     1     103.147  36.757  83.514  1.00  0.00     0.259 C 
HETATM    2  C2  UNL     1     103.329  37.251  82.082  1.00  0.00     0.259 C 
HETATM    3  N1  UNL     1     103.637  36.104  81.276  1.00  0.00    -0.072 N 
ATOM      4  H11 UNL     1     102.979  36.027  80.501  1.00  0.00     0.277 HD
ATOM      5  H12 UNL     1     103.415  35.245  81.780  1.00  0.00     0.277 HD
HETATM    6  C3  UNL     1     104.982  36.065  80.793  1.00  0.00     0.267 C 
HETATM    7  C4  UNL     1     105.588  34.738  81.254  1.00  0.00     0.239 C 
HETATM    8  N4  UNL     1     105.948  34.931  82.650  1.00  0.00    -0.066 N 
ATOM      9  H41 UNL     1     106.188  35.906  82.833  1.00  0.00     0.277 HD
ATOM     10  H42 UNL     1     106.846  34.496  82.858  1.00  0.00     0.277 HD
HETATM   11  C10 UNL     1     104.937  34.476  83.555  1.00  0.00     0.260 C 
HETATM   12  C11 UNL     1     104.776  35.456  84.708  1.00  0.00     0.259 C 
HETATM   13  N5  UNL     1     104.384  36.766  84.252  1.00  0.00    -0.072 N 
ATOM     14  H51 UNL     1     104.339  37.424  85.030  1.00  0.00     0.277 HD
ATOM     15  H52 UNL     1     105.130  37.202  83.709  1.00  0.00     0.277 HD
ENDROOT
BRANCH   7  16
HETATM   16  C5  UNL     1     106.840  34.416  80.477  1.00  0.00     0.307 C 
BRANCH  16  17
HETATM   17  N2  UNL     1     107.441  35.577  79.873  1.00  0.00     0.093 N 
HETATM   18  C6  UNL     1     108.518  36.001  80.773  1.00  0.00     0.300 C 
HETATM   19  C7  UNL     1     109.194  37.251  80.269  1.00  0.00     0.262 C 
HETATM   20  N3  UNL     1     109.576  37.167  78.895  1.00  0.00    -0.072 N 
HETATM   21  C8  UNL     1     108.583  36.601  78.033  1.00  0.00     0.262 C 
ATOM     22  H32 UNL     1     109.863  38.083  78.552  1.00  0.00     0.277 HD
ATOM     23  H31 UNL     1     110.456  36.660  78.803  1.00  0.00     0.277 HD
HETATM   24  C9  UNL     1     108.072  35.278  78.606  1.00  0.00     0.300 C 
ENDBRANCH  16  17
ENDBRANCH   7  16
TORSDOF 2
ENDMDL
MODEL 3
REMARK VINA RESULT: -5.201676343      1.116      5.658
REMARK  2 active torsions:
REMARK  status: ('A' for Active; 'I' for Inactive)
REMARK    1  A    between atoms: C4_7  and  C5_8 
REMARK    2  A    between atoms: C5_8  and  N2_9 
ROOT
HETATM    1  C1  UNL     1     103.168  36.004  83.767  1.00  0.00     0.259 C 
HETATM    2  C2  UNL     1     104.351  35.365  84.487  1.00  0.00     0.259 C 
HETATM    3  N1  UNL     1     105.472  36.247  84.323  1.00  0.00    -0.072 N 
ATOM      4  H11 UNL     1     105.861  36.500  85.231  1.00  0.00     0.277 HD
ATOM      5  H12 UNL     1     105.159  37.164  84.005  1.00  0.00     0.277 HD
HETATM    6  C3  UNL     1     106.499  35.745  83.464  1.00  0.00     0.267 C 
HETATM    7  C4  UNL     1     106.712  36.785  82.361  1.00  0.00     0.239 C 
HETATM    8  N4  UNL     1     105.628  36.584  81.413  1.00  0.00    -0.066 N 
ATOM      9  H41 UNL     1     105.331  35.607  81.400  1.00  0.00     0.277 HD
ATOM     10  H42 UNL     1     105.962  36.670  80.454  1.00  0.00     0.277 HD
HETATM   11  C10 UNL     1     104.515  37.453  81.647  1.00  0.00     0.260 C 
HETATM   12  C11 UNL     1     103.206  36.698  81.467  1.00  0.00     0.259 C 
HETATM   13  N5  UNL     1     103.088  35.596  82.388  1.00  0.00    -0.072 N 
ATOM     14  H51 UNL     1     102.233  35.066  82.214  1.00  0.00     0.277 HD
ATOM     15  H52 UNL     1     103.777  34.873  82.181  1.00  0.00     0.277 HD
ENDROOT
BRANCH   7  16
HETATM   16  C5  UNL     1     108.021  36.555  81.648  1.00  0.00     0.307 C 
BRANCH  16  17
HETATM   17  N2  UNL     1     107.883  35.743  80.467  1.00  0.00     0.093 N 
HETATM   18  C6  UNL     1     108.759  36.338  79.452  1.00  0.00     0.300 C 
HETATM   19  C7  UNL     1     108.659  35.598  78.141  1.00  0.00     0.262 C 
HETATM   20  N3  UNL     1     108.799  34.184  78.283  1.00  0.00    -0.072 N 
HETATM   21  C8  UNL     1     108.071  33.618  79.377  1.00  0.00     0.262 C 
ATOM     22  H32 UNL     1     108.551  33.716  77.411  1.00  0.00     0.277 HD
ATOM     23  H31 UNL     1     109.785  33.931  78.345  1.00  0.00     0.277 HD
HETATM   24  C9  UNL     1     108.358  34.392  80.665  1.00  0.00     0.300 C 
ENDBRANCH  16  17
ENDBRANCH   7  16
TORSDOF 2
ENDMDL
MODEL 4
REMARK VINA RESULT: -4.926645517      0.951      2.369
REMARK  2 active torsions:
REMARK  status: ('A' for Active; 'I' for Inactive)
REMARK    1  A    between atoms: C4_7  and  C5_8 
REMARK    2  A    between atoms: C5_8  and  N2_9 
ROOT
HETATM    1  C1  UNL     1     108.325  34.700  78.087  1.00  0.00     0.259 C 
HETATM    2  C2  UNL     1     108.182  33.773  79.290  1.00  0.00     0.259 C 
HETATM    3  N1  UNL     1     107.114  34.292  80.097  1.00  0.00    -0.072 N 
ATOM      4  H11 UNL     1     106.406  33.575  80.253  1.00  0.00     0.277 HD
ATOM      5  H12 UNL     1     106.565  34.969  79.568  1.00  0.00     0.277 HD
HETATM    6  C3  UNL     1     107.534  34.854  81.342  1.00  0.00     0.267 C 
HETATM    7  C4  UNL     1     107.013  36.292  81.386  1.00  0.00     0.239 C 
HETATM    8  N4  UNL     1     107.929  37.070  80.566  1.00  0.00    -0.066 N 
ATOM      9  H41 UNL     1     108.867  36.670  80.589  1.00  0.00     0.277 HD
ATOM     10  H42 UNL     1     108.122  37.975  80.995  1.00  0.00     0.277 HD
HETATM   11  C10 UNL     1     107.473  37.230  79.219  1.00  0.00     0.260 C 
HETATM   12  C11 UNL     1     108.633  37.077  78.246  1.00  0.00     0.259 C 
HETATM   13  N5  UNL     1     109.247  35.777  78.338  1.00  0.00    -0.072 N 
ATOM     14  H51 UNL     1     110.058  35.713  77.722  1.00  0.00     0.277 HD
ATOM     15  H52 UNL     1     109.712  35.657  79.238  1.00  0.00     0.277 HD
ENDROOT
BRANCH   7  16
HETATM   16  C5  UNL     1     107.047  36.837  82.792  1.00  0.00     0.307 C 
BRANCH  16  17
HETATM   17  N2  UNL     1     105.766  36.787  83.447  1.00  0.00     0.093 N 
HETATM   18  C6  UNL     1     104.758  36.935  82.393  1.00  0.00     0.300 C 
HETATM   19  C7  UNL     1     103.363  36.951  82.967  1.00  0.00     0.262 C 
HETATM   20  N3  UNL     1     103.116  35.871  83.868  1.00  0.00    -0.072 N 
HETATM   21  C8  UNL     1     104.173  35.615  84.799  1.00  0.00     0.262 C 
ATOM     22  H32 UNL     1     102.236  36.018  84.363  1.00  0.00     0.277 HD
ATOM     23  H31 UNL     1     102.888  35.022  83.350  1.00  0.00     0.277 HD
HETATM   24  C9  UNL     1     105.512  35.505  84.067  1.00  0.00     0.300 C 
ENDBRANCH  16  17
ENDBRANCH   7  16
TORSDOF 2
ENDMDL
MODEL 5
REMARK VINA RESULT: -4.888561063      1.466      5.667
REMARK  2 active torsions:
REMARK  status: ('A' for Active; 'I' for Inactive)
REMARK    1  A    between atoms: C4_7  and  C5_8 
REMARK    2  A    between atoms: C5_8  and  N2_9 
ROOT
HETATM    1  C1  UNL     1     103.352  36.899  83.431  1.00  0.00     0.259 C 
HETATM    2  C2  UNL     1     104.215  36.019  84.329  1.00  0.00     0.259 C 
HETATM    3  N1  UNL     1     105.581  36.236  83.945  1.00  0.00    -0.072 N 
ATOM      4  H11 UNL     1     106.136  36.522  84.752  1.00  0.00     0.277 HD
ATOM      5  H12 UNL     1     105.660  37.077  83.372  1.00  0.00     0.277 HD
HETATM    6  C3  UNL     1     106.194  35.125  83.288  1.00  0.00     0.267 C 
HETATM    7  C4  UNL     1     106.715  35.630  81.940  1.00  0.00     0.239 C 
HETATM    8  N4  UNL     1     105.555  35.687  81.064  1.00  0.00    -0.066 N 
ATOM      9  H41 UNL     1     104.868  34.977  81.323  1.00  0.00     0.277 HD
ATOM     10  H42 UNL     1     105.789  35.359  80.128  1.00  0.00     0.277 HD
HETATM   11  C10 UNL     1     104.955  36.985  81.016  1.00  0.00     0.260 C 
HETATM   12  C11 UNL     1     103.438  36.870  81.030  1.00  0.00     0.259 C 
HETATM   13  N5  UNL     1     102.957  36.220  82.223  1.00  0.00    -0.072 N 
ATOM     14  H51 UNL     1     101.945  36.098  82.188  1.00  0.00     0.277 HD
ATOM     15  H52 UNL     1     103.242  35.241  82.246  1.00  0.00     0.277 HD
ENDROOT
BRANCH   7  16
HETATM   16  C5  UNL     1     107.713  34.666  81.351  1.00  0.00     0.307 C 
BRANCH  16  17
HETATM   17  N2  UNL     1     108.403  35.200  80.206  1.00  0.00     0.093 N 
HETATM   18  C6  UNL     1     107.518  34.993  79.056  1.00  0.00     0.300 C 
HETATM   19  C7  UNL     1     108.160  35.470  77.777  1.00  0.00     0.262 C 
HETATM   20  N3  UNL     1     108.695  36.790  77.876  1.00  0.00    -0.072 N 
HETATM   21  C8  UNL     1     109.427  37.050  79.079  1.00  0.00     0.262 C 
ATOM     22  H32 UNL     1     109.268  37.002  77.060  1.00  0.00     0.277 HD
ATOM     23  H31 UNL     1     107.954  37.482  77.757  1.00  0.00     0.277 HD
HETATM   24  C9  UNL     1     108.609  36.629  80.302  1.00  0.00     0.300 C 
ENDBRANCH  16  17
ENDBRANCH   7  16
TORSDOF 2
ENDMDL
