MODEL 1
REMARK VINA RESULT: -6.358536765      0.000      0.000
REMARK  2 active torsions:
REMARK  status: ('A' for Active; 'I' for Inactive)
REMARK    1  A    between atoms: C2_2  and  C3_3 
REMARK    2  A    between atoms: C3_3  and  N1_4 
ROOT
HETATM    1  N1  UNL     1     106.575  35.419  82.633  1.00  0.00    -0.290 NA
HETATM    2  C4  UNL     1     107.007  36.810  82.425  1.00  0.00     0.122 C 
HETATM    3  C5  UNL     1     108.358  36.916  81.779  1.00  0.00     0.247 C 
HETATM    4  N2  UNL     1     108.391  37.772  80.612  1.00  0.00    -0.073 N 
ATOM      5  H21 UNL     1     108.584  38.742  80.861  1.00  0.00     0.277 HD
ATOM      6  H22 UNL     1     107.462  37.899  80.210  1.00  0.00     0.277 HD
HETATM    7  C6  UNL     1     109.349  37.264  79.618  1.00  0.00     0.250 C 
HETATM    8  C7  UNL     1     108.675  37.166  78.293  1.00  0.00     0.163 C 
HETATM    9  N3  UNL     1     108.103  35.876  77.997  1.00  0.00    -0.125 NA
HETATM   10  N4  UNL     1     108.737  34.809  78.624  1.00  0.00    -0.137 N 
ATOM     11  H4  UNL     1     109.757  34.818  78.626  1.00  0.00     0.201 HD
HETATM   12  C8  UNL     1     108.109  33.710  79.260  1.00  0.00     0.683 C 
HETATM   13  N5  UNL     1     108.546  32.500  78.974  1.00  0.00    -0.234 N 
ATOM     14  H51 UNL     1     108.095  31.708  79.431  1.00  0.00     0.174 HD
ATOM     15  H52 UNL     1     109.315  32.453  78.305  1.00  0.00     0.174 HD
HETATM   16  N6  UNL     1     107.041  33.775  80.189  1.00  0.00    -0.224 N 
ATOM     17  H6  UNL     1     106.963  33.011  80.860  1.00  0.00     0.177 HD
HETATM   18  C9  UNL     1     106.052  34.822  80.273  1.00  0.00     0.153 C 
HETATM   19  C10 UNL     1     105.535  35.075  81.645  1.00  0.00     0.115 C 
ENDROOT
BRANCH   1  20
HETATM   20  C3  UNL     1     105.868  35.363  83.885  1.00  0.00     0.059 C 
BRANCH  20  21
HETATM   21  C2  UNL     1     104.429  35.198  83.865  1.00  0.00     0.001 C 
HETATM   22  C1  UNL     1     103.467  36.048  84.092  1.00  0.00     0.012 C 
ENDBRANCH  20  21
ENDBRANCH   1  20
TORSDOF 2
ENDMDL
MODEL 2
REMARK VINA RESULT: -5.431569248      2.142      5.640
REMARK  2 active torsions:
REMARK  status: ('A' for Active; 'I' for Inactive)
REMARK    1  A    between atoms: C2_2  and  C3_3 
REMARK    2  A    between atoms: C3_3  and  N1_4 
ROOT
HETATM    1  N1  UNL     1     107.391  34.794  81.087  1.00  0.00    -0.290 NA
HETATM    2  C4  UNL     1     106.379  35.170  80.085  1.00  0.00     0.122 C 
HETATM    3  C5  UNL     1     104.974  34.915  80.544  1.00  0.00     0.247 C 
HETATM    4  N2  UNL     1     104.093  36.058  80.414  1.00  0.00    -0.073 N 
ATOM      5  H21 UNL     1     103.645  36.086  79.499  1.00  0.00     0.277 HD
ATOM      6  H22 UNL     1     104.614  36.932  80.358  1.00  0.00     0.277 HD
HETATM    7  C6  UNL     1     103.106  36.082  81.505  1.00  0.00     0.250 C 
HETATM    8  C7  UNL     1     103.119  37.426  82.148  1.00  0.00     0.163 C 
HETATM    9  N3  UNL     1     103.984  37.543  83.295  1.00  0.00    -0.125 NA
HETATM   10  N4  UNL     1     104.184  36.352  83.986  1.00  0.00    -0.137 N 
ATOM     11  H4  UNL     1     103.362  35.770  84.145  1.00  0.00     0.201 HD
HETATM   12  C8  UNL     1     105.415  35.867  84.492  1.00  0.00     0.683 C 
HETATM   13  N5  UNL     1     105.439  35.425  85.733  1.00  0.00    -0.234 N 
ATOM     14  H51 UNL     1     106.325  35.075  86.098  1.00  0.00     0.174 HD
ATOM     15  H52 UNL     1     104.553  35.470  86.238  1.00  0.00     0.174 HD
HETATM   16  N6  UNL     1     106.645  35.805  83.791  1.00  0.00    -0.224 N 
ATOM     17  H6  UNL     1     107.310  35.090  84.086  1.00  0.00     0.177 HD
HETATM   18  C9  UNL     1     107.043  36.659  82.699  1.00  0.00     0.153 C 
HETATM   19  C10 UNL     1     107.943  36.013  81.706  1.00  0.00     0.115 C 
ENDROOT
BRANCH   1  20
HETATM   20  C3  UNL     1     108.519  34.243  80.384  1.00  0.00     0.059 C 
BRANCH  20  21
HETATM   21  C2  UNL     1     108.333  33.780  79.025  1.00  0.00     0.001 C 
HETATM   22  C1  UNL     1     108.689  32.668  78.443  1.00  0.00     0.012 C 
ENDBRANCH  20  21
ENDBRANCH   1  20
TORSDOF 2
ENDMDL
MODEL 3
REMARK VINA RESULT: -5.321087063      2.404      5.571
REMARK  2 active torsions:
REMARK  status: ('A' for Active; 'I' for Inactive)
REMARK    1  A    between atoms: C2_2  and  C3_3 
REMARK    2  A    between atoms: C3_3  and  N1_4 
ROOT
HETATM    1  N1  UNL     1     107.406  36.010  80.512  1.00  0.00    -0.290 NA
HETATM    2  C4  UNL     1     107.649  35.644  81.917  1.00  0.00     0.122 C 
HETATM    3  C5  UNL     1     106.928  36.530  82.889  1.00  0.00     0.247 C 
HETATM    4  N2  UNL     1     106.140  35.814  83.871  1.00  0.00    -0.073 N 
ATOM      5  H21 UNL     1     106.689  35.581  84.699  1.00  0.00     0.277 HD
ATOM      6  H22 UNL     1     105.920  34.867  83.562  1.00  0.00     0.277 HD
HETATM    7  C6  UNL     1     104.926  36.568  84.218  1.00  0.00     0.250 C 
HETATM    8  C7  UNL     1     103.740  35.678  84.083  1.00  0.00     0.163 C 
HETATM    9  N3  UNL     1     103.079  35.734  82.803  1.00  0.00    -0.125 NA
HETATM   10  N4  UNL     1     103.213  36.951  82.142  1.00  0.00    -0.137 N 
ATOM     11  H4  UNL     1     103.099  37.794  82.704  1.00  0.00     0.201 HD
HETATM   12  C8  UNL     1     103.492  37.137  80.766  1.00  0.00     0.683 C 
HETATM   13  N5  UNL     1     102.750  37.998  80.097  1.00  0.00    -0.234 N 
ATOM     14  H51 UNL     1     102.951  38.132  79.107  1.00  0.00     0.174 HD
ATOM     15  H52 UNL     1     102.022  38.467  80.636  1.00  0.00     0.174 HD
HETATM   16  N6  UNL     1     104.504  36.484  80.018  1.00  0.00    -0.224 N 
ATOM     17  H6  UNL     1     104.868  36.978  79.202  1.00  0.00     0.177 HD
HETATM   18  C9  UNL     1     105.066  35.187  80.302  1.00  0.00     0.153 C 
HETATM   19  C10 UNL     1     106.490  35.029  79.901  1.00  0.00     0.115 C 
ENDROOT
BRANCH   1  20
HETATM   20  C3  UNL     1     108.632  35.807  79.788  1.00  0.00     0.059 C 
BRANCH  20  21
HETATM   21  C2  UNL     1     109.092  36.848  78.893  1.00  0.00     0.001 C 
HETATM   22  C1  UNL     1     110.244  37.454  78.805  1.00  0.00     0.012 C 
ENDBRANCH  20  21
ENDBRANCH   1  20
TORSDOF 2
ENDMDL
MODEL 4
REMARK VINA RESULT: -5.106515348      2.061      5.684
REMARK  2 active torsions:
REMARK  status: ('A' for Active; 'I' for Inactive)
REMARK    1  A    between atoms: C2_2  and  C3_3 
REMARK    2  A    between atoms: C3_3  and  N1_4 
ROOT
HETATM    1  N1  UNL     1     107.525  35.486  80.955  1.00  0.00    -0.290 NA
HETATM    2  C4  UNL     1     106.423  35.798  80.030  1.00  0.00     0.122 C 
HETATM    3  C5  UNL     1     105.098  35.270  80.496  1.00  0.00     0.247 C 
HETATM    4  N2  UNL     1     104.041  36.261  80.521  1.00  0.00    -0.073 N 
ATOM      5  H21 UNL     1     103.553  36.314  79.627  1.00  0.00     0.277 HD
ATOM      6  H22 UNL     1     104.414  37.209  80.550  1.00  0.00     0.277 HD
HETATM    7  C6  UNL     1     103.114  36.007  81.634  1.00  0.00     0.250 C 
HETATM    8  C7  UNL     1     102.942  37.258  82.424  1.00  0.00     0.163 C 
HETATM    9  N3  UNL     1     103.828  37.390  83.553  1.00  0.00    -0.125 NA
HETATM   10  N4  UNL     1     104.246  36.180  84.099  1.00  0.00    -0.137 N 
ATOM     11  H4  UNL     1     103.535  35.458  84.213  1.00  0.00     0.201 HD
HETATM   12  C8  UNL     1     105.560  35.850  84.513  1.00  0.00     0.683 C 
HETATM   13  N5  UNL     1     105.711  35.287  85.695  1.00  0.00    -0.234 N 
ATOM     14  H51 UNL     1     106.656  35.049  85.993  1.00  0.00     0.174 HD
ATOM     15  H52 UNL     1     104.853  35.132  86.225  1.00  0.00     0.174 HD
HETATM   16  N6  UNL     1     106.751  36.065  83.776  1.00  0.00    -0.224 N 
ATOM     17  H6  UNL     1     107.535  35.441  83.970  1.00  0.00     0.177 HD
HETATM   18  C9  UNL     1     106.959  37.085  82.778  1.00  0.00     0.153 C 
HETATM   19  C10 UNL     1     107.905  36.705  81.693  1.00  0.00     0.115 C 
ENDROOT
BRANCH   1  20
HETATM   20  C3  UNL     1     108.694  35.206  80.164  1.00  0.00     0.059 C 
BRANCH  20  21
HETATM   21  C2  UNL     1     108.922  35.979  78.961  1.00  0.00     0.001 C 
HETATM   22  C1  UNL     1     109.589  37.083  78.767  1.00  0.00     0.012 C 
ENDBRANCH  20  21
ENDBRANCH   1  20
TORSDOF 2
ENDMDL
MODEL 5
REMARK VINA RESULT: -4.946058945      1.093      3.166
REMARK  2 active torsions:
REMARK  status: ('A' for Active; 'I' for Inactive)
REMARK    1  A    between atoms: C2_2  and  C3_3 
REMARK    2  A    between atoms: C3_3  and  N1_4 
ROOT
HETATM    1  N1  UNL     1     106.322  36.557  82.000  1.00  0.00    -0.290 NA
HETATM    2  C4  UNL     1     106.414  35.090  82.093  1.00  0.00     0.122 C 
HETATM    3  C5  UNL     1     106.230  34.404  80.771  1.00  0.00     0.247 C 
HETATM    4  N2  UNL     1     107.279  33.460  80.444  1.00  0.00    -0.073 N 
ATOM      5  H21 UNL     1     107.073  32.528  80.803  1.00  0.00     0.277 HD
ATOM      6  H22 UNL     1     108.131  33.644  80.973  1.00  0.00     0.277 HD
HETATM    7  C6  UNL     1     107.532  33.442  78.995  1.00  0.00     0.250 C 
HETATM    8  C7  UNL     1     108.990  33.622  78.749  1.00  0.00     0.163 C 
HETATM    9  N3  UNL     1     109.406  34.984  78.528  1.00  0.00    -0.125 NA
HETATM   10  N4  UNL     1     108.422  35.803  77.983  1.00  0.00    -0.137 N 
ATOM     11  H4  UNL     1     107.869  35.410  77.222  1.00  0.00     0.201 HD
HETATM   12  C8  UNL     1     108.113  37.127  78.378  1.00  0.00     0.683 C 
HETATM   13  N5  UNL     1     107.982  38.038  77.434  1.00  0.00    -0.234 N 
ATOM     14  H51 UNL     1     107.759  38.991  77.718  1.00  0.00     0.174 HD
ATOM     15  H52 UNL     1     108.117  37.707  76.478  1.00  0.00     0.174 HD
HETATM   16  N6  UNL     1     107.925  37.585  79.706  1.00  0.00    -0.224 N 
ATOM     17  H6  UNL     1     107.324  38.400  79.835  1.00  0.00     0.177 HD
HETATM   18  C9  UNL     1     108.506  37.007  80.893  1.00  0.00     0.153 C 
HETATM   19  C10 UNL     1     107.671  37.141  82.117  1.00  0.00     0.115 C 
ENDROOT
BRANCH   1  20
HETATM   20  C3  UNL     1     105.657  37.029  83.185  1.00  0.00     0.059 C 
BRANCH  20  21
HETATM   21  C2  UNL     1     104.222  36.861  83.291  1.00  0.00     0.001 C 
HETATM   22  C1  UNL     1     103.509  36.013  83.980  1.00  0.00     0.012 C 
ENDBRANCH  20  21
ENDBRANCH   1  20
TORSDOF 2
ENDMDL
