MODEL 1
REMARK VINA RESULT: -5.623030872      0.000      0.000
REMARK  4 active torsions:
REMARK  status: ('A' for Active; 'I' for Inactive)
REMARK    1  A    between atoms: N1_2  and  C2_4 
REMARK    2  A    between atoms: C2_4  and  N2_6 
REMARK    3  A    between atoms: N2_6  and  N3_8 
REMARK       I    between atoms: N3_8  and  C3_9 
REMARK       I    between atoms: C3_9  and  N4_11 
REMARK    4  A    between atoms: N4_11  and  C4_13 
ROOT
HETATM    1  N3  UNL     1     108.764  32.704  78.261  1.00  0.00    -0.263 NA
HETATM    2  C3  UNL     1     107.870  33.591  78.706  1.00  0.00     0.415 C 
HETATM    3  O1  UNL     1     107.161  34.343  77.972  1.00  0.00    -0.228 OA
HETATM    4  N4  UNL     1     107.646  33.703  80.154  1.00  0.00    -0.280 N 
ATOM      5  H4  UNL     1     108.170  33.163  80.842  1.00  0.00     0.169 HD
ENDROOT
BRANCH   1   6
HETATM    6  N2  UNL     1     109.645  31.830  77.817  1.00  0.00    -0.204 N 
ATOM      7  H2  UNL     1     110.638  32.052  77.891  1.00  0.00     0.204 HD
BRANCH   6   8
HETATM    8  C2  UNL     1     109.262  30.587  77.237  1.00  0.00     0.196 C 
HETATM    9  S1  UNL     1     108.091  30.533  76.116  1.00  0.00    -0.039 SA
BRANCH   8  10
HETATM   10  N1  UNL     1     109.902  29.394  77.641  1.00  0.00    -0.370 N 
HETATM   11  C1  UNL     1     111.318  29.200  77.613  1.00  0.00     0.148 C 
ATOM     12  H1  UNL     1     109.319  28.626  77.973  1.00  0.00     0.161 HD
ENDBRANCH   8  10
ENDBRANCH   6   8
ENDBRANCH   1   6
BRANCH   4  13
HETATM   13  C4  UNL     1     106.583  34.680  80.524  1.00  0.00     0.433 C 
HETATM   14  N5  UNL     1     107.004  36.021  80.454  1.00  0.00    -0.029 N 
HETATM   15  C5  UNL     1     106.587  36.655  81.698  1.00  0.00     0.263 C 
ATOM     16  H52 UNL     1     108.001  36.119  80.266  1.00  0.00     0.282 HD
ATOM     17  H51 UNL     1     106.668  36.506  79.622  1.00  0.00     0.282 HD
HETATM   18  C6  UNL     1     106.175  35.508  82.561  1.00  0.00     0.200 C 
HETATM   19  O2  UNL     1     106.384  34.381  81.865  1.00  0.00    -0.342 OA
ENDBRANCH   4  13
TORSDOF 4
ENDMDL
MODEL 2
REMARK VINA RESULT: -5.579524581      4.132      5.105
REMARK  4 active torsions:
REMARK  status: ('A' for Active; 'I' for Inactive)
REMARK    1  A    between atoms: N1_2  and  C2_4 
REMARK    2  A    between atoms: C2_4  and  N2_6 
REMARK    3  A    between atoms: N2_6  and  N3_8 
REMARK       I    between atoms: N3_8  and  C3_9 
REMARK       I    between atoms: C3_9  and  N4_11 
REMARK    4  A    between atoms: N4_11  and  C4_13 
ROOT
HETATM    1  N3  UNL     1     108.407  37.119  80.872  1.00  0.00    -0.263 NA
HETATM    2  C3  UNL     1     107.672  37.074  81.987  1.00  0.00     0.415 C 
HETATM    3  O1  UNL     1     108.115  37.270  83.158  1.00  0.00    -0.228 OA
HETATM    4  N4  UNL     1     106.232  36.811  81.874  1.00  0.00    -0.280 N 
ATOM      5  H4  UNL     1     105.768  36.621  80.986  1.00  0.00     0.169 HD
ENDROOT
BRANCH   1   6
HETATM    6  N2  UNL     1     109.135  37.165  79.774  1.00  0.00    -0.204 N 
ATOM      7  H2  UNL     1     110.048  37.617  79.809  1.00  0.00     0.204 HD
BRANCH   6   8
HETATM    8  C2  UNL     1     108.693  36.605  78.541  1.00  0.00     0.196 C 
HETATM    9  S1  UNL     1     108.356  37.568  77.279  1.00  0.00    -0.039 SA
BRANCH   8  10
HETATM   10  N1  UNL     1     108.544  35.206  78.415  1.00  0.00    -0.370 N 
HETATM   11  C1  UNL     1     107.352  34.497  78.765  1.00  0.00     0.148 C 
ATOM     12  H1  UNL     1     109.332  34.670  78.054  1.00  0.00     0.161 HD
ENDBRANCH   8  10
ENDBRANCH   6   8
ENDBRANCH   1   6
BRANCH   4  13
HETATM   13  C4  UNL     1     105.511  36.847  83.178  1.00  0.00     0.433 C 
HETATM   14  N5  UNL     1     105.722  35.701  83.967  1.00  0.00    -0.029 N 
HETATM   15  C5  UNL     1     104.409  35.260  84.422  1.00  0.00     0.263 C 
ATOM     16  H52 UNL     1     106.247  34.972  83.485  1.00  0.00     0.282 HD
ATOM     17  H51 UNL     1     106.382  35.853  84.729  1.00  0.00     0.282 HD
HETATM   18  C6  UNL     1     103.458  36.062  83.596  1.00  0.00     0.200 C 
HETATM   19  O2  UNL     1     104.185  36.823  82.765  1.00  0.00    -0.342 OA
ENDBRANCH   4  13
TORSDOF 4
ENDMDL
MODEL 3
REMARK VINA RESULT: -5.478793133      1.184      1.549
REMARK  4 active torsions:
REMARK  status: ('A' for Active; 'I' for Inactive)
REMARK    1  A    between atoms: N1_2  and  C2_4 
REMARK    2  A    between atoms: C2_4  and  N2_6 
REMARK    3  A    between atoms: N2_6  and  N3_8 
REMARK       I    between atoms: N3_8  and  C3_9 
REMARK       I    between atoms: C3_9  and  N4_11 
REMARK    4  A    between atoms: N4_11  and  C4_13 
ROOT
HETATM    1  N3  UNL     1     108.734  32.732  78.288  1.00  0.00    -0.263 NA
HETATM    2  C3  UNL     1     107.855  33.634  78.733  1.00  0.00     0.415 C 
HETATM    3  O1  UNL     1     107.190  34.425  78.000  1.00  0.00    -0.228 OA
HETATM    4  N4  UNL     1     107.596  33.715  80.176  1.00  0.00    -0.280 N 
ATOM      5  H4  UNL     1     108.084  33.142  80.863  1.00  0.00     0.169 HD
ENDROOT
BRANCH   1   6
HETATM    6  N2  UNL     1     109.601  31.843  77.844  1.00  0.00    -0.204 N 
ATOM      7  H2  UNL     1     110.588  31.966  78.066  1.00  0.00     0.204 HD
BRANCH   6   8
HETATM    8  C2  UNL     1     109.208  30.716  77.067  1.00  0.00     0.196 C 
HETATM    9  S1  UNL     1     110.110  29.368  77.066  1.00  0.00    -0.039 SA
BRANCH   8  10
HETATM   10  N1  UNL     1     108.030  30.772  76.290  1.00  0.00    -0.370 N 
HETATM   11  C1  UNL     1     107.958  30.370  74.919  1.00  0.00     0.148 C 
ATOM     12  H1  UNL     1     107.180  31.120  76.733  1.00  0.00     0.161 HD
ENDBRANCH   8  10
ENDBRANCH   6   8
ENDBRANCH   1   6
BRANCH   4  13
HETATM   13  C4  UNL     1     106.552  34.714  80.543  1.00  0.00     0.433 C 
HETATM   14  N5  UNL     1     107.017  36.043  80.526  1.00  0.00    -0.029 N 
HETATM   15  C5  UNL     1     106.582  36.655  81.775  1.00  0.00     0.263 C 
ATOM     16  H52 UNL     1     108.022  36.115  80.370  1.00  0.00     0.282 HD
ATOM     17  H51 UNL     1     106.722  36.562  79.699  1.00  0.00     0.282 HD
HETATM   18  C6  UNL     1     106.108  35.497  82.592  1.00  0.00     0.200 C 
HETATM   19  O2  UNL     1     106.303  34.384  81.868  1.00  0.00    -0.342 OA
ENDBRANCH   4  13
TORSDOF 4
ENDMDL
MODEL 4
REMARK VINA RESULT: -5.430965040      6.416      8.166
REMARK  4 active torsions:
REMARK  status: ('A' for Active; 'I' for Inactive)
REMARK    1  A    between atoms: N1_2  and  C2_4 
REMARK    2  A    between atoms: C2_4  and  N2_6 
REMARK    3  A    between atoms: N2_6  and  N3_8 
REMARK       I    between atoms: N3_8  and  C3_9 
REMARK       I    between atoms: C3_9  and  N4_11 
REMARK    4  A    between atoms: N4_11  and  C4_13 
ROOT
HETATM    1  N3  UNL     1     108.268  38.221  77.190  1.00  0.00    -0.263 NA
HETATM    2  C3  UNL     1     107.683  39.136  76.412  1.00  0.00     0.415 C 
HETATM    3  O1  UNL     1     106.606  39.745  76.689  1.00  0.00    -0.228 OA
HETATM    4  N4  UNL     1     108.330  39.507  75.148  1.00  0.00    -0.280 N 
ATOM      5  H4  UNL     1     109.189  39.072  74.812  1.00  0.00     0.169 HD
ENDROOT
BRANCH   1   6
HETATM    6  N2  UNL     1     108.843  37.318  77.960  1.00  0.00    -0.204 N 
ATOM      7  H2  UNL     1     109.803  37.040  77.757  1.00  0.00     0.204 HD
BRANCH   6   8
HETATM    8  C2  UNL     1     108.173  36.719  79.064  1.00  0.00     0.196 C 
HETATM    9  S1  UNL     1     107.882  35.123  79.077  1.00  0.00    -0.039 SA
BRANCH   8  10
HETATM   10  N1  UNL     1     107.757  37.517  80.153  1.00  0.00    -0.370 N 
HETATM   11  C1  UNL     1     107.936  37.151  81.524  1.00  0.00     0.148 C 
ATOM     12  H1  UNL     1     107.303  38.407  79.950  1.00  0.00     0.161 HD
ENDBRANCH   8  10
ENDBRANCH   6   8
ENDBRANCH   1   6
BRANCH   4  13
HETATM   13  C4  UNL     1     107.615  40.581  74.400  1.00  0.00     0.433 C 
HETATM   14  N5  UNL     1     106.660  40.089  73.491  1.00  0.00    -0.029 N 
HETATM   15  C5  UNL     1     106.888  40.782  72.229  1.00  0.00     0.263 C 
ATOM     16  H52 UNL     1     106.674  39.074  73.401  1.00  0.00     0.282 HD
ATOM     17  H51 UNL     1     105.701  40.174  73.829  1.00  0.00     0.282 HD
HETATM   18  C6  UNL     1     108.204  41.460  72.429  1.00  0.00     0.200 C 
HETATM   19  O2  UNL     1     108.646  41.134  73.652  1.00  0.00    -0.342 OA
ENDBRANCH   4  13
TORSDOF 4
ENDMDL
MODEL 5
REMARK VINA RESULT: -5.366819197      4.733      5.389
REMARK  4 active torsions:
REMARK  status: ('A' for Active; 'I' for Inactive)
REMARK    1  A    between atoms: N1_2  and  C2_4 
REMARK    2  A    between atoms: C2_4  and  N2_6 
REMARK    3  A    between atoms: N2_6  and  N3_8 
REMARK       I    between atoms: N3_8  and  C3_9 
REMARK       I    between atoms: C3_9  and  N4_11 
REMARK    4  A    between atoms: N4_11  and  C4_13 
ROOT
HETATM    1  N3  UNL     1     108.209  37.160  80.620  1.00  0.00    -0.263 NA
HETATM    2  C3  UNL     1     107.587  37.102  81.802  1.00  0.00     0.415 C 
HETATM    3  O1  UNL     1     108.141  37.290  82.926  1.00  0.00    -0.228 OA
HETATM    4  N4  UNL     1     106.144  36.831  81.829  1.00  0.00    -0.280 N 
ATOM      5  H4  UNL     1     105.596  36.645  80.989  1.00  0.00     0.169 HD
ENDROOT
BRANCH   1   6
HETATM    6  N2  UNL     1     108.825  37.219  79.457  1.00  0.00    -0.204 N 
ATOM      7  H2  UNL     1     109.613  37.857  79.350  1.00  0.00     0.204 HD
BRANCH   6   8
HETATM    8  C2  UNL     1     108.431  36.423  78.343  1.00  0.00     0.196 C 
HETATM    9  S1  UNL     1     108.080  34.852  78.543  1.00  0.00    -0.039 SA
BRANCH   8  10
HETATM   10  N1  UNL     1     108.348  37.002  77.057  1.00  0.00    -0.370 N 
HETATM   11  C1  UNL     1     108.274  38.411  76.820  1.00  0.00     0.148 C 
ATOM     12  H1  UNL     1     108.342  36.379  76.250  1.00  0.00     0.161 HD
ENDBRANCH   8  10
ENDBRANCH   6   8
ENDBRANCH   1   6
BRANCH   4  13
HETATM   13  C4  UNL     1     105.554  36.852  83.197  1.00  0.00     0.433 C 
HETATM   14  N5  UNL     1     105.819  35.686  83.940  1.00  0.00    -0.029 N 
HETATM   15  C5  UNL     1     104.550  35.258  84.513  1.00  0.00     0.263 C 
ATOM     16  H52 UNL     1     106.282  34.959  83.396  1.00  0.00     0.282 HD
ATOM     17  H51 UNL     1     106.553  35.811  84.637  1.00  0.00     0.282 HD
HETATM   18  C6  UNL     1     103.537  36.093  83.799  1.00  0.00     0.200 C 
HETATM   19  O2  UNL     1     104.195  36.859  82.916  1.00  0.00    -0.342 OA
ENDBRANCH   4  13
TORSDOF 4
ENDMDL
