MODEL 1
REMARK VINA RESULT: -8.906100525      0.000      0.000
REMARK  18 active torsions:
REMARK  status: ('A' for Active; 'I' for Inactive)
REMARK    1  A    between atoms: O1_2  and  C2_3 
REMARK    2  A    between atoms: C2_3  and  C3_5 
REMARK    3  A    between atoms: C5_8  and  O4_9 
REMARK    4  A    between atoms: C9_18  and  O8_19 
REMARK    5  A    between atoms: C9_18  and  N1_21 
REMARK    6  A    between atoms: N1_21  and  C10_24 
REMARK    7  A    between atoms: C10_24  and  S2_25 
REMARK    8  A    between atoms: S2_25  and  C11_26 
REMARK    9  A    between atoms: C11_26  and  C12_27 
REMARK   10  A    between atoms: C12_27  and  C13_28 
REMARK   11  A    between atoms: C12_27  and  C15_32 
REMARK   12  A    between atoms: C13_28  and  O10_30 
REMARK   13  A    between atoms: C15_32  and  O12_34 
REMARK   14  A    between atoms: O12_34  and  C16_35 
REMARK   15  A    between atoms: C18_37  and  O13_38 
REMARK   16  A    between atoms: C18_37  and  C19_40 
REMARK   17  A    between atoms: C21_45  and  O16_46 
REMARK   18  A    between atoms: C21_45  and  C22_48 
ROOT
HETATM    1  S2  UNL     1      46.823  34.298 -10.239  1.00  0.00    -0.140 SA
ENDROOT
BRANCH   1   2
HETATM    2  C10 UNL     1      47.347  35.129  -8.713  1.00  0.00     0.310 C 
BRANCH   2   3
HETATM    3  N1  UNL     1      48.547  35.844  -8.946  1.00  0.00    -0.025 N 
ATOM      4  H12 UNL     1      48.345  36.827  -9.130  1.00  0.00     0.282 HD
ATOM      5  H11 UNL     1      48.950  35.577  -9.845  1.00  0.00     0.282 HD
BRANCH   3   6
HETATM    6  C9  UNL     1      49.533  35.723  -7.898  1.00  0.00     0.311 C 
HETATM    7  C3  UNL     1      50.820  35.367  -8.484  1.00  0.00     0.106 C 
HETATM    8  C4  UNL     1      51.777  36.258  -8.624  1.00  0.00     0.156 C 
HETATM    9  O3  UNL     1      51.569  37.555  -8.222  1.00  0.00    -0.327 OA
HETATM   10  C5  UNL     1      50.672  37.850  -7.195  1.00  0.00     0.318 C 
HETATM   11  C6  UNL     1      49.582  36.859  -6.964  1.00  0.00     0.276 C 
HETATM   12  O5  UNL     1      48.312  37.495  -6.914  1.00  0.00    -0.355 OA
HETATM   13  S1  UNL     1      49.603  36.362  -5.223  1.00  0.00     0.189 S 
HETATM   14  C7  UNL     1      48.306  38.429  -5.940  1.00  0.00     0.185 C 
HETATM   15  C8  UNL     1      48.872  37.913  -4.642  1.00  0.00     0.170 C 
HETATM   16  O6  UNL     1      48.686  35.232  -4.950  1.00  0.00    -0.224 OA
HETATM   17  O7  UNL     1      50.973  36.169  -4.714  1.00  0.00    -0.224 OA
BRANCH   7  18
HETATM   18  C2  UNL     1      51.131  33.997  -8.945  1.00  0.00     0.295 C 
HETATM   19  O2  UNL     1      50.489  33.493  -9.896  1.00  0.00    -0.259 OA
BRANCH  18  20
HETATM   20  O1  UNL     1      52.138  33.258  -8.327  1.00  0.00    -0.323 OA
HETATM   21  C1  UNL     1      52.497  32.011  -8.941  1.00  0.00     0.213 C 
ENDBRANCH  18  20
ENDBRANCH   7  18
BRANCH  10  22
HETATM   22  O4  UNL     1      51.424  38.108  -6.047  1.00  0.00    -0.367 OA
ATOM     23  H4  UNL     1      51.164  38.963  -5.723  1.00  0.00     0.212 HD
ENDBRANCH  10  22
BRANCH   6  24
HETATM   24  O8  UNL     1      49.124  34.578  -7.156  1.00  0.00    -0.358 OA
ATOM     25  H8  UNL     1      48.446  34.166  -7.679  1.00  0.00     0.213 HD
ENDBRANCH   6  24
ENDBRANCH   3   6
ENDBRANCH   2   3
ENDBRANCH   1   2
BRANCH   1  26
HETATM   26  C11 UNL     1      45.311  35.064 -10.820  1.00  0.00     0.100 C 
BRANCH  26  27
HETATM   27  C12 UNL     1      44.943  34.688 -12.243  1.00  0.00     0.194 C 
BRANCH  27  28
HETATM   28  C13 UNL     1      45.619  35.636 -13.197  1.00  0.00     0.273 C 
HETATM   29  O9  UNL     1      44.989  36.620 -13.648  1.00  0.00    -0.264 OA
BRANCH  28  30
HETATM   30  O10 UNL     1      46.929  35.451 -13.596  1.00  0.00    -0.326 OA
HETATM   31  C14 UNL     1      47.632  34.265 -13.276  1.00  0.00     0.213 C 
ENDBRANCH  28  30
ENDBRANCH  27  28
BRANCH  27  32
HETATM   32  C15 UNL     1      43.467  34.823 -12.327  1.00  0.00     0.278 C 
HETATM   33  O11 UNL     1      42.869  35.752 -11.712  1.00  0.00    -0.264 OA
BRANCH  32  34
HETATM   34  O12 UNL     1      42.724  33.946 -13.072  1.00  0.00    -0.278 OA
BRANCH  34  35
HETATM   35  C16 UNL     1      41.463  34.233 -13.570  1.00  0.00     0.112 C 
HETATM   36  C17 UNL     1      41.319  34.793 -14.753  1.00  0.00     0.060 C 
HETATM   37  C18 UNL     1      40.020  35.132 -15.358  1.00  0.00     0.174 C 
HETATM   38  C20 UNL     1      39.060  33.965 -15.432  1.00  0.00     0.131 C 
HETATM   39  S3  UNL     1      38.965  33.198 -13.803  1.00  0.00    -0.110 SA
HETATM   40  C21 UNL     1      40.263  33.910 -12.766  1.00  0.00     0.245 C 
BRANCH  37  41
HETATM   41  O13 UNL     1      39.388  36.192 -14.732  1.00  0.00    -0.374 OA
ATOM     42  H13 UNL     1      39.742  36.382 -13.871  1.00  0.00     0.211 HD
ENDBRANCH  37  41
BRANCH  37  43
HETATM   43  C19 UNL     1      40.251  35.554 -16.782  1.00  0.00     0.214 C 
HETATM   44  O14 UNL     1      39.521  36.473 -17.224  1.00  0.00    -0.645 OA
HETATM   45  O15 UNL     1      41.201  34.990 -17.586  1.00  0.00    -0.645 OA
ENDBRANCH  37  43
BRANCH  40  46
HETATM   46  O16 UNL     1      39.797  35.049 -12.083  1.00  0.00    -0.365 OA
ATOM     47  H16 UNL     1      39.576  34.837 -11.184  1.00  0.00     0.212 HD
ENDBRANCH  40  46
BRANCH  40  48
HETATM   48  C22 UNL     1      40.552  32.892 -11.701  1.00  0.00     0.227 C 
HETATM   49  O17 UNL     1      40.177  31.725 -11.935  1.00  0.00    -0.645 OA
HETATM   50  O18 UNL     1      41.192  33.193 -10.521  1.00  0.00    -0.645 OA
ENDBRANCH  40  48
ENDBRANCH  34  35
ENDBRANCH  32  34
ENDBRANCH  27  32
ENDBRANCH  26  27
ENDBRANCH   1  26
TORSDOF 18
ENDMDL
MODEL 2
REMARK VINA RESULT: -8.644806697      1.185      1.746
REMARK  18 active torsions:
REMARK  status: ('A' for Active; 'I' for Inactive)
REMARK    1  A    between atoms: O1_2  and  C2_3 
REMARK    2  A    between atoms: C2_3  and  C3_5 
REMARK    3  A    between atoms: C5_8  and  O4_9 
REMARK    4  A    between atoms: C9_18  and  O8_19 
REMARK    5  A    between atoms: C9_18  and  N1_21 
REMARK    6  A    between atoms: N1_21  and  C10_24 
REMARK    7  A    between atoms: C10_24  and  S2_25 
REMARK    8  A    between atoms: S2_25  and  C11_26 
REMARK    9  A    between atoms: C11_26  and  C12_27 
REMARK   10  A    between atoms: C12_27  and  C13_28 
REMARK   11  A    between atoms: C12_27  and  C15_32 
REMARK   12  A    between atoms: C13_28  and  O10_30 
REMARK   13  A    between atoms: C15_32  and  O12_34 
REMARK   14  A    between atoms: O12_34  and  C16_35 
REMARK   15  A    between atoms: C18_37  and  O13_38 
REMARK   16  A    between atoms: C18_37  and  C19_40 
REMARK   17  A    between atoms: C21_45  and  O16_46 
REMARK   18  A    between atoms: C21_45  and  C22_48 
ROOT
HETATM    1  S2  UNL     1      47.131  34.935 -11.211  1.00  0.00    -0.140 SA
ENDROOT
BRANCH   1   2
HETATM    2  C10 UNL     1      47.751  34.785  -9.512  1.00  0.00     0.310 C 
BRANCH   2   3
HETATM    3  N1  UNL     1      48.807  35.706  -9.306  1.00  0.00    -0.025 N 
ATOM      4  H12 UNL     1      48.442  36.658  -9.255  1.00  0.00     0.282 HD
ATOM      5  H11 UNL     1      49.380  35.782 -10.147  1.00  0.00     0.282 HD
BRANCH   3   6
HETATM    6  C9  UNL     1      49.635  35.423  -8.158  1.00  0.00     0.311 C 
HETATM    7  C3  UNL     1      50.980  35.079  -8.605  1.00  0.00     0.106 C 
HETATM    8  C4  UNL     1      51.973  35.938  -8.511  1.00  0.00     0.156 C 
HETATM    9  O3  UNL     1      51.748  37.188  -7.990  1.00  0.00    -0.327 OA
HETATM   10  C5  UNL     1      50.727  37.404  -7.063  1.00  0.00     0.318 C 
HETATM   11  C6  UNL     1      49.588  36.443  -7.098  1.00  0.00     0.276 C 
HETATM   12  O5  UNL     1      48.342  37.126  -7.143  1.00  0.00    -0.355 OA
HETATM   13  S1  UNL     1      49.356  35.752  -5.441  1.00  0.00     0.189 S 
HETATM   14  C7  UNL     1      48.229  37.942  -6.075  1.00  0.00     0.185 C 
HETATM   15  C8  UNL     1      48.596  37.259  -4.784  1.00  0.00     0.170 C 
HETATM   16  O6  UNL     1      48.378  34.640  -5.427  1.00  0.00    -0.224 OA
HETATM   17  O7  UNL     1      50.637  35.442  -4.780  1.00  0.00    -0.224 OA
BRANCH   7  18
HETATM   18  C2  UNL     1      51.313  33.757  -9.179  1.00  0.00     0.295 C 
HETATM   19  O2  UNL     1      50.799  33.397 -10.264  1.00  0.00    -0.259 OA
BRANCH  18  20
HETATM   20  O1  UNL     1      52.196  32.906  -8.519  1.00  0.00    -0.323 OA
HETATM   21  C1  UNL     1      52.613  31.728  -9.227  1.00  0.00     0.213 C 
ENDBRANCH  18  20
ENDBRANCH   7  18
BRANCH  10  22
HETATM   22  O4  UNL     1      51.322  37.497  -5.803  1.00  0.00    -0.367 OA
ATOM     23  H4  UNL     1      50.836  36.928  -5.217  1.00  0.00     0.212 HD
ENDBRANCH  10  22
BRANCH   6  24
HETATM   24  O8  UNL     1      49.096  34.221  -7.617  1.00  0.00    -0.358 OA
ATOM     25  H8  UNL     1      49.030  34.372  -6.681  1.00  0.00     0.213 HD
ENDBRANCH   6  24
ENDBRANCH   3   6
ENDBRANCH   2   3
ENDBRANCH   1   2
BRANCH   1  26
HETATM   26  C11 UNL     1      45.354  34.708 -11.196  1.00  0.00     0.100 C 
BRANCH  26  27
HETATM   27  C12 UNL     1      44.707  34.846 -12.562  1.00  0.00     0.194 C 
BRANCH  27  28
HETATM   28  C13 UNL     1      44.786  36.284 -13.003  1.00  0.00     0.273 C 
HETATM   29  O9  UNL     1      44.843  36.557 -14.225  1.00  0.00    -0.264 OA
BRANCH  28  30
HETATM   30  O10 UNL     1      44.798  37.322 -12.093  1.00  0.00    -0.326 OA
HETATM   31  C14 UNL     1      43.598  37.953 -11.684  1.00  0.00     0.213 C 
ENDBRANCH  28  30
ENDBRANCH  27  28
BRANCH  27  32
HETATM   32  C15 UNL     1      43.294  34.428 -12.384  1.00  0.00     0.278 C 
HETATM   33  O11 UNL     1      43.004  33.425 -11.671  1.00  0.00    -0.264 OA
BRANCH  32  34
HETATM   34  O12 UNL     1      42.277  35.121 -12.987  1.00  0.00    -0.278 OA
BRANCH  34  35
HETATM   35  C16 UNL     1      41.539  34.633 -14.053  1.00  0.00     0.112 C 
HETATM   36  C17 UNL     1      42.058  34.580 -15.262  1.00  0.00     0.060 C 
HETATM   37  C18 UNL     1      41.346  34.077 -16.449  1.00  0.00     0.174 C 
HETATM   38  C20 UNL     1      40.783  32.683 -16.276  1.00  0.00     0.131 C 
HETATM   39  S3  UNL     1      39.836  32.635 -14.743  1.00  0.00    -0.110 SA
HETATM   40  C21 UNL     1      40.151  34.166 -13.834  1.00  0.00     0.245 C 
BRANCH  37  41
HETATM   41  O13 UNL     1      40.333  34.920 -16.874  1.00  0.00    -0.374 OA
ATOM     42  H13 UNL     1      39.539  34.457 -17.117  1.00  0.00     0.211 HD
ENDBRANCH  37  41
BRANCH  37  43
HETATM   43  C19 UNL     1      42.323  33.979 -17.586  1.00  0.00     0.214 C 
HETATM   44  O14 UNL     1      42.353  32.893 -18.214  1.00  0.00    -0.645 OA
HETATM   45  O15 UNL     1      43.154  35.001 -17.951  1.00  0.00    -0.645 OA
ENDBRANCH  37  43
BRANCH  40  46
HETATM   46  O16 UNL     1      39.225  35.165 -14.189  1.00  0.00    -0.365 OA
ATOM     47  H16 UNL     1      38.689  35.409 -13.444  1.00  0.00     0.212 HD
ENDBRANCH  40  46
BRANCH  40  48
HETATM   48  C22 UNL     1      39.878  33.858 -12.390  1.00  0.00     0.227 C 
HETATM   49  O17 UNL     1      39.533  34.821 -11.676  1.00  0.00    -0.645 OA
HETATM   50  O18 UNL     1      39.994  32.599 -11.851  1.00  0.00    -0.645 OA
ENDBRANCH  40  48
ENDBRANCH  34  35
ENDBRANCH  32  34
ENDBRANCH  27  32
ENDBRANCH  26  27
ENDBRANCH   1  26
TORSDOF 18
ENDMDL
MODEL 3
REMARK VINA RESULT: -8.557005988      4.290      9.659
REMARK  18 active torsions:
REMARK  status: ('A' for Active; 'I' for Inactive)
REMARK    1  A    between atoms: O1_2  and  C2_3 
REMARK    2  A    between atoms: C2_3  and  C3_5 
REMARK    3  A    between atoms: C5_8  and  O4_9 
REMARK    4  A    between atoms: C9_18  and  O8_19 
REMARK    5  A    between atoms: C9_18  and  N1_21 
REMARK    6  A    between atoms: N1_21  and  C10_24 
REMARK    7  A    between atoms: C10_24  and  S2_25 
REMARK    8  A    between atoms: S2_25  and  C11_26 
REMARK    9  A    between atoms: C11_26  and  C12_27 
REMARK   10  A    between atoms: C12_27  and  C13_28 
REMARK   11  A    between atoms: C12_27  and  C15_32 
REMARK   12  A    between atoms: C13_28  and  O10_30 
REMARK   13  A    between atoms: C15_32  and  O12_34 
REMARK   14  A    between atoms: O12_34  and  C16_35 
REMARK   15  A    between atoms: C18_37  and  O13_38 
REMARK   16  A    between atoms: C18_37  and  C19_40 
REMARK   17  A    between atoms: C21_45  and  O16_46 
REMARK   18  A    between atoms: C21_45  and  C22_48 
ROOT
HETATM    1  S2  UNL     1      49.216  31.119 -10.590  1.00  0.00    -0.140 SA
ENDROOT
BRANCH   1   2
HETATM    2  C10 UNL     1      50.833  30.733  -9.864  1.00  0.00     0.310 C 
BRANCH   2   3
HETATM    3  N1  UNL     1      50.853  29.384  -9.433  1.00  0.00    -0.025 N 
ATOM      4  H12 UNL     1      50.133  28.846  -9.917  1.00  0.00     0.282 HD
ATOM      5  H11 UNL     1      50.511  29.312  -8.475  1.00  0.00     0.282 HD
BRANCH   3   6
HETATM    6  C9  UNL     1      52.135  28.731  -9.559  1.00  0.00     0.311 C 
HETATM    7  C3  UNL     1      52.760  29.131 -10.814  1.00  0.00     0.106 C 
HETATM    8  C4  UNL     1      53.741  30.009 -10.841  1.00  0.00     0.156 C 
HETATM    9  O3  UNL     1      54.187  30.570  -9.670  1.00  0.00    -0.327 OA
HETATM   10  C5  UNL     1      54.079  29.884  -8.460  1.00  0.00     0.318 C 
HETATM   11  C6  UNL     1      53.006  28.852  -8.379  1.00  0.00     0.276 C 
HETATM   12  O5  UNL     1      52.213  29.026  -7.212  1.00  0.00    -0.355 OA
HETATM   13  S1  UNL     1      53.744  27.281  -7.863  1.00  0.00     0.189 S 
HETATM   14  C7  UNL     1      52.996  28.971  -6.115  1.00  0.00     0.185 C 
HETATM   15  C8  UNL     1      53.942  27.798  -6.139  1.00  0.00     0.170 C 
HETATM   16  O6  UNL     1      52.788  26.154  -7.951  1.00  0.00    -0.224 OA
HETATM   17  O7  UNL     1      55.040  27.031  -8.520  1.00  0.00    -0.224 OA
BRANCH   7  18
HETATM   18  C2  UNL     1      52.343  28.579 -12.121  1.00  0.00     0.295 C 
HETATM   19  O2  UNL     1      53.155  28.540 -13.074  1.00  0.00    -0.259 OA
BRANCH  18  20
HETATM   20  O1  UNL     1      51.047  28.101 -12.302  1.00  0.00    -0.323 OA
HETATM   21  C1  UNL     1      50.897  26.921 -13.106  1.00  0.00     0.213 C 
ENDBRANCH  18  20
ENDBRANCH   7  18
BRANCH  10  22
HETATM   22  O4  UNL     1      55.344  29.378  -8.154  1.00  0.00    -0.367 OA
ATOM     23  H4  UNL     1      55.849  30.089  -7.775  1.00  0.00     0.212 HD
ENDBRANCH  10  22
BRANCH   6  24
HETATM   24  O8  UNL     1      51.818  27.351  -9.716  1.00  0.00    -0.358 OA
ATOM     25  H8  UNL     1      51.033  27.212  -9.201  1.00  0.00     0.213 HD
ENDBRANCH   6  24
ENDBRANCH   3   6
ENDBRANCH   2   3
ENDBRANCH   1   2
BRANCH   1  26
HETATM   26  C11 UNL     1      49.095  32.893 -10.812  1.00  0.00     0.100 C 
BRANCH  26  27
HETATM   27  C12 UNL     1      47.874  33.510 -10.157  1.00  0.00     0.194 C 
BRANCH  27  28
HETATM   28  C13 UNL     1      47.106  34.300 -11.184  1.00  0.00     0.273 C 
HETATM   29  O9  UNL     1      47.612  34.511 -12.311  1.00  0.00    -0.264 OA
BRANCH  28  30
HETATM   30  O10 UNL     1      45.849  34.806 -10.919  1.00  0.00    -0.326 OA
HETATM   31  C14 UNL     1      44.709  34.338 -11.615  1.00  0.00     0.213 C 
ENDBRANCH  28  30
ENDBRANCH  27  28
BRANCH  27  32
HETATM   32  C15 UNL     1      48.394  34.402  -9.091  1.00  0.00     0.278 C 
HETATM   33  O11 UNL     1      48.050  34.235  -7.886  1.00  0.00    -0.264 OA
BRANCH  32  34
HETATM   34  O12 UNL     1      49.259  35.422  -9.391  1.00  0.00    -0.278 OA
BRANCH  34  35
HETATM   35  C16 UNL     1      49.960  36.143  -8.438  1.00  0.00     0.112 C 
HETATM   36  C17 UNL     1      49.366  37.083  -7.734  1.00  0.00     0.060 C 
HETATM   37  C18 UNL     1      50.034  37.896  -6.703  1.00  0.00     0.174 C 
HETATM   38  C20 UNL     1      50.723  37.076  -5.634  1.00  0.00     0.131 C 
HETATM   39  S3  UNL     1      51.774  35.853  -6.439  1.00  0.00    -0.110 SA
HETATM   40  C21 UNL     1      51.395  35.856  -8.207  1.00  0.00     0.245 C 
BRANCH  37  41
HETATM   41  O13 UNL     1      50.940  38.801  -7.227  1.00  0.00    -0.374 OA
ATOM     42  H13 UNL     1      51.842  38.596  -7.010  1.00  0.00     0.211 HD
ENDBRANCH  37  41
BRANCH  37  43
HETATM   43  C19 UNL     1      48.993  38.705  -5.983  1.00  0.00     0.214 C 
HETATM   44  O14 UNL     1      48.419  38.154  -5.013  1.00  0.00    -0.645 OA
HETATM   45  O15 UNL     1      48.660  39.983  -6.336  1.00  0.00    -0.645 OA
ENDBRANCH  37  43
BRANCH  40  46
HETATM   46  O16 UNL     1      52.206  36.776  -8.897  1.00  0.00    -0.365 OA
ATOM     47  H16 UNL     1      52.619  36.365  -9.647  1.00  0.00     0.212 HD
ENDBRANCH  40  46
BRANCH  40  48
HETATM   48  C22 UNL     1      51.791  34.503  -8.722  1.00  0.00     0.227 C 
HETATM   49  O17 UNL     1      51.781  33.571  -7.892  1.00  0.00    -0.645 OA
HETATM   50  O18 UNL     1      52.152  34.267 -10.027  1.00  0.00    -0.645 OA
ENDBRANCH  40  48
ENDBRANCH  34  35
ENDBRANCH  32  34
ENDBRANCH  27  32
ENDBRANCH  26  27
ENDBRANCH   1  26
TORSDOF 18
ENDMDL
MODEL 4
REMARK VINA RESULT: -8.446067708      4.356     10.027
REMARK  18 active torsions:
REMARK  status: ('A' for Active; 'I' for Inactive)
REMARK    1  A    between atoms: O1_2  and  C2_3 
REMARK    2  A    between atoms: C2_3  and  C3_5 
REMARK    3  A    between atoms: C5_8  and  O4_9 
REMARK    4  A    between atoms: C9_18  and  O8_19 
REMARK    5  A    between atoms: C9_18  and  N1_21 
REMARK    6  A    between atoms: N1_21  and  C10_24 
REMARK    7  A    between atoms: C10_24  and  S2_25 
REMARK    8  A    between atoms: S2_25  and  C11_26 
REMARK    9  A    between atoms: C11_26  and  C12_27 
REMARK   10  A    between atoms: C12_27  and  C13_28 
REMARK   11  A    between atoms: C12_27  and  C15_32 
REMARK   12  A    between atoms: C13_28  and  O10_30 
REMARK   13  A    between atoms: C15_32  and  O12_34 
REMARK   14  A    between atoms: O12_34  and  C16_35 
REMARK   15  A    between atoms: C18_37  and  O13_38 
REMARK   16  A    between atoms: C18_37  and  C19_40 
REMARK   17  A    between atoms: C21_45  and  O16_46 
REMARK   18  A    between atoms: C21_45  and  C22_48 
ROOT
HETATM    1  S2  UNL     1      49.583  31.580 -10.303  1.00  0.00    -0.140 SA
ENDROOT
BRANCH   1   2
HETATM    2  C10 UNL     1      51.358  31.340 -10.015  1.00  0.00     0.310 C 
BRANCH   2   3
HETATM    3  N1  UNL     1      51.561  30.179  -9.230  1.00  0.00    -0.025 N 
ATOM      4  H12 UNL     1      50.677  29.691  -9.082  1.00  0.00     0.282 HD
ATOM      5  H11 UNL     1      51.782  30.436  -8.267  1.00  0.00     0.282 HD
BRANCH   3   6
HETATM    6  C9  UNL     1      52.556  29.269  -9.748  1.00  0.00     0.311 C 
HETATM    7  C3  UNL     1      53.634  29.129  -8.777  1.00  0.00     0.106 C 
HETATM    8  C4  UNL     1      53.739  28.056  -8.022  1.00  0.00     0.156 C 
HETATM    9  O3  UNL     1      52.815  27.047  -8.136  1.00  0.00    -0.327 OA
HETATM   10  C5  UNL     1      52.144  26.824  -9.339  1.00  0.00     0.318 C 
HETATM   11  C6  UNL     1      52.021  27.995 -10.254  1.00  0.00     0.276 C 
HETATM   12  O5  UNL     1      50.678  28.173 -10.682  1.00  0.00    -0.355 OA
HETATM   13  S1  UNL     1      52.670  27.535 -11.880  1.00  0.00     0.189 S 
HETATM   14  C7  UNL     1      50.241  27.054 -11.296  1.00  0.00     0.185 C 
HETATM   15  C8  UNL     1      51.225  26.531 -12.310  1.00  0.00     0.170 C 
HETATM   16  O6  UNL     1      52.774  28.696 -12.794  1.00  0.00    -0.224 OA
HETATM   17  O7  UNL     1      53.899  26.727 -11.784  1.00  0.00    -0.224 OA
BRANCH   7  18
HETATM   18  C2  UNL     1      54.672  30.165  -8.586  1.00  0.00     0.295 C 
HETATM   19  O2  UNL     1      54.350  31.375  -8.542  1.00  0.00    -0.259 OA
BRANCH  18  20
HETATM   20  O1  UNL     1      56.011  29.804  -8.454  1.00  0.00    -0.323 OA
HETATM   21  C1  UNL     1      56.683  30.229  -7.259  1.00  0.00     0.213 C 
ENDBRANCH  18  20
ENDBRANCH   7  18
BRANCH  10  22
HETATM   22  O4  UNL     1      52.737  25.717  -9.948  1.00  0.00    -0.367 OA
ATOM     23  H4  UNL     1      52.486  25.730 -10.865  1.00  0.00     0.212 HD
ENDBRANCH  10  22
BRANCH   6  24
HETATM   24  O8  UNL     1      53.129  29.960 -10.854  1.00  0.00    -0.358 OA
ATOM     25  H8  UNL     1      52.653  30.780 -10.914  1.00  0.00     0.213 HD
ENDBRANCH   6  24
ENDBRANCH   3   6
ENDBRANCH   2   3
ENDBRANCH   1   2
BRANCH   1  26
HETATM   26  C11 UNL     1      49.254  33.337 -10.430  1.00  0.00     0.100 C 
BRANCH  26  27
HETATM   27  C12 UNL     1      47.936  33.760  -9.810  1.00  0.00     0.194 C 
BRANCH  27  28
HETATM   28  C13 UNL     1      47.113  34.486 -10.841  1.00  0.00     0.273 C 
HETATM   29  O9  UNL     1      47.620  34.774 -11.950  1.00  0.00    -0.264 OA
BRANCH  28  30
HETATM   30  O10 UNL     1      45.803  34.848 -10.599  1.00  0.00    -0.326 OA
HETATM   31  C14 UNL     1      44.797  34.657 -11.577  1.00  0.00     0.213 C 
ENDBRANCH  28  30
ENDBRANCH  27  28
BRANCH  27  32
HETATM   32  C15 UNL     1      48.289  34.665  -8.688  1.00  0.00     0.278 C 
HETATM   33  O11 UNL     1      47.990  34.363  -7.498  1.00  0.00    -0.264 OA
BRANCH  32  34
HETATM   34  O12 UNL     1      48.946  35.845  -8.920  1.00  0.00    -0.278 OA
BRANCH  34  35
HETATM   35  C16 UNL     1      49.505  36.625  -7.921  1.00  0.00     0.112 C 
HETATM   36  C17 UNL     1      48.758  37.443  -7.210  1.00  0.00     0.060 C 
HETATM   37  C18 UNL     1      49.268  38.306  -6.131  1.00  0.00     0.174 C 
HETATM   38  C20 UNL     1      50.036  37.558  -5.064  1.00  0.00     0.131 C 
HETATM   39  S3  UNL     1      51.279  36.530  -5.869  1.00  0.00    -0.110 SA
HETATM   40  C21 UNL     1      50.958  36.542  -7.648  1.00  0.00     0.245 C 
BRANCH  37  41
HETATM   41  O13 UNL     1      50.047  39.353  -6.594  1.00  0.00    -0.374 OA
ATOM     42  H13 UNL     1      49.767  39.681  -7.440  1.00  0.00     0.211 HD
ENDBRANCH  37  41
BRANCH  37  43
HETATM   43  C19 UNL     1      48.098  38.929  -5.423  1.00  0.00     0.214 C 
HETATM   44  O14 UNL     1      47.775  40.088  -5.775  1.00  0.00    -0.645 OA
HETATM   45  O15 UNL     1      47.393  38.294  -4.438  1.00  0.00    -0.645 OA
ENDBRANCH  37  43
BRANCH  40  46
HETATM   46  O16 UNL     1      51.647  37.594  -8.280  1.00  0.00    -0.365 OA
ATOM     47  H16 UNL     1      52.368  37.897  -7.742  1.00  0.00     0.212 HD
ENDBRANCH  40  46
BRANCH  40  48
HETATM   48  C22 UNL     1      51.564  35.280  -8.190  1.00  0.00     0.227 C 
HETATM   49  O17 UNL     1      51.557  34.292  -7.429  1.00  0.00    -0.645 OA
HETATM   50  O18 UNL     1      52.108  35.184  -9.450  1.00  0.00    -0.645 OA
ENDBRANCH  40  48
ENDBRANCH  34  35
ENDBRANCH  32  34
ENDBRANCH  27  32
ENDBRANCH  26  27
ENDBRANCH   1  26
TORSDOF 18
ENDMDL
MODEL 5
REMARK VINA RESULT: -8.413246215      4.280     10.128
REMARK  18 active torsions:
REMARK  status: ('A' for Active; 'I' for Inactive)
REMARK    1  A    between atoms: O1_2  and  C2_3 
REMARK    2  A    between atoms: C2_3  and  C3_5 
REMARK    3  A    between atoms: C5_8  and  O4_9 
REMARK    4  A    between atoms: C9_18  and  O8_19 
REMARK    5  A    between atoms: C9_18  and  N1_21 
REMARK    6  A    between atoms: N1_21  and  C10_24 
REMARK    7  A    between atoms: C10_24  and  S2_25 
REMARK    8  A    between atoms: S2_25  and  C11_26 
REMARK    9  A    between atoms: C11_26  and  C12_27 
REMARK   10  A    between atoms: C12_27  and  C13_28 
REMARK   11  A    between atoms: C12_27  and  C15_32 
REMARK   12  A    between atoms: C13_28  and  O10_30 
REMARK   13  A    between atoms: C15_32  and  O12_34 
REMARK   14  A    between atoms: O12_34  and  C16_35 
REMARK   15  A    between atoms: C18_37  and  O13_38 
REMARK   16  A    between atoms: C18_37  and  C19_40 
REMARK   17  A    between atoms: C21_45  and  O16_46 
REMARK   18  A    between atoms: C21_45  and  C22_48 
ROOT
HETATM    1  S2  UNL     1      49.296  31.316 -10.565  1.00  0.00    -0.140 SA
ENDROOT
BRANCH   1   2
HETATM    2  C10 UNL     1      50.926  30.875  -9.901  1.00  0.00     0.310 C 
BRANCH   2   3
HETATM    3  N1  UNL     1      50.965  29.489  -9.614  1.00  0.00    -0.025 N 
ATOM      4  H12 UNL     1      50.221  29.001 -10.114  1.00  0.00     0.282 HD
ATOM      5  H11 UNL     1      50.671  29.317  -8.652  1.00  0.00     0.282 HD
BRANCH   3   6
HETATM    6  C9  UNL     1      52.238  28.858  -9.869  1.00  0.00     0.311 C 
HETATM    7  C3  UNL     1      52.689  28.172  -8.664  1.00  0.00     0.106 C 
HETATM    8  C4  UNL     1      52.604  26.864  -8.548  1.00  0.00     0.156 C 
HETATM    9  O3  UNL     1      52.075  26.120  -9.574  1.00  0.00    -0.327 OA
HETATM   10  C5  UNL     1      52.154  26.564 -10.894  1.00  0.00     0.318 C 
HETATM   11  C6  UNL     1      52.285  28.037 -11.090  1.00  0.00     0.276 C 
HETATM   12  O5  UNL     1      51.331  28.517 -12.028  1.00  0.00    -0.355 OA
HETATM   13  S1  UNL     1      53.736  28.362 -12.123  1.00  0.00     0.189 S 
HETATM   14  C7  UNL     1      51.486  27.875 -13.205  1.00  0.00     0.185 C 
HETATM   15  C8  UNL     1      52.925  27.820 -13.649  1.00  0.00     0.170 C 
HETATM   16  O6  UNL     1      54.059  29.805 -12.202  1.00  0.00    -0.224 OA
HETATM   17  O7  UNL     1      54.879  27.502 -11.767  1.00  0.00    -0.224 OA
BRANCH   7  18
HETATM   18  C2  UNL     1      53.270  28.893  -7.510  1.00  0.00     0.295 C 
HETATM   19  O2  UNL     1      52.814  30.010  -7.174  1.00  0.00    -0.259 OA
BRANCH  18  20
HETATM   20  O1  UNL     1      54.325  28.335  -6.792  1.00  0.00    -0.323 OA
HETATM   21  C1  UNL     1      54.214  28.349  -5.360  1.00  0.00     0.213 C 
ENDBRANCH  18  20
ENDBRANCH   7  18
BRANCH  10  22
HETATM   22  O4  UNL     1      53.172  25.840 -11.517  1.00  0.00    -0.367 OA
ATOM     23  H4  UNL     1      53.636  26.439 -12.091  1.00  0.00     0.212 HD
ENDBRANCH  10  22
BRANCH   6  24
HETATM   24  O8  UNL     1      53.144  29.942 -10.050  1.00  0.00    -0.358 OA
ATOM     25  H8  UNL     1      53.327  29.966 -10.981  1.00  0.00     0.213 HD
ENDBRANCH   6  24
ENDBRANCH   3   6
ENDBRANCH   2   3
ENDBRANCH   1   2
BRANCH   1  26
HETATM   26  C11 UNL     1      49.161  33.102 -10.618  1.00  0.00     0.100 C 
BRANCH  26  27
HETATM   27  C12 UNL     1      47.884  33.638 -10.000  1.00  0.00     0.194 C 
BRANCH  27  28
HETATM   28  C13 UNL     1      47.095  34.374 -11.051  1.00  0.00     0.273 C 
HETATM   29  O9  UNL     1      47.646  34.696 -12.129  1.00  0.00    -0.264 OA
BRANCH  28  30
HETATM   30  O10 UNL     1      45.769  34.709 -10.860  1.00  0.00    -0.326 OA
HETATM   31  C14 UNL     1      44.842  34.666 -11.929  1.00  0.00     0.213 C 
ENDBRANCH  28  30
ENDBRANCH  27  28
BRANCH  27  32
HETATM   32  C15 UNL     1      48.314  34.565  -8.923  1.00  0.00     0.278 C 
HETATM   33  O11 UNL     1      47.954  34.374  -7.726  1.00  0.00    -0.264 OA
BRANCH  32  34
HETATM   34  O12 UNL     1      49.111  35.644  -9.204  1.00  0.00    -0.278 OA
BRANCH  34  35
HETATM   35  C16 UNL     1      49.727  36.420  -8.235  1.00  0.00     0.112 C 
HETATM   36  C17 UNL     1      49.045  37.327  -7.567  1.00  0.00     0.060 C 
HETATM   37  C18 UNL     1      49.618  38.193  -6.523  1.00  0.00     0.174 C 
HETATM   38  C20 UNL     1      50.318  37.433  -5.418  1.00  0.00     0.131 C 
HETATM   39  S3  UNL     1      51.477  36.274  -6.166  1.00  0.00    -0.110 SA
HETATM   40  C21 UNL     1      51.167  36.232  -7.946  1.00  0.00     0.245 C 
BRANCH  37  41
HETATM   41  O13 UNL     1      50.482  39.151  -7.025  1.00  0.00    -0.374 OA
ATOM     42  H13 UNL     1      51.155  39.408  -6.406  1.00  0.00     0.211 HD
ENDBRANCH  37  41
BRANCH  37  43
HETATM   43  C19 UNL     1      48.498  38.939  -5.853  1.00  0.00     0.214 C 
HETATM   44  O14 UNL     1      47.757  38.279  -5.088  1.00  0.00    -0.645 OA
HETATM   45  O15 UNL     1      48.268  40.273  -6.043  1.00  0.00    -0.645 OA
ENDBRANCH  37  43
BRANCH  40  46
HETATM   46  O16 UNL     1      51.942  37.196  -8.618  1.00  0.00    -0.365 OA
ATOM     47  H16 UNL     1      51.946  37.033  -9.554  1.00  0.00     0.212 HD
ENDBRANCH  40  46
BRANCH  40  48
HETATM   48  C22 UNL     1      51.671  34.902  -8.427  1.00  0.00     0.227 C 
HETATM   49  O17 UNL     1      51.678  33.978  -7.590  1.00  0.00    -0.645 OA
HETATM   50  O18 UNL     1      52.111  34.680  -9.711  1.00  0.00    -0.645 OA
ENDBRANCH  40  48
ENDBRANCH  34  35
ENDBRANCH  32  34
ENDBRANCH  27  32
ENDBRANCH  26  27
ENDBRANCH   1  26
TORSDOF 18
ENDMDL
