MODEL 1
REMARK VINA RESULT: -6.140627350      0.000      0.000
REMARK  4 active torsions:
REMARK  status: ('A' for Active; 'I' for Inactive)
REMARK    1  A    between atoms: C2_2  and  C4_4 
REMARK    2  A    between atoms: C5_5  and  C6_6 
REMARK    3  A    between atoms: C6_6  and  C7_7 
REMARK    4  A    between atoms: C10_13  and  S1_14 
ROOT
HETATM    1  C4  UNL     1     -19.527   1.114 -16.562  1.00  0.00     0.011 A 
HETATM    2  C5  UNL     1     -18.664  -0.039 -16.204  1.00  0.00     0.010 A 
HETATM    3  C10 UNL     1     -18.248   1.309 -15.836  1.00  0.00     0.088 A 
ENDROOT
BRANCH   2   4
HETATM    4  C6  UNL     1     -18.007  -0.918 -17.205  1.00  0.00     0.039 C 
BRANCH   4   5
HETATM    5  C7  UNL     1     -17.208  -0.254 -18.258  1.00  0.00     0.193 C 
HETATM    6  N1  UNL     1     -17.889   0.338 -19.378  1.00  0.00    -0.122 NA
HETATM    7  N2  UNL     1     -16.830  -0.088 -20.176  1.00  0.00    -0.267 N 
HETATM    8  C8  UNL     1     -16.185   0.387 -21.371  1.00  0.00     0.176 C 
HETATM    9  C9  UNL     1     -16.676  -1.185 -19.296  1.00  0.00     0.256 C 
HETATM   10  O1  UNL     1     -16.273  -2.367 -19.402  1.00  0.00    -0.270 OA
ENDBRANCH   4   5
ENDBRANCH   2   4
BRANCH   1  11
HETATM   11  C2  UNL     1     -20.807   1.377 -15.799  1.00  0.00    -0.017 C 
HETATM   12  C1  UNL     1     -21.000   2.862 -15.577  1.00  0.00     0.010 C 
HETATM   13  C3  UNL     1     -22.010   0.863 -16.571  1.00  0.00     0.010 C 
ENDBRANCH   1  11
BRANCH   3  14
HETATM   14  S1  UNL     1     -18.309   1.768 -14.096  1.00  0.00     0.016 S 
HETATM   15  C11 UNL     1     -17.396   0.509 -13.234  1.00  0.00     0.127 C 
HETATM   16  O2  UNL     1     -17.441   3.216 -13.917  1.00  0.00    -0.258 OA
ENDBRANCH   3  14
TORSDOF 4
ENDMDL
MODEL 2
REMARK VINA RESULT: -6.050986766      1.751      1.883
REMARK  4 active torsions:
REMARK  status: ('A' for Active; 'I' for Inactive)
REMARK    1  A    between atoms: C2_2  and  C4_4 
REMARK    2  A    between atoms: C5_5  and  C6_6 
REMARK    3  A    between atoms: C6_6  and  C7_7 
REMARK    4  A    between atoms: C10_13  and  S1_14 
ROOT
HETATM    1  C4  UNL     1     -19.978   2.386 -16.569  1.00  0.00     0.011 A 
HETATM    2  C5  UNL     1     -18.692   1.781 -16.998  1.00  0.00     0.010 A 
HETATM    3  C10 UNL     1     -18.705   2.727 -15.888  1.00  0.00     0.088 A 
ENDROOT
BRANCH   2   4
HETATM    4  C6  UNL     1     -18.082   2.003 -18.333  1.00  0.00     0.039 C 
BRANCH   4   5
HETATM    5  C7  UNL     1     -17.946   0.823 -19.214  1.00  0.00     0.193 C 
HETATM    6  N1  UNL     1     -16.982  -0.188 -18.876  1.00  0.00    -0.122 NA
HETATM    7  N2  UNL     1     -16.737  -0.333 -20.239  1.00  0.00    -0.267 N 
HETATM    8  C8  UNL     1     -16.340  -1.410 -21.106  1.00  0.00     0.176 C 
HETATM    9  C9  UNL     1     -17.051   1.039 -20.388  1.00  0.00     0.256 C 
HETATM   10  O1  UNL     1     -16.703   1.957 -21.167  1.00  0.00    -0.270 OA
ENDBRANCH   4   5
ENDBRANCH   2   4
BRANCH   1  11
HETATM   11  C2  UNL     1     -20.986   1.570 -15.792  1.00  0.00    -0.017 C 
HETATM   12  C1  UNL     1     -21.685   2.427 -14.759  1.00  0.00     0.010 C 
HETATM   13  C3  UNL     1     -22.049   1.001 -16.718  1.00  0.00     0.010 C 
ENDBRANCH   1  11
BRANCH   3  14
HETATM   14  S1  UNL     1     -18.421   2.087 -14.229  1.00  0.00     0.016 S 
HETATM   15  C11 UNL     1     -17.403   0.645 -14.436  1.00  0.00     0.127 C 
HETATM   16  O2  UNL     1     -17.489   3.232 -13.391  1.00  0.00    -0.258 OA
ENDBRANCH   3  14
TORSDOF 4
ENDMDL
MODEL 3
REMARK VINA RESULT: -5.976654617      1.975      2.414
REMARK  4 active torsions:
REMARK  status: ('A' for Active; 'I' for Inactive)
REMARK    1  A    between atoms: C2_2  and  C4_4 
REMARK    2  A    between atoms: C5_5  and  C6_6 
REMARK    3  A    between atoms: C6_6  and  C7_7 
REMARK    4  A    between atoms: C10_13  and  S1_14 
ROOT
HETATM    1  C4  UNL     1     -20.416   2.340 -15.255  1.00  0.00     0.011 A 
HETATM    2  C5  UNL     1     -19.168   1.784 -15.836  1.00  0.00     0.010 A 
HETATM    3  C10 UNL     1     -19.416   1.648 -14.405  1.00  0.00     0.088 A 
ENDROOT
BRANCH   2   4
HETATM    4  C6  UNL     1     -18.113   2.615 -16.469  1.00  0.00     0.039 C 
BRANCH   4   5
HETATM    5  C7  UNL     1     -17.705   2.250 -17.843  1.00  0.00     0.193 C 
HETATM    6  N1  UNL     1     -18.714   1.828 -18.777  1.00  0.00    -0.122 NA
HETATM    7  N2  UNL     1     -17.788   0.920 -19.283  1.00  0.00    -0.267 N 
HETATM    8  C8  UNL     1     -17.520   0.328 -20.567  1.00  0.00     0.176 C 
HETATM    9  C9  UNL     1     -17.233   0.841 -17.984  1.00  0.00     0.256 C 
HETATM   10  O1  UNL     1     -16.634  -0.036 -17.318  1.00  0.00    -0.270 OA
ENDBRANCH   4   5
ENDBRANCH   2   4
BRANCH   1  11
HETATM   11  C2  UNL     1     -21.740   1.644 -15.478  1.00  0.00    -0.017 C 
HETATM   12  C1  UNL     1     -22.789   2.174 -14.525  1.00  0.00     0.010 C 
HETATM   13  C3  UNL     1     -22.239   1.876 -16.894  1.00  0.00     0.010 C 
ENDBRANCH   1  11
BRANCH   3  14
HETATM   14  S1  UNL     1     -19.816   0.012 -13.768  1.00  0.00     0.016 S 
HETATM   15  C11 UNL     1     -19.173  -1.140 -14.961  1.00  0.00     0.127 C 
HETATM   16  O2  UNL     1     -18.927  -0.213 -12.339  1.00  0.00    -0.258 OA
ENDBRANCH   3  14
TORSDOF 4
ENDMDL
MODEL 4
REMARK VINA RESULT: -5.951231315      1.777      2.589
REMARK  4 active torsions:
REMARK  status: ('A' for Active; 'I' for Inactive)
REMARK    1  A    between atoms: C2_2  and  C4_4 
REMARK    2  A    between atoms: C5_5  and  C6_6 
REMARK    3  A    between atoms: C6_6  and  C7_7 
REMARK    4  A    between atoms: C10_13  and  S1_14 
ROOT
HETATM    1  C4  UNL     1     -19.350  -0.718 -15.071  1.00  0.00     0.011 A 
HETATM    2  C5  UNL     1     -18.392  -0.179 -16.068  1.00  0.00     0.010 A 
HETATM    3  C10 UNL     1     -19.751   0.348 -16.022  1.00  0.00     0.088 A 
ENDROOT
BRANCH   2   4
HETATM    4  C6  UNL     1     -17.802  -0.989 -17.165  1.00  0.00     0.039 C 
BRANCH   4   5
HETATM    5  C7  UNL     1     -17.061  -0.257 -18.215  1.00  0.00     0.193 C 
HETATM    6  N1  UNL     1     -17.803   0.492 -19.194  1.00  0.00    -0.122 NA
HETATM    7  N2  UNL     1     -16.853   0.101 -20.133  1.00  0.00    -0.267 N 
HETATM    8  C8  UNL     1     -16.290   0.670 -21.329  1.00  0.00     0.176 C 
HETATM    9  C9  UNL     1     -16.689  -1.094 -19.393  1.00  0.00     0.256 C 
HETATM   10  O1  UNL     1     -16.374  -2.277 -19.662  1.00  0.00    -0.270 OA
ENDBRANCH   4   5
ENDBRANCH   2   4
BRANCH   1  11
HETATM   11  C2  UNL     1     -19.229  -0.340 -13.612  1.00  0.00    -0.017 C 
HETATM   12  C1  UNL     1     -20.583  -0.379 -12.936  1.00  0.00     0.010 C 
HETATM   13  C3  UNL     1     -18.316  -1.307 -12.877  1.00  0.00     0.010 C 
ENDBRANCH   1  11
BRANCH   3  14
HETATM   14  S1  UNL     1     -19.989   2.017 -15.390  1.00  0.00     0.016 S 
HETATM   15  C11 UNL     1     -18.487   2.892 -15.764  1.00  0.00     0.127 C 
HETATM   16  O2  UNL     1     -21.222   2.740 -16.305  1.00  0.00    -0.258 OA
ENDBRANCH   3  14
TORSDOF 4
ENDMDL
MODEL 5
REMARK VINA RESULT: -5.917613276      1.947      1.993
REMARK  4 active torsions:
REMARK  status: ('A' for Active; 'I' for Inactive)
REMARK    1  A    between atoms: C2_2  and  C4_4 
REMARK    2  A    between atoms: C5_5  and  C6_6 
REMARK    3  A    between atoms: C6_6  and  C7_7 
REMARK    4  A    between atoms: C10_13  and  S1_14 
ROOT
HETATM    1  C4  UNL     1     -19.459   1.553 -15.724  1.00  0.00     0.011 A 
HETATM    2  C5  UNL     1     -18.603   0.369 -15.987  1.00  0.00     0.010 A 
HETATM    3  C10 UNL     1     -18.751   0.857 -14.621  1.00  0.00     0.088 A 
ENDROOT
BRANCH   2   4
HETATM    4  C6  UNL     1     -17.364   0.413 -16.805  1.00  0.00     0.039 C 
BRANCH   4   5
HETATM    5  C7  UNL     1     -17.338  -0.419 -18.027  1.00  0.00     0.193 C 
HETATM    6  N1  UNL     1     -16.077  -0.933 -18.490  1.00  0.00    -0.122 NA
HETATM    7  N2  UNL     1     -16.532  -0.726 -19.790  1.00  0.00    -0.267 N 
HETATM    8  C8  UNL     1     -16.321  -1.353 -21.068  1.00  0.00     0.176 C 
HETATM    9  C9  UNL     1     -17.286   0.365 -19.296  1.00  0.00     0.256 C 
HETATM   10  O1  UNL     1     -17.691   1.456 -19.761  1.00  0.00    -0.270 OA
ENDBRANCH   4   5
ENDBRANCH   2   4
BRANCH   1  11
HETATM   11  C2  UNL     1     -20.966   1.432 -15.769  1.00  0.00    -0.017 C 
HETATM   12  C1  UNL     1     -21.613   2.506 -14.921  1.00  0.00     0.010 C 
HETATM   13  C3  UNL     1     -21.478   1.592 -17.190  1.00  0.00     0.010 C 
ENDBRANCH   1  11
BRANCH   3  14
HETATM   14  S1  UNL     1     -19.719  -0.133 -13.469  1.00  0.00     0.016 S 
HETATM   15  C11 UNL     1     -18.577  -1.291 -12.753  1.00  0.00     0.127 C 
HETATM   16  O2  UNL     1     -20.231   0.893 -12.217  1.00  0.00    -0.258 OA
ENDBRANCH   3  14
TORSDOF 4
ENDMDL
