MODEL 1
REMARK VINA RESULT: -5.575583374      0.000      0.000
REMARK  5 active torsions:
REMARK  status: ('A' for Active; 'I' for Inactive)
REMARK    1  A    between atoms: C2_2  and  N1_3 
REMARK    2  A    between atoms: N1_3  and  C5_6 
REMARK    3  A    between atoms: C5_6  and  C6_7 
REMARK    4  A    between atoms: C6_7  and  O1_9 
REMARK    5  A    between atoms: C6_7  and  C8_11 
ROOT
HETATM    1  C6  UNL     1     -17.913   1.559 -16.584  1.00  0.00     0.104 C 
HETATM    2  C7  UNL     1     -16.765   0.907 -15.746  1.00  0.00     0.050 C 
ENDROOT
BRANCH   1   3
HETATM    3  C5  UNL     1     -19.130   0.863 -16.147  1.00  0.00     0.276 C 
BRANCH   3   4
HETATM    4  N1  UNL     1     -20.074   1.386 -15.279  1.00  0.00    -0.072 N 
HETATM    5  C3  UNL     1     -21.116   0.361 -15.004  1.00  0.00     0.272 C 
HETATM    6  C4  UNL     1     -19.749   1.934 -14.021  1.00  0.00     0.272 C 
BRANCH   4   7
HETATM    7  C2  UNL     1     -20.877   2.434 -15.957  1.00  0.00     0.232 C 
HETATM    8  C1  UNL     1     -21.916   1.791 -16.870  1.00  0.00     0.034 C 
ENDBRANCH   4   7
ENDBRANCH   3   4
ENDBRANCH   1   3
BRANCH   1   9
HETATM    9  O1  UNL     1     -17.774   2.893 -16.271  1.00  0.00    -0.386 OA
ATOM     10  H1  UNL     1     -17.183   3.419 -16.795  1.00  0.00     0.210 HD
ENDBRANCH   1   9
BRANCH   1  11
HETATM   11  C8  UNL     1     -17.530   1.379 -18.038  1.00  0.00     0.157 C 
HETATM   12  C9  UNL     1     -18.714   1.554 -18.957  1.00  0.00     0.036 C 
HETATM   13  C10 UNL     1     -18.391   1.292 -20.375  1.00  0.00     0.022 C 
HETATM   14  C11 UNL     1     -16.965   1.263 -20.760  1.00  0.00     0.114 C 
HETATM   15  N2  UNL     1     -16.313   0.003 -20.743  1.00  0.00    -0.419 N 
HETATM   16  C12 UNL     1     -17.029  -1.091 -20.178  1.00  0.00     0.140 C 
ATOM     17  H2  UNL     1     -15.373  -0.115 -21.121  1.00  0.00     0.153 HD
HETATM   18  C13 UNL     1     -17.466  -0.839 -18.750  1.00  0.00     0.187 C 
HETATM   19  O2  UNL     1     -16.787   0.276 -18.317  1.00  0.00    -0.381 OA
ENDBRANCH   1  11
TORSDOF 5
ENDMDL
MODEL 2
REMARK VINA RESULT: -5.242129842      1.110      1.823
REMARK  5 active torsions:
REMARK  status: ('A' for Active; 'I' for Inactive)
REMARK    1  A    between atoms: C2_2  and  N1_3 
REMARK    2  A    between atoms: N1_3  and  C5_6 
REMARK    3  A    between atoms: C5_6  and  C6_7 
REMARK    4  A    between atoms: C6_7  and  O1_9 
REMARK    5  A    between atoms: C6_7  and  C8_11 
ROOT
HETATM    1  C6  UNL     1     -17.778   1.131 -17.122  1.00  0.00     0.104 C 
HETATM    2  C7  UNL     1     -16.461   0.954 -16.300  1.00  0.00     0.050 C 
ENDROOT
BRANCH   1   3
HETATM    3  C5  UNL     1     -18.844   0.696 -16.210  1.00  0.00     0.276 C 
BRANCH   3   4
HETATM    4  N1  UNL     1     -19.974   1.434 -15.901  1.00  0.00    -0.072 N 
HETATM    5  C3  UNL     1     -20.918   0.591 -15.119  1.00  0.00     0.272 C 
HETATM    6  C4  UNL     1     -19.929   2.670 -15.223  1.00  0.00     0.272 C 
BRANCH   4   7
HETATM    7  C2  UNL     1     -20.772   1.696 -17.124  1.00  0.00     0.232 C 
HETATM    8  C1  UNL     1     -22.256   1.764 -16.779  1.00  0.00     0.034 C 
ENDBRANCH   4   7
ENDBRANCH   3   4
ENDBRANCH   1   3
BRANCH   1   9
HETATM    9  O1  UNL     1     -17.722   2.462 -17.472  1.00  0.00    -0.386 OA
ATOM     10  H1  UNL     1     -16.869   2.878 -17.521  1.00  0.00     0.210 HD
ENDBRANCH   1   9
BRANCH   1  11
HETATM   11  C8  UNL     1     -17.604   0.309 -18.382  1.00  0.00     0.157 C 
HETATM   12  C9  UNL     1     -16.311  -0.468 -18.372  1.00  0.00     0.036 C 
HETATM   13  C10 UNL     1     -16.068  -1.206 -19.629  1.00  0.00     0.022 C 
HETATM   14  C11 UNL     1     -17.212  -1.397 -20.544  1.00  0.00     0.114 C 
HETATM   15  N2  UNL     1     -17.400  -0.426 -21.562  1.00  0.00    -0.419 N 
HETATM   16  C12 UNL     1     -16.591   0.745 -21.499  1.00  0.00     0.140 C 
ATOM     17  H2  UNL     1     -18.084  -0.561 -22.306  1.00  0.00     0.153 HD
HETATM   18  C13 UNL     1     -16.732   1.493 -20.190  1.00  0.00     0.187 C 
HETATM   19  O2  UNL     1     -17.830   0.969 -19.548  1.00  0.00    -0.381 OA
ENDBRANCH   1  11
TORSDOF 5
ENDMDL
MODEL 3
REMARK VINA RESULT: -5.208030430      1.144      1.383
REMARK  5 active torsions:
REMARK  status: ('A' for Active; 'I' for Inactive)
REMARK    1  A    between atoms: C2_2  and  N1_3 
REMARK    2  A    between atoms: N1_3  and  C5_6 
REMARK    3  A    between atoms: C5_6  and  C6_7 
REMARK    4  A    between atoms: C6_7  and  O1_9 
REMARK    5  A    between atoms: C6_7  and  C8_11 
ROOT
HETATM    1  C6  UNL     1     -17.851   0.266 -16.954  1.00  0.00     0.104 C 
HETATM    2  C7  UNL     1     -18.046  -1.285 -16.938  1.00  0.00     0.050 C 
ENDROOT
BRANCH   1   3
HETATM    3  C5  UNL     1     -19.146   0.805 -16.518  1.00  0.00     0.276 C 
BRANCH   3   4
HETATM    4  N1  UNL     1     -19.311   1.848 -15.623  1.00  0.00    -0.072 N 
HETATM    5  C3  UNL     1     -19.423   1.304 -14.243  1.00  0.00     0.272 C 
HETATM    6  C4  UNL     1     -18.415   2.932 -15.525  1.00  0.00     0.272 C 
BRANCH   4   7
HETATM    7  C2  UNL     1     -20.648   2.471 -15.793  1.00  0.00     0.232 C 
HETATM    8  C1  UNL     1     -21.422   1.759 -16.897  1.00  0.00     0.034 C 
ENDBRANCH   4   7
ENDBRANCH   3   4
ENDBRANCH   1   3
BRANCH   1   9
HETATM    9  O1  UNL     1     -16.765   0.427 -16.123  1.00  0.00    -0.386 OA
ATOM     10  H1  UNL     1     -15.968   0.793 -16.489  1.00  0.00     0.210 HD
ENDBRANCH   1   9
BRANCH   1  11
HETATM   11  C8  UNL     1     -17.420   0.624 -18.360  1.00  0.00     0.157 C 
HETATM   12  C9  UNL     1     -18.579   1.106 -19.198  1.00  0.00     0.036 C 
HETATM   13  C10 UNL     1     -18.207   1.373 -20.603  1.00  0.00     0.022 C 
HETATM   14  C11 UNL     1     -16.770   1.497 -20.920  1.00  0.00     0.114 C 
HETATM   15  N2  UNL     1     -16.091   0.322 -21.333  1.00  0.00    -0.419 N 
HETATM   16  C12 UNL     1     -16.799  -0.909 -21.223  1.00  0.00     0.140 C 
ATOM     17  H2  UNL     1     -15.138   0.357 -21.692  1.00  0.00     0.153 HD
HETATM   18  C13 UNL     1     -17.286  -1.190 -19.817  1.00  0.00     0.187 C 
HETATM   19  O2  UNL     1     -16.645  -0.298 -18.989  1.00  0.00    -0.381 OA
ENDBRANCH   1  11
TORSDOF 5
ENDMDL
MODEL 4
REMARK VINA RESULT: -5.192929560      1.466      5.191
REMARK  5 active torsions:
REMARK  status: ('A' for Active; 'I' for Inactive)
REMARK    1  A    between atoms: C2_2  and  N1_3 
REMARK    2  A    between atoms: N1_3  and  C5_6 
REMARK    3  A    between atoms: C5_6  and  C6_7 
REMARK    4  A    between atoms: C6_7  and  O1_9 
REMARK    5  A    between atoms: C6_7  and  C8_11 
ROOT
HETATM    1  C6  UNL     1     -17.618   1.327 -17.752  1.00  0.00     0.104 C 
HETATM    2  C7  UNL     1     -17.613   2.794 -18.292  1.00  0.00     0.050 C 
ENDROOT
BRANCH   1   3
HETATM    3  C5  UNL     1     -17.413   0.494 -18.945  1.00  0.00     0.276 C 
BRANCH   3   4
HETATM    4  N1  UNL     1     -17.002  -0.828 -18.928  1.00  0.00    -0.072 N 
HETATM    5  C3  UNL     1     -15.525  -0.886 -18.767  1.00  0.00     0.272 C 
HETATM    6  C4  UNL     1     -17.513  -1.785 -18.028  1.00  0.00     0.272 C 
BRANCH   4   7
HETATM    7  C2  UNL     1     -17.167  -1.438 -20.271  1.00  0.00     0.232 C 
HETATM    8  C1  UNL     1     -17.529  -0.368 -21.294  1.00  0.00     0.034 C 
ENDBRANCH   4   7
ENDBRANCH   3   4
ENDBRANCH   1   3
BRANCH   1   9
HETATM    9  O1  UNL     1     -16.618   1.368 -16.805  1.00  0.00    -0.386 OA
ATOM     10  H1  UNL     1     -16.520   2.158 -16.288  1.00  0.00     0.210 HD
ENDBRANCH   1   9
BRANCH   1  11
HETATM   11  C8  UNL     1     -18.936   1.146 -17.031  1.00  0.00     0.157 C 
HETATM   12  C9  UNL     1     -20.074   1.817 -17.762  1.00  0.00     0.036 C 
HETATM   13  C10 UNL     1     -21.357   1.738 -17.034  1.00  0.00     0.022 C 
HETATM   14  C11 UNL     1     -21.464   0.755 -15.937  1.00  0.00     0.114 C 
HETATM   15  N2  UNL     1     -21.153   1.205 -14.628  1.00  0.00    -0.419 N 
HETATM   16  C12 UNL     1     -20.583   2.504 -14.506  1.00  0.00     0.140 C 
ATOM     17  H2  UNL     1     -21.330   0.623 -13.810  1.00  0.00     0.153 HD
HETATM   18  C13 UNL     1     -19.309   2.670 -15.309  1.00  0.00     0.187 C 
HETATM   19  O2  UNL     1     -18.918   1.410 -15.699  1.00  0.00    -0.381 OA
ENDBRANCH   1  11
TORSDOF 5
ENDMDL
MODEL 5
REMARK VINA RESULT: -5.179841267      1.113      2.232
REMARK  5 active torsions:
REMARK  status: ('A' for Active; 'I' for Inactive)
REMARK    1  A    between atoms: C2_2  and  N1_3 
REMARK    2  A    between atoms: N1_3  and  C5_6 
REMARK    3  A    between atoms: C5_6  and  C6_7 
REMARK    4  A    between atoms: C6_7  and  O1_9 
REMARK    5  A    between atoms: C6_7  and  C8_11 
ROOT
HETATM    1  C6  UNL     1     -17.982   1.265 -17.036  1.00  0.00     0.104 C 
HETATM    2  C7  UNL     1     -16.706   1.087 -16.152  1.00  0.00     0.050 C 
ENDROOT
BRANCH   1   3
HETATM    3  C5  UNL     1     -19.094   0.858 -16.167  1.00  0.00     0.276 C 
BRANCH   3   4
HETATM    4  N1  UNL     1     -20.353   1.433 -16.166  1.00  0.00    -0.072 N 
HETATM    5  C3  UNL     1     -20.332   2.670 -15.341  1.00  0.00     0.272 C 
HETATM    6  C4  UNL     1     -21.044   1.783 -17.344  1.00  0.00     0.272 C 
BRANCH   4   7
HETATM    7  C2  UNL     1     -21.306   0.594 -15.398  1.00  0.00     0.232 C 
HETATM    8  C1  UNL     1     -20.547  -0.395 -14.521  1.00  0.00     0.034 C 
ENDBRANCH   4   7
ENDBRANCH   3   4
ENDBRANCH   1   3
BRANCH   1   9
HETATM    9  O1  UNL     1     -17.893   2.589 -17.405  1.00  0.00    -0.386 OA
ATOM     10  H1  UNL     1     -17.989   2.808 -18.324  1.00  0.00     0.210 HD
ENDBRANCH   1   9
BRANCH   1  11
HETATM   11  C8  UNL     1     -17.761   0.421 -18.273  1.00  0.00     0.157 C 
HETATM   12  C9  UNL     1     -16.460  -0.342 -18.208  1.00  0.00     0.036 C 
HETATM   13  C10 UNL     1     -16.171  -1.102 -19.442  1.00  0.00     0.022 C 
HETATM   14  C11 UNL     1     -17.284  -1.324 -20.388  1.00  0.00     0.114 C 
HETATM   15  N2  UNL     1     -17.450  -0.375 -21.430  1.00  0.00    -0.419 N 
HETATM   16  C12 UNL     1     -16.656   0.806 -21.366  1.00  0.00     0.140 C 
ATOM     17  H2  UNL     1     -18.109  -0.533 -22.192  1.00  0.00     0.153 HD
HETATM   18  C13 UNL     1     -16.845   1.578 -20.077  1.00  0.00     0.187 C 
HETATM   19  O2  UNL     1     -17.957   1.054 -19.459  1.00  0.00    -0.381 OA
ENDBRANCH   1  11
TORSDOF 5
ENDMDL
