MODEL 1
REMARK VINA RESULT: -5.205619775      0.000      0.000
REMARK  6 active torsions:
REMARK  status: ('A' for Active; 'I' for Inactive)
REMARK    1  A    between atoms: C2_2  and  C3_3 
REMARK    2  A    between atoms: C3_3  and  N1_4 
REMARK    3  A    between atoms: C8_9  and  O1_10 
REMARK    4  A    between atoms: N2_13  and  C10_14 
REMARK    5  A    between atoms: C10_14  and  C11_15 
REMARK    6  A    between atoms: C11_15  and  O2_16 
ROOT
HETATM    1  N1  UNL     1     -19.262   1.257 -17.320  1.00  0.00    -0.345 N 
HETATM    2  C4  UNL     1     -20.467   1.885 -17.626  1.00  0.00     0.075 C 
HETATM    3  C5  UNL     1     -21.458   1.621 -16.521  1.00  0.00     0.062 C 
HETATM    4  C6  UNL     1     -21.462   2.680 -15.461  1.00  0.00     0.018 C 
HETATM    5  C7  UNL     1     -20.159   3.198 -15.039  1.00  0.00     0.036 C 
HETATM    6  C8  UNL     1     -18.925   2.465 -15.310  1.00  0.00     0.161 C 
HETATM    7  C9  UNL     1     -19.032   1.089 -15.911  1.00  0.00     0.218 C 
HETATM    8  N2  UNL     1     -19.989   0.241 -15.292  1.00  0.00    -0.367 N 
HETATM    9  C12 UNL     1     -21.287   0.295 -15.826  1.00  0.00     0.070 C 
ENDROOT
BRANCH   8  10
HETATM   10  C10 UNL     1     -19.526  -0.967 -14.716  1.00  0.00     0.150 C 
BRANCH  10  11
HETATM   11  C11 UNL     1     -19.155  -0.663 -13.256  1.00  0.00     0.183 C 
BRANCH  11  12
HETATM   12  O2  UNL     1     -18.733  -1.820 -12.655  1.00  0.00    -0.399 OA
ATOM     13  H2  UNL     1     -17.844  -1.698 -12.343  1.00  0.00     0.209 HD
ENDBRANCH  11  12
ENDBRANCH  10  11
ENDBRANCH   8  10
BRANCH   1  14
HETATM   14  C3  UNL     1     -18.272   0.973 -18.225  1.00  0.00     0.091 C 
BRANCH  14  15
HETATM   15  C2  UNL     1     -18.229   1.720 -19.517  1.00  0.00     0.007 C 
HETATM   16  C1  UNL     1     -17.577   1.302 -20.587  1.00  0.00     0.012 C 
ENDBRANCH  14  15
ENDBRANCH   1  14
BRANCH   6  17
HETATM   17  O1  UNL     1     -18.078   3.195 -16.184  1.00  0.00    -0.392 OA
ATOM     18  H1  UNL     1     -17.612   2.615 -16.774  1.00  0.00     0.210 HD
ENDBRANCH   6  17
TORSDOF 6
ENDMDL
MODEL 2
REMARK VINA RESULT: -5.129549924      0.722      1.050
REMARK  6 active torsions:
REMARK  status: ('A' for Active; 'I' for Inactive)
REMARK    1  A    between atoms: C2_2  and  C3_3 
REMARK    2  A    between atoms: C3_3  and  N1_4 
REMARK    3  A    between atoms: C8_9  and  O1_10 
REMARK    4  A    between atoms: N2_13  and  C10_14 
REMARK    5  A    between atoms: C10_14  and  C11_15 
REMARK    6  A    between atoms: C11_15  and  O2_16 
ROOT
HETATM    1  N1  UNL     1     -19.292   1.251 -17.355  1.00  0.00    -0.345 N 
HETATM    2  C4  UNL     1     -20.496   1.894 -17.631  1.00  0.00     0.075 C 
HETATM    3  C5  UNL     1     -21.462   1.644 -16.501  1.00  0.00     0.062 C 
HETATM    4  C6  UNL     1     -21.426   2.704 -15.443  1.00  0.00     0.018 C 
HETATM    5  C7  UNL     1     -20.106   3.205 -15.054  1.00  0.00     0.036 C 
HETATM    6  C8  UNL     1     -18.889   2.457 -15.355  1.00  0.00     0.161 C 
HETATM    7  C9  UNL     1     -19.028   1.082 -15.952  1.00  0.00     0.218 C 
HETATM    8  N2  UNL     1     -19.979   0.246 -15.308  1.00  0.00    -0.367 N 
HETATM    9  C12 UNL     1     -21.290   0.316 -15.809  1.00  0.00     0.070 C 
ENDROOT
BRANCH   8  10
HETATM   10  C10 UNL     1     -19.518  -0.967 -14.743  1.00  0.00     0.150 C 
BRANCH  10  11
HETATM   11  C11 UNL     1     -19.134  -0.673 -13.284  1.00  0.00     0.183 C 
BRANCH  11  12
HETATM   12  O2  UNL     1     -18.723  -1.838 -12.690  1.00  0.00    -0.399 OA
ATOM     13  H2  UNL     1     -17.862  -2.064 -13.022  1.00  0.00     0.209 HD
ENDBRANCH  11  12
ENDBRANCH  10  11
ENDBRANCH   8  10
BRANCH   1  14
HETATM   14  C3  UNL     1     -18.328   0.954 -18.285  1.00  0.00     0.091 C 
BRANCH  14  15
HETATM   15  C2  UNL     1     -17.323  -0.106 -17.980  1.00  0.00     0.007 C 
HETATM   16  C1  UNL     1     -17.331  -1.306 -18.531  1.00  0.00     0.012 C 
ENDBRANCH  14  15
ENDBRANCH   1  14
BRANCH   6  17
HETATM   17  O1  UNL     1     -18.055   3.176 -16.252  1.00  0.00    -0.392 OA
ATOM     18  H1  UNL     1     -17.139   3.079 -16.020  1.00  0.00     0.210 HD
ENDBRANCH   6  17
TORSDOF 6
ENDMDL
MODEL 3
REMARK VINA RESULT: -5.120172330      2.322      3.374
REMARK  6 active torsions:
REMARK  status: ('A' for Active; 'I' for Inactive)
REMARK    1  A    between atoms: C2_2  and  C3_3 
REMARK    2  A    between atoms: C3_3  and  N1_4 
REMARK    3  A    between atoms: C8_9  and  O1_10 
REMARK    4  A    between atoms: N2_13  and  C10_14 
REMARK    5  A    between atoms: C10_14  and  C11_15 
REMARK    6  A    between atoms: C11_15  and  O2_16 
ROOT
HETATM    1  N1  UNL     1     -19.268   1.534 -17.556  1.00  0.00    -0.345 N 
HETATM    2  C4  UNL     1     -20.161   0.951 -16.661  1.00  0.00     0.075 C 
HETATM    3  C5  UNL     1     -19.503  -0.240 -16.009  1.00  0.00     0.062 C 
HETATM    4  C6  UNL     1     -18.815   0.093 -14.721  1.00  0.00     0.018 C 
HETATM    5  C7  UNL     1     -18.053   1.342 -14.681  1.00  0.00     0.036 C 
HETATM    6  C8  UNL     1     -17.637   2.019 -15.907  1.00  0.00     0.161 C 
HETATM    7  C9  UNL     1     -17.885   1.327 -17.221  1.00  0.00     0.218 C 
HETATM    8  N2  UNL     1     -17.507  -0.041 -17.255  1.00  0.00    -0.367 N 
HETATM    9  C12 UNL     1     -18.502  -0.958 -16.878  1.00  0.00     0.070 C 
ENDROOT
BRANCH   8  10
HETATM   10  C10 UNL     1     -16.527  -0.433 -18.198  1.00  0.00     0.150 C 
BRANCH  10  11
HETATM   11  C11 UNL     1     -17.047  -1.701 -18.895  1.00  0.00     0.183 C 
BRANCH  11  12
HETATM   12  O2  UNL     1     -16.131  -2.097 -19.835  1.00  0.00    -0.399 OA
ATOM     13  H2  UNL     1     -16.422  -2.915 -20.221  1.00  0.00     0.209 HD
ENDBRANCH  11  12
ENDBRANCH  10  11
ENDBRANCH   8  10
BRANCH   1  14
HETATM   14  C3  UNL     1     -19.618   2.388 -18.570  1.00  0.00     0.091 C 
BRANCH  14  15
HETATM   15  C2  UNL     1     -19.663   1.876 -19.972  1.00  0.00     0.007 C 
HETATM   16  C1  UNL     1     -18.623   1.354 -20.597  1.00  0.00     0.012 C 
ENDBRANCH  14  15
ENDBRANCH   1  14
BRANCH   6  17
HETATM   17  O1  UNL     1     -18.257   3.291 -16.025  1.00  0.00    -0.392 OA
ATOM     18  H1  UNL     1     -19.025   3.247 -16.581  1.00  0.00     0.210 HD
ENDBRANCH   6  17
TORSDOF 6
ENDMDL
MODEL 4
REMARK VINA RESULT: -5.095902407      2.403      4.228
REMARK  6 active torsions:
REMARK  status: ('A' for Active; 'I' for Inactive)
REMARK    1  A    between atoms: C2_2  and  C3_3 
REMARK    2  A    between atoms: C3_3  and  N1_4 
REMARK    3  A    between atoms: C8_9  and  O1_10 
REMARK    4  A    between atoms: N2_13  and  C10_14 
REMARK    5  A    between atoms: C10_14  and  C11_15 
REMARK    6  A    between atoms: C11_15  and  O2_16 
ROOT
HETATM    1  N1  UNL     1     -18.206   1.785 -16.175  1.00  0.00    -0.345 N 
HETATM    2  C4  UNL     1     -18.314   2.828 -17.092  1.00  0.00     0.075 C 
HETATM    3  C5  UNL     1     -18.565   2.257 -18.466  1.00  0.00     0.062 C 
HETATM    4  C6  UNL     1     -20.020   2.139 -18.804  1.00  0.00     0.018 C 
HETATM    5  C7  UNL     1     -20.909   1.662 -17.743  1.00  0.00     0.036 C 
HETATM    6  C8  UNL     1     -20.389   0.955 -16.575  1.00  0.00     0.161 C 
HETATM    7  C9  UNL     1     -18.927   0.599 -16.551  1.00  0.00     0.218 C 
HETATM    8  N2  UNL     1     -18.437   0.011 -17.747  1.00  0.00    -0.367 N 
HETATM    9  C12 UNL     1     -17.940   0.907 -18.708  1.00  0.00     0.070 C 
ENDROOT
BRANCH   8  10
HETATM   10  C10 UNL     1     -17.889  -1.293 -17.667  1.00  0.00     0.150 C 
BRANCH  10  11
HETATM   11  C11 UNL     1     -16.938  -1.461 -18.862  1.00  0.00     0.183 C 
BRANCH  11  12
HETATM   12  O2  UNL     1     -16.442  -2.739 -18.858  1.00  0.00    -0.399 OA
ATOM     13  H2  UNL     1     -15.656  -2.765 -19.390  1.00  0.00     0.209 HD
ENDBRANCH  11  12
ENDBRANCH  10  11
ENDBRANCH   8  10
BRANCH   1  14
HETATM   14  C3  UNL     1     -17.635   1.888 -14.933  1.00  0.00     0.091 C 
BRANCH  14  15
HETATM   15  C2  UNL     1     -17.562   0.678 -14.062  1.00  0.00     0.007 C 
HETATM   16  C1  UNL     1     -18.118   0.599 -12.867  1.00  0.00     0.012 C 
ENDBRANCH  14  15
ENDBRANCH   1  14
BRANCH   6  17
HETATM   17  O1  UNL     1     -20.618   1.696 -15.385  1.00  0.00    -0.392 OA
ATOM     18  H1  UNL     1     -20.916   2.576 -15.582  1.00  0.00     0.210 HD
ENDBRANCH   6  17
TORSDOF 6
ENDMDL
MODEL 5
REMARK VINA RESULT: -5.072168444      2.202      2.618
REMARK  6 active torsions:
REMARK  status: ('A' for Active; 'I' for Inactive)
REMARK    1  A    between atoms: C2_2  and  C3_3 
REMARK    2  A    between atoms: C3_3  and  N1_4 
REMARK    3  A    between atoms: C8_9  and  O1_10 
REMARK    4  A    between atoms: N2_13  and  C10_14 
REMARK    5  A    between atoms: C10_14  and  C11_15 
REMARK    6  A    between atoms: C11_15  and  O2_16 
ROOT
HETATM    1  N1  UNL     1     -19.483   1.634 -18.759  1.00  0.00    -0.345 N 
HETATM    2  C4  UNL     1     -20.554   2.272 -18.138  1.00  0.00     0.075 C 
HETATM    3  C5  UNL     1     -20.694   1.749 -16.730  1.00  0.00     0.062 C 
HETATM    4  C6  UNL     1     -19.945   2.561 -15.717  1.00  0.00     0.018 C 
HETATM    5  C7  UNL     1     -18.608   3.021 -16.097  1.00  0.00     0.036 C 
HETATM    6  C8  UNL     1     -17.874   2.403 -17.198  1.00  0.00     0.161 C 
HETATM    7  C9  UNL     1     -18.465   1.181 -17.849  1.00  0.00     0.218 C 
HETATM    8  N2  UNL     1     -18.933   0.191 -16.945  1.00  0.00    -0.367 N 
HETATM    9  C12 UNL     1     -20.275   0.313 -16.548  1.00  0.00     0.070 C 
ENDROOT
BRANCH   8  10
HETATM   10  C10 UNL     1     -18.345  -1.096 -17.011  1.00  0.00     0.150 C 
BRANCH  10  11
HETATM   11  C11 UNL     1     -17.301  -1.061 -18.139  1.00  0.00     0.183 C 
BRANCH  11  12
HETATM   12  O2  UNL     1     -17.032  -2.346 -18.533  1.00  0.00    -0.399 OA
ATOM     13  H2  UNL     1     -16.093  -2.445 -18.638  1.00  0.00     0.209 HD
ENDBRANCH  11  12
ENDBRANCH  10  11
ENDBRANCH   8  10
BRANCH   1  14
HETATM   14  C3  UNL     1     -19.280   1.579 -20.113  1.00  0.00     0.091 C 
BRANCH  14  15
HETATM   15  C2  UNL     1     -18.056   0.907 -20.641  1.00  0.00     0.007 C 
HETATM   16  C1  UNL     1     -18.081  -0.127 -21.461  1.00  0.00     0.012 C 
ENDBRANCH  14  15
ENDBRANCH   1  14
BRANCH   6  17
HETATM   17  O1  UNL     1     -17.660   3.328 -18.253  1.00  0.00    -0.392 OA
ATOM     18  H1  UNL     1     -16.810   3.745 -18.175  1.00  0.00     0.210 HD
ENDBRANCH   6  17
TORSDOF 6
ENDMDL
