MODEL 1
REMARK VINA RESULT: -4.665917355      0.000      0.000
REMARK  7 active torsions:
REMARK  status: ('A' for Active; 'I' for Inactive)
REMARK    1  A    between atoms: C2_2  and  C3_3 
REMARK    2  A    between atoms: C3_3  and  N1_4 
REMARK    3  A    between atoms: N1_4  and  C4_6 
REMARK    4  A    between atoms: C4_6  and  N2_8 
REMARK    5  A    between atoms: N2_8  and  N3_10 
REMARK    6  A    between atoms: C5_12  and  C6_13 
REMARK    7  A    between atoms: C6_13  and  N4_15 
ROOT
HETATM    1  N2  UNL     1     -17.114   2.041 -15.871  1.00  0.00    -0.277 N 
ATOM      2  H2  UNL     1     -16.176   2.016 -15.472  1.00  0.00     0.189 HD
ENDROOT
BRANCH   1   3
HETATM    3  C4  UNL     1     -18.253   2.136 -15.025  1.00  0.00     0.186 C 
HETATM    4  S1  UNL     1     -18.470   1.075 -13.816  1.00  0.00    -0.040 SA
BRANCH   3   5
HETATM    5  N1  UNL     1     -19.196   3.154 -15.253  1.00  0.00    -0.363 N 
ATOM      6  H1  UNL     1     -18.866   4.112 -15.369  1.00  0.00     0.162 HD
BRANCH   5   7
HETATM    7  C3  UNL     1     -20.609   2.891 -15.329  1.00  0.00     0.148 C 
BRANCH   7   8
HETATM    8  C2  UNL     1     -20.956   2.281 -16.647  1.00  0.00    -0.018 C 
HETATM    9  C1  UNL     1     -22.144   1.867 -16.996  1.00  0.00     0.008 C 
ENDBRANCH   7   8
ENDBRANCH   5   7
ENDBRANCH   3   5
ENDBRANCH   1   3
BRANCH   1  10
HETATM   10  N3  UNL     1     -17.292   1.985 -17.238  1.00  0.00    -0.307 N 
HETATM   11  C5  UNL     1     -17.534   0.869 -17.820  1.00  0.00     0.148 C 
ATOM     12  H3  UNL     1     -17.231   2.841 -17.790  1.00  0.00     0.186 HD
BRANCH  11  13
HETATM   13  C6  UNL     1     -17.728   0.769 -19.252  1.00  0.00     0.115 C 
HETATM   14  S2  UNL     1     -18.880   1.671 -19.949  1.00  0.00    -0.059 SA
BRANCH  13  15
HETATM   15  N4  UNL     1     -16.951  -0.095 -20.037  1.00  0.00    -0.380 N 
HETATM   16  C7  UNL     1     -16.571   0.198 -21.410  1.00  0.00     0.150 C 
HETATM   17  C8  UNL     1     -16.511  -1.353 -19.466  1.00  0.00     0.150 C 
ENDBRANCH  13  15
ENDBRANCH  11  13
ENDBRANCH   1  10
TORSDOF 7
ENDMDL
MODEL 2
REMARK VINA RESULT: -4.498757378      1.801      5.727
REMARK  7 active torsions:
REMARK  status: ('A' for Active; 'I' for Inactive)
REMARK    1  A    between atoms: C2_2  and  C3_3 
REMARK    2  A    between atoms: C3_3  and  N1_4 
REMARK    3  A    between atoms: N1_4  and  C4_6 
REMARK    4  A    between atoms: C4_6  and  N2_8 
REMARK    5  A    between atoms: N2_8  and  N3_10 
REMARK    6  A    between atoms: C5_12  and  C6_13 
REMARK    7  A    between atoms: C6_13  and  N4_15 
ROOT
HETATM    1  N2  UNL     1     -17.533   2.495 -17.700  1.00  0.00    -0.277 N 
ATOM      2  H2  UNL     1     -16.796   3.149 -17.965  1.00  0.00     0.189 HD
ENDROOT
BRANCH   1   3
HETATM    3  C4  UNL     1     -17.739   1.304 -18.448  1.00  0.00     0.186 C 
HETATM    4  S1  UNL     1     -17.513  -0.149 -17.760  1.00  0.00    -0.040 SA
BRANCH   3   5
HETATM    5  N1  UNL     1     -18.132   1.397 -19.795  1.00  0.00    -0.363 N 
ATOM      6  H1  UNL     1     -19.127   1.398 -20.018  1.00  0.00     0.162 HD
BRANCH   5   7
HETATM    7  C3  UNL     1     -17.179   1.491 -20.870  1.00  0.00     0.148 C 
BRANCH   7   8
HETATM    8  C2  UNL     1     -16.992   0.158 -21.517  1.00  0.00    -0.018 C 
HETATM    9  C1  UNL     1     -17.889  -0.789 -21.565  1.00  0.00     0.008 C 
ENDBRANCH   7   8
ENDBRANCH   5   7
ENDBRANCH   3   5
ENDBRANCH   1   3
BRANCH   1  10
HETATM   10  N3  UNL     1     -18.340   2.757 -16.612  1.00  0.00    -0.307 N 
HETATM   11  C5  UNL     1     -19.590   2.473 -16.643  1.00  0.00     0.148 C 
ATOM     12  H3  UNL     1     -17.938   3.180 -15.776  1.00  0.00     0.186 HD
BRANCH  11  13
HETATM   13  C6  UNL     1     -20.470   2.731 -15.522  1.00  0.00     0.115 C 
HETATM   14  S2  UNL     1     -19.878   3.507 -14.227  1.00  0.00    -0.059 SA
BRANCH  13  15
HETATM   15  N4  UNL     1     -21.810   2.316 -15.532  1.00  0.00    -0.380 N 
HETATM   16  C7  UNL     1     -22.668   2.360 -14.359  1.00  0.00     0.150 C 
HETATM   17  C8  UNL     1     -22.373   1.803 -16.766  1.00  0.00     0.150 C 
ENDBRANCH  13  15
ENDBRANCH  11  13
ENDBRANCH   1  10
TORSDOF 7
ENDMDL
MODEL 3
REMARK VINA RESULT: -4.497521188      1.249      1.624
REMARK  7 active torsions:
REMARK  status: ('A' for Active; 'I' for Inactive)
REMARK    1  A    between atoms: C2_2  and  C3_3 
REMARK    2  A    between atoms: C3_3  and  N1_4 
REMARK    3  A    between atoms: N1_4  and  C4_6 
REMARK    4  A    between atoms: C4_6  and  N2_8 
REMARK    5  A    between atoms: N2_8  and  N3_10 
REMARK    6  A    between atoms: C5_12  and  C6_13 
REMARK    7  A    between atoms: C6_13  and  N4_15 
ROOT
HETATM    1  N2  UNL     1     -17.099   2.027 -15.698  1.00  0.00    -0.277 N 
ATOM      2  H2  UNL     1     -16.252   2.258 -15.180  1.00  0.00     0.189 HD
ENDROOT
BRANCH   1   3
HETATM    3  C4  UNL     1     -18.370   2.097 -15.066  1.00  0.00     0.186 C 
HETATM    4  S1  UNL     1     -18.764   1.046 -13.894  1.00  0.00    -0.040 SA
BRANCH   3   5
HETATM    5  N1  UNL     1     -19.287   3.082 -15.474  1.00  0.00    -0.363 N 
ATOM      6  H1  UNL     1     -18.932   3.983 -15.791  1.00  0.00     0.162 HD
BRANCH   5   7
HETATM    7  C3  UNL     1     -20.710   2.862 -15.457  1.00  0.00     0.148 C 
BRANCH   7   8
HETATM    8  C2  UNL     1     -21.153   2.223 -16.732  1.00  0.00    -0.018 C 
HETATM    9  C1  UNL     1     -22.270   1.566 -16.897  1.00  0.00     0.008 C 
ENDBRANCH   7   8
ENDBRANCH   5   7
ENDBRANCH   3   5
ENDBRANCH   1   3
BRANCH   1  10
HETATM   10  N3  UNL     1     -17.025   1.644 -17.022  1.00  0.00    -0.307 N 
HETATM   11  C5  UNL     1     -17.568   0.554 -17.418  1.00  0.00     0.148 C 
ATOM     12  H3  UNL     1     -16.532   2.236 -17.691  1.00  0.00     0.186 HD
BRANCH  11  13
HETATM   13  C6  UNL     1     -17.513   0.118 -18.798  1.00  0.00     0.115 C 
HETATM   14  S2  UNL     1     -16.996  -1.383 -19.123  1.00  0.00    -0.059 SA
BRANCH  13  15
HETATM   15  N4  UNL     1     -17.885   0.969 -19.850  1.00  0.00    -0.380 N 
HETATM   16  C7  UNL     1     -19.084   1.790 -19.827  1.00  0.00     0.150 C 
HETATM   17  C8  UNL     1     -17.044   1.030 -21.030  1.00  0.00     0.150 C 
ENDBRANCH  13  15
ENDBRANCH  11  13
ENDBRANCH   1  10
TORSDOF 7
ENDMDL
MODEL 4
REMARK VINA RESULT: -4.452363949      1.087      1.087
REMARK  7 active torsions:
REMARK  status: ('A' for Active; 'I' for Inactive)
REMARK    1  A    between atoms: C2_2  and  C3_3 
REMARK    2  A    between atoms: C3_3  and  N1_4 
REMARK    3  A    between atoms: N1_4  and  C4_6 
REMARK    4  A    between atoms: C4_6  and  N2_8 
REMARK    5  A    between atoms: N2_8  and  N3_10 
REMARK    6  A    between atoms: C5_12  and  C6_13 
REMARK    7  A    between atoms: C6_13  and  N4_15 
ROOT
HETATM    1  N2  UNL     1     -17.340   2.057 -15.850  1.00  0.00    -0.277 N 
ATOM      2  H2  UNL     1     -16.399   2.152 -15.469  1.00  0.00     0.189 HD
ENDROOT
BRANCH   1   3
HETATM    3  C4  UNL     1     -18.464   1.996 -14.982  1.00  0.00     0.186 C 
HETATM    4  S1  UNL     1     -18.826   3.248 -14.016  1.00  0.00    -0.040 SA
BRANCH   3   5
HETATM    5  N1  UNL     1     -19.255   0.834 -14.963  1.00  0.00    -0.363 N 
ATOM      6  H1  UNL     1     -18.804  -0.065 -14.795  1.00  0.00     0.162 HD
BRANCH   5   7
HETATM    7  C3  UNL     1     -20.679   0.868 -15.174  1.00  0.00     0.148 C 
BRANCH   7   8
HETATM    8  C2  UNL     1     -20.987   1.071 -16.621  1.00  0.00    -0.018 C 
HETATM    9  C1  UNL     1     -21.609   2.105 -17.121  1.00  0.00     0.008 C 
ENDBRANCH   7   8
ENDBRANCH   5   7
ENDBRANCH   3   5
ENDBRANCH   1   3
BRANCH   1  10
HETATM   10  N3  UNL     1     -17.537   1.988 -17.214  1.00  0.00    -0.307 N 
HETATM   11  C5  UNL     1     -17.442   0.869 -17.831  1.00  0.00     0.148 C 
ATOM     12  H3  UNL     1     -17.761   2.835 -17.736  1.00  0.00     0.186 HD
BRANCH  11  13
HETATM   13  C6  UNL     1     -17.642   0.754 -19.261  1.00  0.00     0.115 C 
HETATM   14  S2  UNL     1     -18.789   1.657 -19.964  1.00  0.00    -0.059 SA
BRANCH  13  15
HETATM   15  N4  UNL     1     -16.874  -0.125 -20.040  1.00  0.00    -0.380 N 
HETATM   16  C7  UNL     1     -16.521   0.137 -21.426  1.00  0.00     0.150 C 
HETATM   17  C8  UNL     1     -16.417  -1.366 -19.446  1.00  0.00     0.150 C 
ENDBRANCH  13  15
ENDBRANCH  11  13
ENDBRANCH   1  10
TORSDOF 7
ENDMDL
MODEL 5
REMARK VINA RESULT: -4.383564063      1.785      1.885
REMARK  7 active torsions:
REMARK  status: ('A' for Active; 'I' for Inactive)
REMARK    1  A    between atoms: C2_2  and  C3_3 
REMARK    2  A    between atoms: C3_3  and  N1_4 
REMARK    3  A    between atoms: N1_4  and  C4_6 
REMARK    4  A    between atoms: C4_6  and  N2_8 
REMARK    5  A    between atoms: N2_8  and  N3_10 
REMARK    6  A    between atoms: C5_12  and  C6_13 
REMARK    7  A    between atoms: C6_13  and  N4_15 
ROOT
HETATM    1  N2  UNL     1     -18.867  -0.386 -15.634  1.00  0.00    -0.277 N 
ATOM      2  H2  UNL     1     -18.219  -1.057 -15.220  1.00  0.00     0.189 HD
ENDROOT
BRANCH   1   3
HETATM    3  C4  UNL     1     -19.822   0.284 -14.822  1.00  0.00     0.186 C 
HETATM    4  S1  UNL     1     -19.370   1.518 -13.870  1.00  0.00    -0.040 SA
BRANCH   3   5
HETATM    5  N1  UNL     1     -21.163  -0.139 -14.846  1.00  0.00    -0.363 N 
ATOM      6  H1  UNL     1     -21.376  -1.110 -14.618  1.00  0.00     0.162 HD
BRANCH   5   7
HETATM    7  C3  UNL     1     -22.244   0.750 -15.182  1.00  0.00     0.148 C 
BRANCH   7   8
HETATM    8  C2  UNL     1     -22.257   1.024 -16.650  1.00  0.00    -0.018 C 
HETATM    9  C1  UNL     1     -21.848   2.129 -17.213  1.00  0.00     0.008 C 
ENDBRANCH   7   8
ENDBRANCH   5   7
ENDBRANCH   3   5
ENDBRANCH   1   3
BRANCH   1  10
HETATM   10  N3  UNL     1     -18.827  -0.121 -16.987  1.00  0.00    -0.307 N 
HETATM   11  C5  UNL     1     -17.723   0.191 -17.559  1.00  0.00     0.148 C 
ATOM     12  H3  UNL     1     -19.684  -0.173 -17.538  1.00  0.00     0.186 HD
BRANCH  11  13
HETATM   13  C6  UNL     1     -17.640   0.476 -18.977  1.00  0.00     0.115 C 
HETATM   14  S2  UNL     1     -18.517   1.697 -19.581  1.00  0.00    -0.059 SA
BRANCH  13  15
HETATM   15  N4  UNL     1     -16.828  -0.287 -19.830  1.00  0.00    -0.380 N 
HETATM   16  C7  UNL     1     -16.591   0.056 -21.223  1.00  0.00     0.150 C 
HETATM   17  C8  UNL     1     -16.201  -1.486 -19.311  1.00  0.00     0.150 C 
ENDBRANCH  13  15
ENDBRANCH  11  13
ENDBRANCH   1  10
TORSDOF 7
ENDMDL
