MODEL 1
REMARK VINA RESULT: -5.955286062      0.000      0.000
REMARK  6 active torsions:
REMARK  status: ('A' for Active; 'I' for Inactive)
REMARK    1  A    between atoms: O1_2  and  C2_3 
REMARK       I    between atoms: C2_3  and  N1_5 
REMARK    2  A    between atoms: N1_5  and  C3_7 
REMARK    3  A    between atoms: C3_7  and  C4_8 
REMARK    4  A    between atoms: C3_7  and  C9_18 
REMARK    5  A    between atoms: C4_8  and  N4_13 
REMARK    6  A    between atoms: N4_13  and  C6_15 
ROOT
HETATM    1  C4  UNL     1     -18.314   0.380 -17.543  1.00  0.00     0.110 C 
HETATM    2  N2  UNL     1     -18.057  -0.877 -17.518  1.00  0.00    -0.281 N 
ATOM      3  H2  UNL     1     -18.447  -1.412 -16.741  1.00  0.00     0.179 HD
HETATM    4  C5  UNL     1     -17.298  -1.583 -18.445  1.00  0.00     0.183 C 
HETATM    5  N3  UNL     1     -16.654  -2.179 -19.201  1.00  0.00    -0.172 NA
ENDROOT
BRANCH   1   6
HETATM    6  C3  UNL     1     -19.104   1.108 -16.574  1.00  0.00     0.158 C 
BRANCH   6   7
HETATM    7  N1  UNL     1     -18.653   0.743 -15.228  1.00  0.00    -0.325 N 
HETATM    8  C2  UNL     1     -17.974   1.653 -14.413  1.00  0.00     0.360 C 
HETATM    9  O2  UNL     1     -17.695   2.820 -14.726  1.00  0.00    -0.239 OA
ATOM     10  H1  UNL     1     -18.839  -0.197 -14.878  1.00  0.00     0.165 HD
BRANCH   8  11
HETATM   11  O1  UNL     1     -17.572   1.237 -13.144  1.00  0.00    -0.309 OA
HETATM   12  C1  UNL     1     -17.916  -0.050 -12.665  1.00  0.00     0.215 C 
ENDBRANCH   8  11
ENDBRANCH   6   7
BRANCH   6  13
HETATM   13  C9  UNL     1     -20.579   0.868 -16.600  1.00  0.00     0.008 C 
HETATM   14  C10 UNL     1     -21.398   2.025 -17.055  1.00  0.00     0.012 C 
HETATM   15  C11 UNL     1     -21.123   0.339 -15.292  1.00  0.00     0.012 C 
ENDBRANCH   6  13
ENDBRANCH   1   6
BRANCH   1  16
HETATM   16  N4  UNL     1     -17.760   1.110 -18.625  1.00  0.00    -0.374 N 
ATOM     17  H4  UNL     1     -16.937   1.675 -18.418  1.00  0.00     0.161 HD
BRANCH  16  18
HETATM   18  C6  UNL     1     -18.227   1.138 -19.967  1.00  0.00     0.074 C 
HETATM   19  C7  UNL     1     -19.467   1.978 -20.190  1.00  0.00     0.031 C 
HETATM   20  C8  UNL     1     -17.187   1.469 -21.010  1.00  0.00     0.031 C 
ENDBRANCH  16  18
ENDBRANCH   1  16
TORSDOF 6
ENDMDL
MODEL 2
REMARK VINA RESULT: -5.938499238      0.611      1.044
REMARK  6 active torsions:
REMARK  status: ('A' for Active; 'I' for Inactive)
REMARK    1  A    between atoms: O1_2  and  C2_3 
REMARK       I    between atoms: C2_3  and  N1_5 
REMARK    2  A    between atoms: N1_5  and  C3_7 
REMARK    3  A    between atoms: C3_7  and  C4_8 
REMARK    4  A    between atoms: C3_7  and  C9_18 
REMARK    5  A    between atoms: C4_8  and  N4_13 
REMARK    6  A    between atoms: N4_13  and  C6_15 
ROOT
HETATM    1  C4  UNL     1     -18.191   0.536 -17.694  1.00  0.00     0.110 C 
HETATM    2  N2  UNL     1     -18.092  -0.743 -17.660  1.00  0.00    -0.281 N 
ATOM      3  H2  UNL     1     -18.655  -1.231 -16.963  1.00  0.00     0.179 HD
HETATM    4  C5  UNL     1     -17.292  -1.529 -18.481  1.00  0.00     0.183 C 
HETATM    5  N3  UNL     1     -16.617  -2.195 -19.147  1.00  0.00    -0.172 NA
ENDROOT
BRANCH   1   6
HETATM    6  C3  UNL     1     -19.026   1.349 -16.835  1.00  0.00     0.158 C 
BRANCH   6   7
HETATM    7  N1  UNL     1     -18.504   1.280 -15.467  1.00  0.00    -0.325 N 
HETATM    8  C2  UNL     1     -18.262   2.435 -14.718  1.00  0.00     0.360 C 
HETATM    9  O2  UNL     1     -18.458   3.594 -15.113  1.00  0.00    -0.239 OA
ATOM     10  H1  UNL     1     -18.314   0.368 -15.052  1.00  0.00     0.165 HD
BRANCH   8  11
HETATM   11  O1  UNL     1     -17.763   2.295 -13.424  1.00  0.00    -0.309 OA
HETATM   12  C1  UNL     1     -17.699   1.021 -12.810  1.00  0.00     0.215 C 
ENDBRANCH   8  11
ENDBRANCH   6   7
BRANCH   6  13
HETATM   13  C9  UNL     1     -20.469   0.966 -16.752  1.00  0.00     0.008 C 
HETATM   14  C10 UNL     1     -21.431   2.068 -17.030  1.00  0.00     0.012 C 
HETATM   15  C11 UNL     1     -20.834   0.285 -15.451  1.00  0.00     0.012 C 
ENDBRANCH   6  13
ENDBRANCH   1   6
BRANCH   1  16
HETATM   16  N4  UNL     1     -17.399   1.200 -18.664  1.00  0.00    -0.374 N 
ATOM     17  H4  UNL     1     -16.431   1.393 -18.405  1.00  0.00     0.161 HD
BRANCH  16  18
HETATM   18  C6  UNL     1     -17.806   1.624 -19.957  1.00  0.00     0.074 C 
HETATM   19  C7  UNL     1     -17.115   0.918 -21.104  1.00  0.00     0.031 C 
HETATM   20  C8  UNL     1     -19.298   1.648 -20.192  1.00  0.00     0.031 C 
ENDBRANCH  16  18
ENDBRANCH   1  16
TORSDOF 6
ENDMDL
MODEL 3
REMARK VINA RESULT: -5.749971443      1.063      1.205
REMARK  6 active torsions:
REMARK  status: ('A' for Active; 'I' for Inactive)
REMARK    1  A    between atoms: O1_2  and  C2_3 
REMARK       I    between atoms: C2_3  and  N1_5 
REMARK    2  A    between atoms: N1_5  and  C3_7 
REMARK    3  A    between atoms: C3_7  and  C4_8 
REMARK    4  A    between atoms: C3_7  and  C9_18 
REMARK    5  A    between atoms: C4_8  and  N4_13 
REMARK    6  A    between atoms: N4_13  and  C6_15 
ROOT
HETATM    1  C4  UNL     1     -18.293   0.261 -17.582  1.00  0.00     0.110 C 
HETATM    2  N2  UNL     1     -17.995  -0.988 -17.588  1.00  0.00    -0.281 N 
ATOM      3  H2  UNL     1     -18.381  -1.557 -16.835  1.00  0.00     0.179 HD
HETATM    4  C5  UNL     1     -17.197  -1.640 -18.521  1.00  0.00     0.183 C 
HETATM    5  N3  UNL     1     -16.519  -2.192 -19.282  1.00  0.00    -0.172 NA
ENDROOT
BRANCH   1   6
HETATM    6  C3  UNL     1     -19.124   0.934 -16.606  1.00  0.00     0.158 C 
BRANCH   6   7
HETATM    7  N1  UNL     1     -18.298   1.293 -15.451  1.00  0.00    -0.325 N 
HETATM    8  C2  UNL     1     -18.140   2.623 -15.051  1.00  0.00     0.360 C 
HETATM    9  O2  UNL     1     -18.663   3.601 -15.606  1.00  0.00    -0.239 OA
ATOM     10  H1  UNL     1     -17.828   0.556 -14.925  1.00  0.00     0.165 HD
BRANCH   8  11
HETATM   11  O1  UNL     1     -17.337   2.893 -13.943  1.00  0.00    -0.309 OA
HETATM   12  C1  UNL     1     -17.910   3.347 -12.731  1.00  0.00     0.215 C 
ENDBRANCH   8  11
ENDBRANCH   6   7
BRANCH   6  13
HETATM   13  C9  UNL     1     -20.281   0.156 -16.068  1.00  0.00     0.008 C 
HETATM   14  C10 UNL     1     -21.578   0.887 -16.048  1.00  0.00     0.012 C 
HETATM   15  C11 UNL     1     -20.015  -0.449 -14.708  1.00  0.00     0.012 C 
ENDBRANCH   6  13
ENDBRANCH   1   6
BRANCH   1  16
HETATM   16  N4  UNL     1     -17.744   1.040 -18.632  1.00  0.00    -0.374 N 
ATOM     17  H4  UNL     1     -16.921   1.597 -18.402  1.00  0.00     0.161 HD
BRANCH  16  18
HETATM   18  C6  UNL     1     -18.217   1.129 -19.968  1.00  0.00     0.074 C 
HETATM   19  C7  UNL     1     -19.444   1.998 -20.151  1.00  0.00     0.031 C 
HETATM   20  C8  UNL     1     -17.176   1.485 -21.003  1.00  0.00     0.031 C 
ENDBRANCH  16  18
ENDBRANCH   1  16
TORSDOF 6
ENDMDL
MODEL 4
REMARK VINA RESULT: -5.586794552      1.180      1.396
REMARK  6 active torsions:
REMARK  status: ('A' for Active; 'I' for Inactive)
REMARK    1  A    between atoms: O1_2  and  C2_3 
REMARK       I    between atoms: C2_3  and  N1_5 
REMARK    2  A    between atoms: N1_5  and  C3_7 
REMARK    3  A    between atoms: C3_7  and  C4_8 
REMARK    4  A    between atoms: C3_7  and  C9_18 
REMARK    5  A    between atoms: C4_8  and  N4_13 
REMARK    6  A    between atoms: N4_13  and  C6_15 
ROOT
HETATM    1  C4  UNL     1     -18.076   0.301 -17.484  1.00  0.00     0.110 C 
HETATM    2  N2  UNL     1     -17.796  -0.944 -17.623  1.00  0.00    -0.281 N 
ATOM      3  H2  UNL     1     -18.053  -1.562 -16.853  1.00  0.00     0.179 HD
HETATM    4  C5  UNL     1     -17.176  -1.532 -18.719  1.00  0.00     0.183 C 
HETATM    5  N3  UNL     1     -16.644  -2.033 -19.619  1.00  0.00    -0.172 NA
ENDROOT
BRANCH   1   6
HETATM    6  C3  UNL     1     -18.720   0.907 -16.339  1.00  0.00     0.158 C 
BRANCH   6   7
HETATM    7  N1  UNL     1     -19.191  -0.154 -15.446  1.00  0.00    -0.325 N 
HETATM    8  C2  UNL     1     -18.785  -0.219 -14.110  1.00  0.00     0.360 C 
HETATM    9  O2  UNL     1     -18.017   0.584 -13.559  1.00  0.00    -0.239 OA
ATOM     10  H1  UNL     1     -19.831  -0.862 -15.807  1.00  0.00     0.165 HD
BRANCH   8  11
HETATM   11  O1  UNL     1     -19.271  -1.258 -13.318  1.00  0.00    -0.309 OA
HETATM   12  C1  UNL     1     -18.810  -1.429 -11.990  1.00  0.00     0.215 C 
ENDBRANCH   8  11
ENDBRANCH   6   7
BRANCH   6  13
HETATM   13  C9  UNL     1     -19.906   1.773 -16.623  1.00  0.00     0.008 C 
HETATM   14  C10 UNL     1     -20.109   2.898 -15.669  1.00  0.00     0.012 C 
HETATM   15  C11 UNL     1     -21.193   0.993 -16.775  1.00  0.00     0.012 C 
ENDBRANCH   6  13
ENDBRANCH   1   6
BRANCH   1  16
HETATM   16  N4  UNL     1     -17.706   1.148 -18.560  1.00  0.00    -0.374 N 
ATOM     17  H4  UNL     1     -16.993   1.850 -18.362  1.00  0.00     0.161 HD
BRANCH  16  18
HETATM   18  C6  UNL     1     -18.223   1.126 -19.883  1.00  0.00     0.074 C 
HETATM   19  C7  UNL     1     -19.477   1.950 -20.090  1.00  0.00     0.031 C 
HETATM   20  C8  UNL     1     -17.225   1.426 -20.975  1.00  0.00     0.031 C 
ENDBRANCH  16  18
ENDBRANCH   1  16
TORSDOF 6
ENDMDL
MODEL 5
REMARK VINA RESULT: -5.457988924      2.401      5.288
REMARK  6 active torsions:
REMARK  status: ('A' for Active; 'I' for Inactive)
REMARK    1  A    between atoms: O1_2  and  C2_3 
REMARK       I    between atoms: C2_3  and  N1_5 
REMARK    2  A    between atoms: N1_5  and  C3_7 
REMARK    3  A    between atoms: C3_7  and  C4_8 
REMARK    4  A    between atoms: C3_7  and  C9_18 
REMARK    5  A    between atoms: C4_8  and  N4_13 
REMARK    6  A    between atoms: N4_13  and  C6_15 
ROOT
HETATM    1  C4  UNL     1     -18.659   1.298 -16.056  1.00  0.00     0.110 C 
HETATM    2  N2  UNL     1     -18.432   2.486 -15.624  1.00  0.00    -0.281 N 
ATOM      3  H2  UNL     1     -18.590   3.252 -16.279  1.00  0.00     0.179 HD
HETATM    4  C5  UNL     1     -17.992   2.830 -14.351  1.00  0.00     0.183 C 
HETATM    5  N3  UNL     1     -17.608   3.130 -13.300  1.00  0.00    -0.172 NA
ENDROOT
BRANCH   1   6
HETATM    6  C3  UNL     1     -19.116   0.947 -17.383  1.00  0.00     0.158 C 
BRANCH   6   7
HETATM    7  N1  UNL     1     -17.950   0.696 -18.233  1.00  0.00    -0.325 N 
HETATM    8  C2  UNL     1     -17.376  -0.575 -18.330  1.00  0.00     0.360 C 
HETATM    9  O2  UNL     1     -17.778  -1.586 -17.734  1.00  0.00    -0.239 OA
ATOM     10  H1  UNL     1     -17.547   1.466 -18.767  1.00  0.00     0.165 HD
BRANCH   8  11
HETATM   11  O1  UNL     1     -16.265  -0.742 -19.157  1.00  0.00    -0.309 OA
HETATM   12  C1  UNL     1     -16.427  -1.091 -20.519  1.00  0.00     0.215 C 
ENDBRANCH   8  11
ENDBRANCH   6   7
BRANCH   6  13
HETATM   13  C9  UNL     1     -19.941   1.970 -18.096  1.00  0.00     0.008 C 
HETATM   14  C10 UNL     1     -21.386   1.976 -17.737  1.00  0.00     0.012 C 
HETATM   15  C11 UNL     1     -19.788   1.920 -19.600  1.00  0.00     0.012 C 
ENDBRANCH   6  13
ENDBRANCH   1   6
BRANCH   1  16
HETATM   16  N4  UNL     1     -18.428   0.244 -15.136  1.00  0.00    -0.374 N 
ATOM     17  H4  UNL     1     -17.457   0.067 -14.881  1.00  0.00     0.161 HD
BRANCH  16  18
HETATM   18  C6  UNL     1     -19.405  -0.592 -14.531  1.00  0.00     0.074 C 
HETATM   19  C7  UNL     1     -19.078  -1.032 -13.119  1.00  0.00     0.031 C 
HETATM   20  C8  UNL     1     -20.825  -0.083 -14.594  1.00  0.00     0.031 C 
ENDBRANCH  16  18
ENDBRANCH   1  16
TORSDOF 6
ENDMDL
