MODEL 1
REMARK VINA RESULT: -5.935167933      0.000      0.000
REMARK  5 active torsions:
REMARK  status: ('A' for Active; 'I' for Inactive)
REMARK    1  A    between atoms: C2_2  and  N1_3 
REMARK    2  A    between atoms: N2_7  and  C6_8 
REMARK    3  A    between atoms: C6_8  and  C7_9 
REMARK    4  A    between atoms: C7_9  and  C8_10 
REMARK    5  A    between atoms: C8_10  and  O1_11 
ROOT
HETATM    1  N1  UNL     1     -18.866   1.129 -15.056  1.00  0.00     0.099 N 
HETATM    2  C3  UNL     1     -17.936   2.079 -15.579  1.00  0.00     0.284 C 
HETATM    3  C4  UNL     1     -18.544   2.622 -16.866  1.00  0.00     0.063 C 
HETATM    4  C5  UNL     1     -17.823   2.071 -18.081  1.00  0.00     0.070 C 
HETATM    5  N2  UNL     1     -17.754   0.698 -18.033  1.00  0.00    -0.371 N 
HETATM    6  C9  UNL     1     -18.467  -0.058 -17.083  1.00  0.00     0.099 C 
HETATM    7  C10 UNL     1     -19.493   0.613 -16.257  1.00  0.00     0.270 C 
HETATM    8  C11 UNL     1     -19.902   1.976 -16.842  1.00  0.00    -0.002 C 
HETATM    9  C12 UNL     1     -20.759   2.687 -15.819  1.00  0.00     0.018 C 
HETATM   10  C13 UNL     1     -20.602   1.886 -18.120  1.00  0.00     0.018 C 
ENDROOT
BRANCH   5  11
HETATM   11  C6  UNL     1     -17.300  -0.038 -19.148  1.00  0.00     0.129 C 
BRANCH  11  12
HETATM   12  C7  UNL     1     -17.717   0.459 -20.488  1.00  0.00     0.046 C 
BRANCH  12  13
HETATM   13  C8  UNL     1     -16.562   0.348 -21.483  1.00  0.00     0.165 C 
BRANCH  13  14
HETATM   14  O1  UNL     1     -15.759  -0.750 -21.188  1.00  0.00    -0.401 OA
ATOM     15  H1  UNL     1     -15.567  -0.787 -20.259  1.00  0.00     0.209 HD
ENDBRANCH  13  14
ENDBRANCH  12  13
ENDBRANCH  11  12
ENDBRANCH   5  11
BRANCH   1  16
HETATM   16  C2  UNL     1     -18.387   0.182 -14.143  1.00  0.00     0.269 C 
HETATM   17  C1  UNL     1     -19.599  -0.564 -13.564  1.00  0.00     0.037 C 
ENDBRANCH   1  16
TORSDOF 5
ENDMDL
MODEL 2
REMARK VINA RESULT: -5.762539779      1.150      2.694
REMARK  5 active torsions:
REMARK  status: ('A' for Active; 'I' for Inactive)
REMARK    1  A    between atoms: C2_2  and  N1_3 
REMARK    2  A    between atoms: N2_7  and  C6_8 
REMARK    3  A    between atoms: C6_8  and  C7_9 
REMARK    4  A    between atoms: C7_9  and  C8_10 
REMARK    5  A    between atoms: C8_10  and  O1_11 
ROOT
HETATM    1  N1  UNL     1     -19.748   1.765 -15.929  1.00  0.00     0.099 N 
HETATM    2  C3  UNL     1     -19.880   0.432 -16.427  1.00  0.00     0.284 C 
HETATM    3  C4  UNL     1     -18.467  -0.116 -16.589  1.00  0.00     0.063 C 
HETATM    4  C5  UNL     1     -18.081  -0.194 -18.054  1.00  0.00     0.070 C 
HETATM    5  N2  UNL     1     -18.288   1.011 -18.683  1.00  0.00    -0.371 N 
HETATM    6  C9  UNL     1     -18.600   2.186 -17.974  1.00  0.00     0.099 C 
HETATM    7  C10 UNL     1     -18.484   2.187 -16.500  1.00  0.00     0.270 C 
HETATM    8  C11 UNL     1     -17.653   0.997 -15.988  1.00  0.00    -0.002 C 
HETATM    9  C12 UNL     1     -17.792   0.941 -14.484  1.00  0.00     0.018 C 
HETATM   10  C13 UNL     1     -16.245   1.051 -16.369  1.00  0.00     0.018 C 
ENDROOT
BRANCH   5  11
HETATM   11  C6  UNL     1     -17.818   1.225 -19.996  1.00  0.00     0.129 C 
BRANCH  11  12
HETATM   12  C7  UNL     1     -17.715   0.024 -20.870  1.00  0.00     0.046 C 
BRANCH  12  13
HETATM   13  C8  UNL     1     -16.313  -0.080 -21.473  1.00  0.00     0.165 C 
BRANCH  13  14
HETATM   14  O1  UNL     1     -15.730  -1.303 -21.158  1.00  0.00    -0.401 OA
ATOM     15  H1  UNL     1     -14.840  -1.347 -21.489  1.00  0.00     0.209 HD
ENDBRANCH  13  14
ENDBRANCH  12  13
ENDBRANCH  11  12
ENDBRANCH   5  11
BRANCH   1  16
HETATM   16  C2  UNL     1     -20.833   2.634 -16.097  1.00  0.00     0.269 C 
HETATM   17  C1  UNL     1     -21.971   1.839 -16.754  1.00  0.00     0.037 C 
ENDBRANCH   1  16
TORSDOF 5
ENDMDL
MODEL 3
REMARK VINA RESULT: -5.668653515      0.945      1.036
REMARK  5 active torsions:
REMARK  status: ('A' for Active; 'I' for Inactive)
REMARK    1  A    between atoms: C2_2  and  N1_3 
REMARK    2  A    between atoms: N2_7  and  C6_8 
REMARK    3  A    between atoms: C6_8  and  C7_9 
REMARK    4  A    between atoms: C7_9  and  C8_10 
REMARK    5  A    between atoms: C8_10  and  O1_11 
ROOT
HETATM    1  N1  UNL     1     -18.980   1.141 -14.816  1.00  0.00     0.099 N 
HETATM    2  C3  UNL     1     -18.168   2.201 -15.328  1.00  0.00     0.284 C 
HETATM    3  C4  UNL     1     -18.903   2.768 -16.537  1.00  0.00     0.063 C 
HETATM    4  C5  UNL     1     -18.218   2.359 -17.827  1.00  0.00     0.070 C 
HETATM    5  N2  UNL     1     -18.030   0.997 -17.876  1.00  0.00    -0.371 N 
HETATM    6  C9  UNL     1     -18.613   0.124 -16.939  1.00  0.00     0.099 C 
HETATM    7  C10 UNL     1     -19.637   0.648 -16.010  1.00  0.00     0.270 C 
HETATM    8  C11 UNL     1     -20.197   2.004 -16.476  1.00  0.00    -0.002 C 
HETATM    9  C12 UNL     1     -21.042   2.571 -15.359  1.00  0.00     0.018 C 
HETATM   10  C13 UNL     1     -20.968   1.932 -17.713  1.00  0.00     0.018 C 
ENDROOT
BRANCH   5  11
HETATM   11  C6  UNL     1     -17.589   0.376 -19.063  1.00  0.00     0.129 C 
BRANCH  11  12
HETATM   12  C7  UNL     1     -17.162  -1.047 -18.951  1.00  0.00     0.046 C 
BRANCH  12  13
HETATM   13  C8  UNL     1     -16.124  -1.380 -20.023  1.00  0.00     0.165 C 
BRANCH  13  14
HETATM   14  O1  UNL     1     -14.894  -1.677 -19.446  1.00  0.00    -0.401 OA
ATOM     15  H1  UNL     1     -14.181  -1.424 -20.020  1.00  0.00     0.209 HD
ENDBRANCH  13  14
ENDBRANCH  12  13
ENDBRANCH  11  12
ENDBRANCH   5  11
BRANCH   1  16
HETATM   16  C2  UNL     1     -18.364   0.185 -13.999  1.00  0.00     0.269 C 
HETATM   17  C1  UNL     1     -19.471  -0.676 -13.372  1.00  0.00     0.037 C 
ENDBRANCH   1  16
TORSDOF 5
ENDMDL
MODEL 4
REMARK VINA RESULT: -5.579480341      1.332      1.440
REMARK  5 active torsions:
REMARK  status: ('A' for Active; 'I' for Inactive)
REMARK    1  A    between atoms: C2_2  and  N1_3 
REMARK    2  A    between atoms: N2_7  and  C6_8 
REMARK    3  A    between atoms: C6_8  and  C7_9 
REMARK    4  A    between atoms: C7_9  and  C8_10 
REMARK    5  A    between atoms: C8_10  and  O1_11 
ROOT
HETATM    1  N1  UNL     1     -20.144   0.871 -14.910  1.00  0.00     0.099 N 
HETATM    2  C3  UNL     1     -19.111   1.856 -14.841  1.00  0.00     0.284 C 
HETATM    3  C4  UNL     1     -19.048   2.518 -16.213  1.00  0.00     0.063 C 
HETATM    4  C5  UNL     1     -17.815   2.071 -16.974  1.00  0.00     0.070 C 
HETATM    5  N2  UNL     1     -17.729   0.699 -17.012  1.00  0.00    -0.371 N 
HETATM    6  C9  UNL     1     -18.782  -0.133 -16.588  1.00  0.00     0.099 C 
HETATM    7  C10 UNL     1     -20.102   0.470 -16.302  1.00  0.00     0.270 C 
HETATM    8  C11 UNL     1     -20.228   1.884 -16.896  1.00  0.00    -0.002 C 
HETATM    9  C12 UNL     1     -21.494   2.508 -16.355  1.00  0.00     0.018 C 
HETATM   10  C13 UNL     1     -20.228   1.915 -18.356  1.00  0.00     0.018 C 
ENDROOT
BRANCH   5  11
HETATM   11  C6  UNL     1     -16.771   0.062 -17.830  1.00  0.00     0.129 C 
BRANCH  11  12
HETATM   12  C7  UNL     1     -17.247  -1.097 -18.634  1.00  0.00     0.046 C 
BRANCH  12  13
HETATM   13  C8  UNL     1     -16.357  -1.299 -19.860  1.00  0.00     0.165 C 
BRANCH  13  14
HETATM   14  O1  UNL     1     -15.039  -1.535 -19.482  1.00  0.00    -0.401 OA
ATOM     15  H1  UNL     1     -14.633  -2.175 -20.054  1.00  0.00     0.209 HD
ENDBRANCH  13  14
ENDBRANCH  12  13
ENDBRANCH  11  12
ENDBRANCH   5  11
BRANCH   1  16
HETATM   16  C2  UNL     1     -20.127  -0.159 -13.961  1.00  0.00     0.269 C 
HETATM   17  C1  UNL     1     -21.538  -0.266 -13.362  1.00  0.00     0.037 C 
ENDBRANCH   1  16
TORSDOF 5
ENDMDL
MODEL 5
REMARK VINA RESULT: -5.177669682      1.231      2.410
REMARK  5 active torsions:
REMARK  status: ('A' for Active; 'I' for Inactive)
REMARK    1  A    between atoms: C2_2  and  N1_3 
REMARK    2  A    between atoms: N2_7  and  C6_8 
REMARK    3  A    between atoms: C6_8  and  C7_9 
REMARK    4  A    between atoms: C7_9  and  C8_10 
REMARK    5  A    between atoms: C8_10  and  O1_11 
ROOT
HETATM    1  N1  UNL     1     -18.912   1.950 -14.990  1.00  0.00     0.099 N 
HETATM    2  C3  UNL     1     -19.999   2.177 -15.889  1.00  0.00     0.284 C 
HETATM    3  C4  UNL     1     -20.045   0.977 -16.828  1.00  0.00     0.063 C 
HETATM    4  C5  UNL     1     -19.544   1.352 -18.210  1.00  0.00     0.070 C 
HETATM    5  N2  UNL     1     -18.312   1.959 -18.140  1.00  0.00    -0.371 N 
HETATM    6  C9  UNL     1     -17.560   1.999 -16.951  1.00  0.00     0.099 C 
HETATM    7  C10 UNL     1     -17.993   1.176 -15.800  1.00  0.00     0.270 C 
HETATM    8  C11 UNL     1     -18.998   0.088 -16.217  1.00  0.00    -0.002 C 
HETATM    9  C12 UNL     1     -19.563  -0.534 -14.961  1.00  0.00     0.018 C 
HETATM   10  C13 UNL     1     -18.431  -0.940 -17.085  1.00  0.00     0.018 C 
ENDROOT
BRANCH   5  11
HETATM   11  C6  UNL     1     -17.571   2.216 -19.313  1.00  0.00     0.129 C 
BRANCH  11  12
HETATM   12  C7  UNL     1     -17.818   1.310 -20.468  1.00  0.00     0.046 C 
BRANCH  12  13
HETATM   13  C8  UNL     1     -16.887   0.099 -20.407  1.00  0.00     0.165 C 
BRANCH  13  14
HETATM   14  O1  UNL     1     -15.881   0.200 -21.362  1.00  0.00    -0.401 OA
ATOM     15  H1  UNL     1     -15.341   0.965 -21.203  1.00  0.00     0.209 HD
ENDBRANCH  13  14
ENDBRANCH  12  13
ENDBRANCH  11  12
ENDBRANCH   5  11
BRANCH   1  16
HETATM   16  C2  UNL     1     -18.378   3.058 -14.321  1.00  0.00     0.269 C 
HETATM   17  C1  UNL     1     -19.500   4.096 -14.166  1.00  0.00     0.037 C 
ENDBRANCH   1  16
TORSDOF 5
ENDMDL
