MODEL 1
REMARK VINA RESULT: -6.237682355      0.000      0.000
REMARK  6 active torsions:
REMARK  status: ('A' for Active; 'I' for Inactive)
REMARK    1  A    between atoms: N2_6  and  C5_7 
REMARK    2  A    between atoms: C5_7  and  C6_8 
REMARK    3  A    between atoms: C6_8  and  C7_9 
REMARK    4  A    between atoms: C7_9  and  C8_10 
REMARK    5  A    between atoms: C8_10  and  N3_11 
REMARK    6  A    between atoms: C11_14  and  O1_15 
ROOT
HETATM    1  C7  UNL     1     -16.997   1.268 -16.697  1.00  0.00     0.021 C 
ENDROOT
BRANCH   1   2
HETATM    2  C6  UNL     1     -17.745   1.856 -15.520  1.00  0.00     0.017 C 
BRANCH   2   3
HETATM    3  C5  UNL     1     -18.887   0.950 -15.123  1.00  0.00     0.096 C 
BRANCH   3   4
HETATM    4  N2  UNL     1     -20.089   1.714 -14.848  1.00  0.00    -0.279 NA
HETATM    5  C4  UNL     1     -20.348   2.697 -15.875  1.00  0.00     0.098 C 
HETATM    6  C3  UNL     1     -21.126   2.155 -17.043  1.00  0.00     0.035 C 
HETATM    7  C2  UNL     1     -22.424   1.508 -16.617  1.00  0.00     0.123 C 
HETATM    8  N1  UNL     1     -22.447   1.281 -15.202  1.00  0.00    -0.385 N 
HETATM    9  C1  UNL     1     -23.160   2.250 -14.436  1.00  0.00     0.149 C 
HETATM   10  C14 UNL     1     -21.212   0.831 -14.634  1.00  0.00     0.148 C 
ENDBRANCH   3   4
ENDBRANCH   2   3
ENDBRANCH   1   2
BRANCH   1  11
HETATM   11  C8  UNL     1     -17.515   1.816 -18.014  1.00  0.00     0.127 C 
BRANCH  11  12
HETATM   12  N3  UNL     1     -18.012   0.712 -18.782  1.00  0.00    -0.374 N 
HETATM   13  C9  UNL     1     -18.177   0.940 -20.158  1.00  0.00     0.065 C 
HETATM   14  C10 UNL     1     -17.673  -0.147 -21.071  1.00  0.00     0.076 C 
HETATM   15  C11 UNL     1     -16.381  -0.674 -20.438  1.00  0.00     0.127 C 
HETATM   16  C12 UNL     1     -16.822  -1.420 -19.201  1.00  0.00     0.076 C 
HETATM   17  C13 UNL     1     -17.662  -0.570 -18.319  1.00  0.00     0.065 C 
BRANCH  15  18
HETATM   18  O1  UNL     1     -15.676  -1.463 -21.317  1.00  0.00    -0.395 OA
ATOM     19  H1  UNL     1     -14.834  -1.078 -21.529  1.00  0.00     0.210 HD
ENDBRANCH  15  18
ENDBRANCH  11  12
ENDBRANCH   1  11
TORSDOF 6
ENDMDL
MODEL 2
REMARK VINA RESULT: -6.232982195      1.391      1.788
REMARK  6 active torsions:
REMARK  status: ('A' for Active; 'I' for Inactive)
REMARK    1  A    between atoms: N2_6  and  C5_7 
REMARK    2  A    between atoms: C5_7  and  C6_8 
REMARK    3  A    between atoms: C6_8  and  C7_9 
REMARK    4  A    between atoms: C7_9  and  C8_10 
REMARK    5  A    between atoms: C8_10  and  N3_11 
REMARK    6  A    between atoms: C11_14  and  O1_15 
ROOT
HETATM    1  C7  UNL     1     -17.853   2.337 -18.406  1.00  0.00     0.021 C 
ENDROOT
BRANCH   1   2
HETATM    2  C6  UNL     1     -17.744   1.849 -16.978  1.00  0.00     0.017 C 
BRANCH   2   3
HETATM    3  C5  UNL     1     -18.335   2.868 -16.032  1.00  0.00     0.096 C 
BRANCH   3   4
HETATM    4  N2  UNL     1     -19.414   2.292 -15.252  1.00  0.00    -0.279 NA
HETATM    5  C4  UNL     1     -20.656   3.003 -15.445  1.00  0.00     0.098 C 
HETATM    6  C3  UNL     1     -21.445   2.523 -16.633  1.00  0.00     0.035 C 
HETATM    7  C2  UNL     1     -21.711   1.036 -16.582  1.00  0.00     0.123 C 
HETATM    8  N1  UNL     1     -20.885   0.397 -15.600  1.00  0.00    -0.385 N 
HETATM    9  C1  UNL     1     -21.513   0.132 -14.348  1.00  0.00     0.149 C 
HETATM   10  C14 UNL     1     -19.538   0.879 -15.527  1.00  0.00     0.148 C 
ENDBRANCH   3   4
ENDBRANCH   2   3
ENDBRANCH   1   2
BRANCH   1  11
HETATM   11  C8  UNL     1     -18.934   1.592 -19.167  1.00  0.00     0.127 C 
BRANCH  11  12
HETATM   12  N3  UNL     1     -18.443   1.339 -20.489  1.00  0.00    -0.374 N 
HETATM   13  C9  UNL     1     -17.140   1.786 -20.762  1.00  0.00     0.065 C 
HETATM   14  C10 UNL     1     -16.249   0.816 -21.493  1.00  0.00     0.076 C 
HETATM   15  C11 UNL     1     -16.581  -0.573 -20.937  1.00  0.00     0.127 C 
HETATM   16  C12 UNL     1     -17.962  -0.889 -21.460  1.00  0.00     0.076 C 
HETATM   17  C13 UNL     1     -18.935   0.181 -21.120  1.00  0.00     0.065 C 
BRANCH  15  18
HETATM   18  O1  UNL     1     -15.640  -1.503 -21.313  1.00  0.00    -0.395 OA
ATOM     19  H1  UNL     1     -15.541  -2.182 -20.655  1.00  0.00     0.210 HD
ENDBRANCH  15  18
ENDBRANCH  11  12
ENDBRANCH   1  11
TORSDOF 6
ENDMDL
MODEL 3
REMARK VINA RESULT: -6.090804042      1.535      2.583
REMARK  6 active torsions:
REMARK  status: ('A' for Active; 'I' for Inactive)
REMARK    1  A    between atoms: N2_6  and  C5_7 
REMARK    2  A    between atoms: C5_7  and  C6_8 
REMARK    3  A    between atoms: C6_8  and  C7_9 
REMARK    4  A    between atoms: C7_9  and  C8_10 
REMARK    5  A    between atoms: C8_10  and  N3_11 
REMARK    6  A    between atoms: C11_14  and  O1_15 
ROOT
HETATM    1  C7  UNL     1     -19.571   2.042 -17.772  1.00  0.00     0.021 C 
ENDROOT
BRANCH   1   2
HETATM    2  C6  UNL     1     -21.060   2.050 -17.503  1.00  0.00     0.017 C 
BRANCH   2   3
HETATM    3  C5  UNL     1     -21.343   2.670 -16.154  1.00  0.00     0.096 C 
BRANCH   3   4
HETATM    4  N2  UNL     1     -22.480   2.035 -15.516  1.00  0.00    -0.279 NA
HETATM    5  C4  UNL     1     -22.456   0.599 -15.678  1.00  0.00     0.098 C 
HETATM    6  C3  UNL     1     -21.646  -0.110 -14.627  1.00  0.00     0.035 C 
HETATM    7  C2  UNL     1     -22.093   0.237 -13.226  1.00  0.00     0.123 C 
HETATM    8  N1  UNL     1     -22.950   1.387 -13.228  1.00  0.00    -0.385 N 
HETATM    9  C1  UNL     1     -24.347   1.111 -13.160  1.00  0.00     0.149 C 
HETATM   10  C14 UNL     1     -22.568   2.432 -14.129  1.00  0.00     0.148 C 
ENDBRANCH   3   4
ENDBRANCH   2   3
ENDBRANCH   1   2
BRANCH   1  11
HETATM   11  C8  UNL     1     -19.273   1.825 -19.244  1.00  0.00     0.127 C 
BRANCH  11  12
HETATM   12  N3  UNL     1     -17.902   1.425 -19.359  1.00  0.00    -0.374 N 
HETATM   13  C9  UNL     1     -17.499   0.355 -18.543  1.00  0.00     0.065 C 
HETATM   14  C10 UNL     1     -16.660  -0.704 -19.209  1.00  0.00     0.076 C 
HETATM   15  C11 UNL     1     -17.226  -0.871 -20.624  1.00  0.00     0.127 C 
HETATM   16  C12 UNL     1     -16.849   0.397 -21.352  1.00  0.00     0.076 C 
HETATM   17  C13 UNL     1     -17.309   1.606 -20.622  1.00  0.00     0.065 C 
BRANCH  15  18
HETATM   18  O1  UNL     1     -16.736  -2.003 -21.230  1.00  0.00    -0.395 OA
ATOM     19  H1  UNL     1     -16.792  -2.757 -20.654  1.00  0.00     0.210 HD
ENDBRANCH  15  18
ENDBRANCH  11  12
ENDBRANCH   1  11
TORSDOF 6
ENDMDL
MODEL 4
REMARK VINA RESULT: -6.058125384      1.515      2.605
REMARK  6 active torsions:
REMARK  status: ('A' for Active; 'I' for Inactive)
REMARK    1  A    between atoms: N2_6  and  C5_7 
REMARK    2  A    between atoms: C5_7  and  C6_8 
REMARK    3  A    between atoms: C6_8  and  C7_9 
REMARK    4  A    between atoms: C7_9  and  C8_10 
REMARK    5  A    between atoms: C8_10  and  N3_11 
REMARK    6  A    between atoms: C11_14  and  O1_15 
ROOT
HETATM    1  C7  UNL     1     -19.785   1.626 -17.783  1.00  0.00     0.021 C 
ENDROOT
BRANCH   1   2
HETATM    2  C6  UNL     1     -21.176   2.174 -17.547  1.00  0.00     0.017 C 
BRANCH   2   3
HETATM    3  C5  UNL     1     -22.017   1.161 -16.806  1.00  0.00     0.096 C 
BRANCH   3   4
HETATM    4  N2  UNL     1     -21.627   1.077 -15.412  1.00  0.00    -0.279 NA
HETATM    5  C4  UNL     1     -21.918   2.298 -14.697  1.00  0.00     0.098 C 
HETATM    6  C3  UNL     1     -23.321   2.358 -14.157  1.00  0.00     0.035 C 
HETATM    7  C2  UNL     1     -23.653   1.167 -13.288  1.00  0.00     0.123 C 
HETATM    8  N1  UNL     1     -22.682   0.124 -13.448  1.00  0.00    -0.385 N 
HETATM    9  C1  UNL     1     -21.679   0.059 -12.437  1.00  0.00     0.149 C 
HETATM   10  C14 UNL     1     -22.223  -0.083 -14.789  1.00  0.00     0.148 C 
ENDBRANCH   3   4
ENDBRANCH   2   3
ENDBRANCH   1   2
BRANCH   1  11
HETATM   11  C8  UNL     1     -19.329   1.862 -19.211  1.00  0.00     0.127 C 
BRANCH  11  12
HETATM   12  N3  UNL     1     -17.958   1.458 -19.305  1.00  0.00    -0.374 N 
HETATM   13  C9  UNL     1     -17.572   0.382 -18.489  1.00  0.00     0.065 C 
HETATM   14  C10 UNL     1     -16.726  -0.676 -19.148  1.00  0.00     0.076 C 
HETATM   15  C11 UNL     1     -17.268  -0.831 -20.573  1.00  0.00     0.127 C 
HETATM   16  C12 UNL     1     -16.874   0.440 -21.286  1.00  0.00     0.076 C 
HETATM   17  C13 UNL     1     -17.342   1.647 -20.556  1.00  0.00     0.065 C 
BRANCH  15  18
HETATM   18  O1  UNL     1     -16.772  -1.961 -21.179  1.00  0.00    -0.395 OA
ATOM     19  H1  UNL     1     -16.554  -1.800 -22.090  1.00  0.00     0.210 HD
ENDBRANCH  15  18
ENDBRANCH  11  12
ENDBRANCH   1  11
TORSDOF 6
ENDMDL
MODEL 5
REMARK VINA RESULT: -6.054559877      0.940      1.540
REMARK  6 active torsions:
REMARK  status: ('A' for Active; 'I' for Inactive)
REMARK    1  A    between atoms: N2_6  and  C5_7 
REMARK    2  A    between atoms: C5_7  and  C6_8 
REMARK    3  A    between atoms: C6_8  and  C7_9 
REMARK    4  A    between atoms: C7_9  and  C8_10 
REMARK    5  A    between atoms: C8_10  and  N3_11 
REMARK    6  A    between atoms: C11_14  and  O1_15 
ROOT
HETATM    1  C7  UNL     1     -18.375   2.754 -17.658  1.00  0.00     0.021 C 
ENDROOT
BRANCH   1   2
HETATM    2  C6  UNL     1     -19.597   2.389 -16.843  1.00  0.00     0.017 C 
BRANCH   2   3
HETATM    3  C5  UNL     1     -19.183   1.856 -15.492  1.00  0.00     0.096 C 
BRANCH   3   4
HETATM    4  N2  UNL     1     -20.229   1.036 -14.911  1.00  0.00    -0.279 NA
HETATM    5  C4  UNL     1     -20.705   1.577 -13.659  1.00  0.00     0.098 C 
HETATM    6  C3  UNL     1     -21.793   2.603 -13.823  1.00  0.00     0.035 C 
HETATM    7  C2  UNL     1     -22.959   2.079 -14.629  1.00  0.00     0.123 C 
HETATM    8  N1  UNL     1     -22.614   0.863 -15.306  1.00  0.00    -0.385 N 
HETATM    9  C1  UNL     1     -23.047  -0.338 -14.671  1.00  0.00     0.149 C 
HETATM   10  C14 UNL     1     -21.295   0.827 -15.863  1.00  0.00     0.148 C 
ENDBRANCH   3   4
ENDBRANCH   2   3
ENDBRANCH   1   2
BRANCH   1  11
HETATM   11  C8  UNL     1     -17.391   1.601 -17.732  1.00  0.00     0.127 C 
BRANCH  11  12
HETATM   12  N3  UNL     1     -17.940   0.613 -18.612  1.00  0.00    -0.374 N 
HETATM   13  C9  UNL     1     -18.063   0.985 -19.961  1.00  0.00     0.065 C 
HETATM   14  C10 UNL     1     -17.610  -0.037 -20.971  1.00  0.00     0.076 C 
HETATM   15  C11 UNL     1     -16.366  -0.705 -20.375  1.00  0.00     0.127 C 
HETATM   16  C12 UNL     1     -16.877  -1.539 -19.225  1.00  0.00     0.076 C 
HETATM   17  C13 UNL     1     -17.680  -0.728 -18.274  1.00  0.00     0.065 C 
BRANCH  15  18
HETATM   18  O1  UNL     1     -15.694  -1.447 -21.318  1.00  0.00    -0.395 OA
ATOM     19  H1  UNL     1     -15.932  -1.185 -22.200  1.00  0.00     0.210 HD
ENDBRANCH  15  18
ENDBRANCH  11  12
ENDBRANCH   1  11
TORSDOF 6
ENDMDL
