MODEL 1
REMARK VINA RESULT: -6.229510948      0.000      0.000
REMARK  6 active torsions:
REMARK  status: ('A' for Active; 'I' for Inactive)
REMARK    1  A    between atoms: O1_2  and  C2_3 
REMARK    2  A    between atoms: N1_6  and  C5_7 
REMARK    3  A    between atoms: C5_7  and  C6_8 
REMARK    4  A    between atoms: C6_8  and  O2_9 
REMARK    5  A    between atoms: C6_8  and  C7_11 
REMARK    6  A    between atoms: C7_11  and  N2_12 
ROOT
HETATM    1  C6  UNL     1     -18.353   2.517 -17.773  1.00  0.00     0.174 C 
ENDROOT
BRANCH   1   2
HETATM    2  C5  UNL     1     -18.662   2.843 -16.367  1.00  0.00     0.305 C 
BRANCH   2   3
HETATM    3  N1  UNL     1     -20.058   2.582 -16.010  1.00  0.00     0.091 N 
HETATM    4  C4  UNL     1     -20.081   1.651 -14.895  1.00  0.00     0.275 C 
HETATM    5  C3  UNL     1     -20.823   0.380 -15.249  1.00  0.00     0.062 C 
HETATM    6  C2  UNL     1     -22.234   0.670 -15.704  1.00  0.00     0.124 C 
HETATM    7  C14 UNL     1     -22.276   1.903 -16.558  1.00  0.00     0.062 C 
HETATM    8  C13 UNL     1     -20.856   2.115 -17.098  1.00  0.00     0.275 C 
BRANCH   6   9
HETATM    9  O1  UNL     1     -23.094   0.827 -14.624  1.00  0.00    -0.391 OA
HETATM   10  C1  UNL     1     -23.377  -0.354 -13.966  1.00  0.00     0.202 C 
ENDBRANCH   6   9
ENDBRANCH   2   3
ENDBRANCH   1   2
BRANCH   1  11
HETATM   11  O2  UNL     1     -17.510   3.580 -18.250  1.00  0.00    -0.392 OA
ATOM     12  H2  UNL     1     -18.044   4.091 -18.846  1.00  0.00     0.210 HD
ENDBRANCH   1  11
BRANCH   1  13
HETATM   13  C7  UNL     1     -17.527   1.295 -17.972  1.00  0.00     0.305 C 
BRANCH  13  14
HETATM   14  N2  UNL     1     -17.958   0.287 -18.867  1.00  0.00     0.090 N 
HETATM   15  C8  UNL     1     -17.600   0.796 -20.218  1.00  0.00     0.272 C 
HETATM   16  C9  UNL     1     -17.798  -0.245 -21.277  1.00  0.00     0.030 C 
HETATM   17  C10 UNL     1     -16.745  -1.336 -21.128  1.00  0.00     0.003 C 
HETATM   18  C11 UNL     1     -16.164  -1.190 -19.762  1.00  0.00     0.030 C 
HETATM   19  C12 UNL     1     -17.315  -0.992 -18.773  1.00  0.00     0.272 C 
ENDBRANCH  13  14
ENDBRANCH   1  13
TORSDOF 6
ENDMDL
MODEL 2
REMARK VINA RESULT: -6.014133565      0.936      1.518
REMARK  6 active torsions:
REMARK  status: ('A' for Active; 'I' for Inactive)
REMARK    1  A    between atoms: O1_2  and  C2_3 
REMARK    2  A    between atoms: N1_6  and  C5_7 
REMARK    3  A    between atoms: C5_7  and  C6_8 
REMARK    4  A    between atoms: C6_8  and  O2_9 
REMARK    5  A    between atoms: C6_8  and  C7_11 
REMARK    6  A    between atoms: C7_11  and  N2_12 
ROOT
HETATM    1  C6  UNL     1     -18.657   2.546 -17.760  1.00  0.00     0.174 C 
ENDROOT
BRANCH   1   2
HETATM    2  C5  UNL     1     -18.259   2.049 -16.429  1.00  0.00     0.305 C 
BRANCH   2   3
HETATM    3  N1  UNL     1     -19.386   1.918 -15.503  1.00  0.00     0.091 N 
HETATM    4  C4  UNL     1     -20.005   0.621 -15.713  1.00  0.00     0.275 C 
HETATM    5  C3  UNL     1     -21.456   0.756 -16.120  1.00  0.00     0.062 C 
HETATM    6  C2  UNL     1     -22.247   1.543 -15.101  1.00  0.00     0.124 C 
HETATM    7  C14 UNL     1     -21.440   2.690 -14.569  1.00  0.00     0.062 C 
HETATM    8  C13 UNL     1     -20.342   2.975 -15.602  1.00  0.00     0.275 C 
BRANCH   6   9
HETATM    9  O1  UNL     1     -22.658   0.738 -14.046  1.00  0.00    -0.391 OA
HETATM   10  C1  UNL     1     -23.354  -0.385 -14.446  1.00  0.00     0.202 C 
ENDBRANCH   6   9
ENDBRANCH   2   3
ENDBRANCH   1   2
BRANCH   1  11
HETATM   11  O2  UNL     1     -17.616   3.449 -18.172  1.00  0.00    -0.392 OA
ATOM     12  H2  UNL     1     -17.651   3.474 -19.121  1.00  0.00     0.210 HD
ENDBRANCH   1  11
BRANCH   1  13
HETATM   13  C7  UNL     1     -18.680   1.520 -18.837  1.00  0.00     0.305 C 
BRANCH  13  14
HETATM   14  N2  UNL     1     -17.466   1.019 -19.365  1.00  0.00     0.090 N 
HETATM   15  C8  UNL     1     -17.445  -0.417 -18.978  1.00  0.00     0.272 C 
HETATM   16  C9  UNL     1     -16.321  -1.156 -19.638  1.00  0.00     0.030 C 
HETATM   17  C10 UNL     1     -16.605  -1.297 -21.128  1.00  0.00     0.003 C 
HETATM   18  C11 UNL     1     -17.677  -0.314 -21.458  1.00  0.00     0.030 C 
HETATM   19  C12 UNL     1     -17.323   1.018 -20.793  1.00  0.00     0.272 C 
ENDBRANCH  13  14
ENDBRANCH   1  13
TORSDOF 6
ENDMDL
MODEL 3
REMARK VINA RESULT: -5.967270179      0.624      1.192
REMARK  6 active torsions:
REMARK  status: ('A' for Active; 'I' for Inactive)
REMARK    1  A    between atoms: O1_2  and  C2_3 
REMARK    2  A    between atoms: N1_6  and  C5_7 
REMARK    3  A    between atoms: C5_7  and  C6_8 
REMARK    4  A    between atoms: C6_8  and  O2_9 
REMARK    5  A    between atoms: C6_8  and  C7_11 
REMARK    6  A    between atoms: C7_11  and  N2_12 
ROOT
HETATM    1  C6  UNL     1     -18.366   2.460 -17.902  1.00  0.00     0.174 C 
ENDROOT
BRANCH   1   2
HETATM    2  C5  UNL     1     -18.711   2.787 -16.505  1.00  0.00     0.305 C 
BRANCH   2   3
HETATM    3  N1  UNL     1     -19.773   1.938 -15.961  1.00  0.00     0.091 N 
HETATM    4  C4  UNL     1     -20.681   1.589 -17.040  1.00  0.00     0.275 C 
HETATM    5  C3  UNL     1     -22.089   2.068 -16.757  1.00  0.00     0.062 C 
HETATM    6  C2  UNL     1     -22.610   1.519 -15.450  1.00  0.00     0.124 C 
HETATM    7  C14 UNL     1     -21.530   1.504 -14.409  1.00  0.00     0.062 C 
HETATM    8  C13 UNL     1     -20.469   2.518 -14.858  1.00  0.00     0.275 C 
BRANCH   6   9
HETATM    9  O1  UNL     1     -23.119   0.235 -15.605  1.00  0.00    -0.391 OA
HETATM   10  C1  UNL     1     -23.182  -0.481 -14.427  1.00  0.00     0.202 C 
ENDBRANCH   6   9
ENDBRANCH   2   3
ENDBRANCH   1   2
BRANCH   1  11
HETATM   11  O2  UNL     1     -17.542   3.542 -18.370  1.00  0.00    -0.392 OA
ATOM     12  H2  UNL     1     -17.239   3.286 -19.233  1.00  0.00     0.210 HD
ENDBRANCH   1  11
BRANCH   1  13
HETATM   13  C7  UNL     1     -17.504   1.259 -18.077  1.00  0.00     0.305 C 
BRANCH  13  14
HETATM   14  N2  UNL     1     -17.933   0.194 -18.904  1.00  0.00     0.090 N 
HETATM   15  C8  UNL     1     -17.727   0.682 -20.293  1.00  0.00     0.272 C 
HETATM   16  C9  UNL     1     -17.936  -0.405 -21.303  1.00  0.00     0.030 C 
HETATM   17  C10 UNL     1     -16.797  -1.412 -21.216  1.00  0.00     0.003 C 
HETATM   18  C11 UNL     1     -16.116  -1.181 -19.909  1.00  0.00     0.030 C 
HETATM   19  C12 UNL     1     -17.192  -1.033 -18.830  1.00  0.00     0.272 C 
ENDBRANCH  13  14
ENDBRANCH   1  13
TORSDOF 6
ENDMDL
MODEL 4
REMARK VINA RESULT: -5.908566435      1.100      1.932
REMARK  6 active torsions:
REMARK  status: ('A' for Active; 'I' for Inactive)
REMARK    1  A    between atoms: O1_2  and  C2_3 
REMARK    2  A    between atoms: N1_6  and  C5_7 
REMARK    3  A    between atoms: C5_7  and  C6_8 
REMARK    4  A    between atoms: C6_8  and  O2_9 
REMARK    5  A    between atoms: C6_8  and  C7_11 
REMARK    6  A    between atoms: C7_11  and  N2_12 
ROOT
HETATM    1  C6  UNL     1     -18.648   2.647 -17.902  1.00  0.00     0.174 C 
ENDROOT
BRANCH   1   2
HETATM    2  C5  UNL     1     -18.469   2.255 -16.491  1.00  0.00     0.305 C 
BRANCH   2   3
HETATM    3  N1  UNL     1     -19.356   1.163 -16.082  1.00  0.00     0.091 N 
HETATM    4  C4  UNL     1     -20.666   1.719 -15.791  1.00  0.00     0.275 C 
HETATM    5  C3  UNL     1     -21.077   1.451 -14.358  1.00  0.00     0.062 C 
HETATM    6  C2  UNL     1     -21.065  -0.026 -14.044  1.00  0.00     0.124 C 
HETATM    7  C14 UNL     1     -19.893  -0.701 -14.695  1.00  0.00     0.062 C 
HETATM    8  C13 UNL     1     -18.859   0.394 -14.986  1.00  0.00     0.275 C 
BRANCH   6   9
HETATM    9  O1  UNL     1     -22.240  -0.643 -14.457  1.00  0.00    -0.391 OA
HETATM   10  C1  UNL     1     -23.354  -0.241 -13.746  1.00  0.00     0.202 C 
ENDBRANCH   6   9
ENDBRANCH   2   3
ENDBRANCH   1   2
BRANCH   1  11
HETATM   11  O2  UNL     1     -17.463   3.381 -18.261  1.00  0.00    -0.392 OA
ATOM     12  H2  UNL     1     -17.023   2.860 -18.922  1.00  0.00     0.210 HD
ENDBRANCH   1  11
BRANCH   1  13
HETATM   13  C7  UNL     1     -18.672   1.521 -18.874  1.00  0.00     0.305 C 
BRANCH  13  14
HETATM   14  N2  UNL     1     -17.461   1.013 -19.401  1.00  0.00     0.090 N 
HETATM   15  C8  UNL     1     -17.426  -0.411 -18.976  1.00  0.00     0.272 C 
HETATM   16  C9  UNL     1     -16.304  -1.161 -19.628  1.00  0.00     0.030 C 
HETATM   17  C10 UNL     1     -16.603  -1.345 -21.110  1.00  0.00     0.003 C 
HETATM   18  C11 UNL     1     -17.685  -0.377 -21.455  1.00  0.00     0.030 C 
HETATM   19  C12 UNL     1     -17.332   0.975 -20.830  1.00  0.00     0.272 C 
ENDBRANCH  13  14
ENDBRANCH   1  13
TORSDOF 6
ENDMDL
MODEL 5
REMARK VINA RESULT: -5.871766278      0.935      1.438
REMARK  6 active torsions:
REMARK  status: ('A' for Active; 'I' for Inactive)
REMARK    1  A    between atoms: O1_2  and  C2_3 
REMARK    2  A    between atoms: N1_6  and  C5_7 
REMARK    3  A    between atoms: C5_7  and  C6_8 
REMARK    4  A    between atoms: C6_8  and  O2_9 
REMARK    5  A    between atoms: C6_8  and  C7_11 
REMARK    6  A    between atoms: C7_11  and  N2_12 
ROOT
HETATM    1  C6  UNL     1     -18.715   2.630 -18.040  1.00  0.00     0.174 C 
ENDROOT
BRANCH   1   2
HETATM    2  C5  UNL     1     -18.690   2.168 -16.639  1.00  0.00     0.305 C 
BRANCH   2   3
HETATM    3  N1  UNL     1     -20.004   2.215 -15.995  1.00  0.00     0.091 N 
HETATM    4  C4  UNL     1     -19.995   1.303 -14.864  1.00  0.00     0.275 C 
HETATM    5  C3  UNL     1     -21.051   0.228 -15.011  1.00  0.00     0.062 C 
HETATM    6  C2  UNL     1     -22.429   0.823 -15.179  1.00  0.00     0.124 C 
HETATM    7  C14 UNL     1     -22.381   2.042 -16.053  1.00  0.00     0.062 C 
HETATM    8  C13 UNL     1     -21.092   1.943 -16.878  1.00  0.00     0.275 C 
BRANCH   6   9
HETATM    9  O1  UNL     1     -22.992   1.155 -13.953  1.00  0.00    -0.391 OA
HETATM   10  C1  UNL     1     -23.394   2.473 -13.869  1.00  0.00     0.202 C 
ENDBRANCH   6   9
ENDBRANCH   2   3
ENDBRANCH   1   2
BRANCH   1  11
HETATM   11  O2  UNL     1     -17.483   3.344 -18.244  1.00  0.00    -0.392 OA
ATOM     12  H2  UNL     1     -17.344   3.364 -19.183  1.00  0.00     0.210 HD
ENDBRANCH   1  11
BRANCH   1  13
HETATM   13  C7  UNL     1     -18.670   1.550 -19.064  1.00  0.00     0.305 C 
BRANCH  13  14
HETATM   14  N2  UNL     1     -17.424   1.028 -19.488  1.00  0.00     0.090 N 
HETATM   15  C8  UNL     1     -17.445  -0.398 -19.068  1.00  0.00     0.272 C 
HETATM   16  C9  UNL     1     -16.282  -1.161 -19.625  1.00  0.00     0.030 C 
HETATM   17  C10 UNL     1     -16.456  -1.335 -21.128  1.00  0.00     0.003 C 
HETATM   18  C11 UNL     1     -17.491  -0.352 -21.560  1.00  0.00     0.030 C 
HETATM   19  C12 UNL     1     -17.175   0.993 -20.900  1.00  0.00     0.272 C 
ENDBRANCH  13  14
ENDBRANCH   1  13
TORSDOF 6
ENDMDL
