MODEL 1
REMARK VINA RESULT: -6.503734481      0.000      0.000
REMARK  5 active torsions:
REMARK  status: ('A' for Active; 'I' for Inactive)
REMARK    1  A    between atoms: O1_1  and  C1_3 
REMARK    2  A    between atoms: C1_3  and  C2_4 
REMARK    3  A    between atoms: C1_3  and  C8_12 
REMARK    4  A    between atoms: C2_4  and  C3_5 
REMARK    5  A    between atoms: C3_5  and  N1_6 
ROOT
HETATM    1  C1  UNL     1     -18.287   2.852 -16.976  1.00  0.00     0.158 C 
ENDROOT
BRANCH   1   2
HETATM    2  O1  UNL     1     -17.090   2.185 -16.345  1.00  0.00    -0.390 OA
ATOM      3  H1  UNL     1     -17.150   2.509 -15.455  1.00  0.00     0.210 HD
ENDBRANCH   1   2
BRANCH   1   4
HETATM    4  C2  UNL     1     -18.481   2.011 -18.173  1.00  0.00     0.067 C 
BRANCH   4   5
HETATM    5  C3  UNL     1     -18.030   0.610 -18.195  1.00  0.00     0.275 C 
BRANCH   5   6
HETATM    6  N1  UNL     1     -17.899   0.193 -19.625  1.00  0.00     0.092 N 
HETATM    7  C4  UNL     1     -17.151  -1.020 -19.689  1.00  0.00     0.298 C 
HETATM    8  C5  UNL     1     -16.400  -1.271 -20.955  1.00  0.00     0.198 C 
HETATM    9  O2  UNL     1     -15.663  -0.157 -21.351  1.00  0.00    -0.388 OA
HETATM   10  C6  UNL     1     -16.500   0.938 -21.549  1.00  0.00     0.198 C 
HETATM   11  C7  UNL     1     -17.368   1.267 -20.390  1.00  0.00     0.298 C 
ENDBRANCH   5   6
ENDBRANCH   4   5
ENDBRANCH   1   4
BRANCH   1  12
HETATM   12  C8  UNL     1     -19.227   2.858 -15.839  1.00  0.00     0.094 C 
HETATM   13  N2  UNL     1     -20.167   1.933 -15.515  1.00  0.00    -0.371 N 
HETATM   14  C9  UNL     1     -19.959   0.677 -14.959  1.00  0.00     0.063 C 
HETATM   15  C14 UNL     1     -21.535   2.268 -15.723  1.00  0.00     0.127 C 
HETATM   16  C10 UNL     1     -20.814   0.381 -13.741  1.00  0.00     0.044 C 
HETATM   17  C11 UNL     1     -21.975  -0.466 -14.200  1.00  0.00     0.005 C 
HETATM   18  C12 UNL     1     -22.962   0.310 -15.031  1.00  0.00     0.002 C 
HETATM   19  C13 UNL     1     -22.320   1.061 -16.176  1.00  0.00     0.020 C 
ENDBRANCH   1  12
TORSDOF 5
ENDMDL
MODEL 2
REMARK VINA RESULT: -6.446902472      0.771      1.070
REMARK  5 active torsions:
REMARK  status: ('A' for Active; 'I' for Inactive)
REMARK    1  A    between atoms: O1_1  and  C1_3 
REMARK    2  A    between atoms: C1_3  and  C2_4 
REMARK    3  A    between atoms: C1_3  and  C8_12 
REMARK    4  A    between atoms: C2_4  and  C3_5 
REMARK    5  A    between atoms: C3_5  and  N1_6 
ROOT
HETATM    1  C1  UNL     1     -18.407   2.884 -17.387  1.00  0.00     0.158 C 
ENDROOT
BRANCH   1   2
HETATM    2  O1  UNL     1     -17.101   2.288 -16.923  1.00  0.00    -0.390 OA
ATOM      3  H1  UNL     1     -17.042   2.642 -16.044  1.00  0.00     0.210 HD
ENDBRANCH   1   2
BRANCH   1   4
HETATM    4  C2  UNL     1     -18.716   2.021 -18.544  1.00  0.00     0.067 C 
BRANCH   4   5
HETATM    5  C3  UNL     1     -17.714   1.776 -19.594  1.00  0.00     0.275 C 
BRANCH   5   6
HETATM    6  N1  UNL     1     -17.780   0.327 -19.962  1.00  0.00     0.092 N 
HETATM    7  C4  UNL     1     -17.404  -0.458 -18.833  1.00  0.00     0.298 C 
HETATM    8  C5  UNL     1     -16.822  -1.802 -19.121  1.00  0.00     0.198 C 
HETATM    9  O2  UNL     1     -15.826  -1.737 -20.094  1.00  0.00    -0.388 OA
HETATM   10  C6  UNL     1     -16.335  -1.217 -21.281  1.00  0.00     0.198 C 
HETATM   11  C7  UNL     1     -17.013   0.097 -21.137  1.00  0.00     0.298 C 
ENDBRANCH   5   6
ENDBRANCH   4   5
ENDBRANCH   1   4
BRANCH   1  12
HETATM   12  C8  UNL     1     -19.183   2.851 -16.134  1.00  0.00     0.094 C 
HETATM   13  N2  UNL     1     -20.122   1.951 -15.744  1.00  0.00    -0.371 N 
HETATM   14  C9  UNL     1     -19.913   0.649 -15.306  1.00  0.00     0.063 C 
HETATM   15  C14 UNL     1     -21.484   2.364 -15.738  1.00  0.00     0.127 C 
HETATM   16  C10 UNL     1     -20.611   0.305 -14.003  1.00  0.00     0.044 C 
HETATM   17  C11 UNL     1     -21.869  -0.450 -14.351  1.00  0.00     0.005 C 
HETATM   18  C12 UNL     1     -22.914   0.430 -14.985  1.00  0.00     0.002 C 
HETATM   19  C13 UNL     1     -22.390   1.231 -16.156  1.00  0.00     0.020 C 
ENDBRANCH   1  12
TORSDOF 5
ENDMDL
MODEL 3
REMARK VINA RESULT: -6.283437373      0.994      1.208
REMARK  5 active torsions:
REMARK  status: ('A' for Active; 'I' for Inactive)
REMARK    1  A    between atoms: O1_1  and  C1_3 
REMARK    2  A    between atoms: C1_3  and  C2_4 
REMARK    3  A    between atoms: C1_3  and  C8_12 
REMARK    4  A    between atoms: C2_4  and  C3_5 
REMARK    5  A    between atoms: C3_5  and  N1_6 
ROOT
HETATM    1  C1  UNL     1     -18.611   2.694 -16.334  1.00  0.00     0.158 C 
ENDROOT
BRANCH   1   2
HETATM    2  O1  UNL     1     -17.144   2.399 -16.153  1.00  0.00    -0.390 OA
ATOM      3  H1  UNL     1     -16.927   2.987 -15.440  1.00  0.00     0.210 HD
ENDBRANCH   1   2
BRANCH   1   4
HETATM    4  C2  UNL     1     -18.850   2.126 -17.675  1.00  0.00     0.067 C 
BRANCH   4   5
HETATM    5  C3  UNL     1     -17.879   2.322 -18.764  1.00  0.00     0.275 C 
BRANCH   5   6
HETATM    6  N1  UNL     1     -17.846   1.069 -19.580  1.00  0.00     0.092 N 
HETATM    7  C4  UNL     1     -17.199   0.042 -18.832  1.00  0.00     0.298 C 
HETATM    8  C5  UNL     1     -16.528  -1.034 -19.621  1.00  0.00     0.198 C 
HETATM    9  O2  UNL     1     -15.727  -0.511 -20.633  1.00  0.00    -0.388 OA
HETATM   10  C6  UNL     1     -16.484   0.264 -21.507  1.00  0.00     0.198 C 
HETATM   11  C7  UNL     1     -17.270   1.341 -20.851  1.00  0.00     0.298 C 
ENDBRANCH   5   6
ENDBRANCH   4   5
ENDBRANCH   1   4
BRANCH   1  12
HETATM   12  C8  UNL     1     -19.164   2.100 -15.102  1.00  0.00     0.094 C 
HETATM   13  N2  UNL     1     -20.423   1.644 -14.875  1.00  0.00    -0.371 N 
HETATM   14  C9  UNL     1     -20.993   0.469 -15.349  1.00  0.00     0.063 C 
HETATM   15  C14 UNL     1     -21.273   2.414 -14.032  1.00  0.00     0.127 C 
HETATM   16  C10 UNL     1     -21.664  -0.378 -14.283  1.00  0.00     0.044 C 
HETATM   17  C11 UNL     1     -23.146  -0.110 -14.361  1.00  0.00     0.005 C 
HETATM   18  C12 UNL     1     -23.511   1.266 -13.872  1.00  0.00     0.002 C 
HETATM   19  C13 UNL     1     -22.700   2.366 -14.521  1.00  0.00     0.020 C 
ENDBRANCH   1  12
TORSDOF 5
ENDMDL
MODEL 4
REMARK VINA RESULT: -6.248290786      0.931      1.037
REMARK  5 active torsions:
REMARK  status: ('A' for Active; 'I' for Inactive)
REMARK    1  A    between atoms: O1_1  and  C1_3 
REMARK    2  A    between atoms: C1_3  and  C2_4 
REMARK    3  A    between atoms: C1_3  and  C8_12 
REMARK    4  A    between atoms: C2_4  and  C3_5 
REMARK    5  A    between atoms: C3_5  and  N1_6 
ROOT
HETATM    1  C1  UNL     1     -17.356   1.824 -16.417  1.00  0.00     0.158 C 
ENDROOT
BRANCH   1   2
HETATM    2  O1  UNL     1     -16.322   0.778 -16.079  1.00  0.00    -0.390 OA
ATOM      3  H1  UNL     1     -16.241   0.900 -15.141  1.00  0.00     0.210 HD
ENDBRANCH   1   2
BRANCH   1   4
HETATM    4  C2  UNL     1     -17.782   1.377 -17.757  1.00  0.00     0.067 C 
BRANCH   4   5
HETATM    5  C3  UNL     1     -17.905  -0.055 -18.073  1.00  0.00     0.275 C 
BRANCH   5   6
HETATM    6  N1  UNL     1     -17.834  -0.204 -19.560  1.00  0.00     0.092 N 
HETATM    7  C4  UNL     1     -16.969  -1.292 -19.878  1.00  0.00     0.298 C 
HETATM    8  C5  UNL     1     -16.288  -1.235 -21.206  1.00  0.00     0.198 C 
HETATM    9  O2  UNL     1     -15.704   0.009 -21.436  1.00  0.00    -0.388 OA
HETATM   10  C6  UNL     1     -16.664   1.016 -21.392  1.00  0.00     0.198 C 
HETATM   11  C7  UNL     1     -17.477   1.039 -20.149  1.00  0.00     0.298 C 
ENDBRANCH   5   6
ENDBRANCH   4   5
ENDBRANCH   1   4
BRANCH   1  12
HETATM   12  C8  UNL     1     -18.227   1.740 -15.229  1.00  0.00     0.094 C 
HETATM   13  N2  UNL     1     -19.562   1.492 -15.176  1.00  0.00    -0.371 N 
HETATM   14  C9  UNL     1     -20.202   0.275 -15.370  1.00  0.00     0.063 C 
HETATM   15  C14 UNL     1     -20.431   2.572 -14.852  1.00  0.00     0.127 C 
HETATM   16  C10 UNL     1     -21.194  -0.093 -14.282  1.00  0.00     0.044 C 
HETATM   17  C11 UNL     1     -22.571   0.247 -14.793  1.00  0.00     0.005 C 
HETATM   18  C12 UNL     1     -22.807   1.733 -14.872  1.00  0.00     0.002 C 
HETATM   19  C13 UNL     1     -21.723   2.470 -15.626  1.00  0.00     0.020 C 
ENDBRANCH   1  12
TORSDOF 5
ENDMDL
MODEL 5
REMARK VINA RESULT: -6.236841773      1.513      2.013
REMARK  5 active torsions:
REMARK  status: ('A' for Active; 'I' for Inactive)
REMARK    1  A    between atoms: O1_1  and  C1_3 
REMARK    2  A    between atoms: C1_3  and  C2_4 
REMARK    3  A    between atoms: C1_3  and  C8_12 
REMARK    4  A    between atoms: C2_4  and  C3_5 
REMARK    5  A    between atoms: C3_5  and  N1_6 
ROOT
HETATM    1  C1  UNL     1     -20.091   2.089 -17.082  1.00  0.00     0.158 C 
ENDROOT
BRANCH   1   2
HETATM    2  O1  UNL     1     -19.713   0.690 -16.664  1.00  0.00    -0.390 OA
ATOM      3  H1  UNL     1     -19.146   0.433 -17.381  1.00  0.00     0.210 HD
ENDBRANCH   1   2
BRANCH   1   4
HETATM    4  C2  UNL     1     -19.536   2.136 -18.448  1.00  0.00     0.067 C 
BRANCH   4   5
HETATM    5  C3  UNL     1     -18.099   1.923 -18.689  1.00  0.00     0.275 C 
BRANCH   5   6
HETATM    6  N1  UNL     1     -17.960   0.804 -19.672  1.00  0.00     0.092 N 
HETATM    7  C4  UNL     1     -17.318  -0.298 -19.035  1.00  0.00     0.298 C 
HETATM    8  C5  UNL     1     -16.552  -1.225 -19.921  1.00  0.00     0.198 C 
HETATM    9  O2  UNL     1     -15.711  -0.533 -20.791  1.00  0.00    -0.388 OA
HETATM   10  C6  UNL     1     -16.444   0.335 -21.595  1.00  0.00     0.198 C 
HETATM   11  C7  UNL     1     -17.317   1.277 -20.848  1.00  0.00     0.298 C 
ENDBRANCH   5   6
ENDBRANCH   4   5
ENDBRANCH   1   4
BRANCH   1  12
HETATM   12  C8  UNL     1     -21.539   2.075 -16.805  1.00  0.00     0.094 C 
HETATM   13  N2  UNL     1     -22.183   1.635 -15.692  1.00  0.00    -0.371 N 
HETATM   14  C9  UNL     1     -22.248   2.258 -14.452  1.00  0.00     0.063 C 
HETATM   15  C14 UNL     1     -22.915   0.417 -15.780  1.00  0.00     0.127 C 
HETATM   16  C10 UNL     1     -23.650   2.388 -13.888  1.00  0.00     0.044 C 
HETATM   17  C11 UNL     1     -23.838   1.279 -12.884  1.00  0.00     0.005 C 
HETATM   18  C12 UNL     1     -23.941  -0.076 -13.532  1.00  0.00     0.002 C 
HETATM   19  C13 UNL     1     -22.810  -0.366 -14.494  1.00  0.00     0.020 C 
ENDBRANCH   1  12
TORSDOF 5
ENDMDL
