MODEL 1
REMARK VINA RESULT: -5.620742411      0.000      0.000
REMARK  5 active torsions:
REMARK  status: ('A' for Active; 'I' for Inactive)
REMARK    1  A    between atoms: N1_2  and  C2_5 
REMARK    2  A    between atoms: C2_5  and  C3_6 
REMARK    3  A    between atoms: N2_10  and  C7_11 
REMARK    4  A    between atoms: C7_11  and  C8_12 
REMARK    5  A    between atoms: C8_12  and  N3_13 
ROOT
HETATM    1  C3  UNL     1     -20.796   0.529 -15.446  1.00  0.00     0.039 C 
HETATM    2  C4  UNL     1     -22.207   0.661 -15.911  1.00  0.00     0.010 C 
HETATM    3  C5  UNL     1     -22.254   1.881 -16.838  1.00  0.00     0.031 C 
HETATM    4  C6  UNL     1     -20.919   2.144 -17.479  1.00  0.00     0.272 C 
HETATM    5  N2  UNL     1     -19.888   2.525 -16.504  1.00  0.00     0.090 N 
HETATM    6  C13 UNL     1     -20.252   1.946 -15.266  1.00  0.00     0.278 C 
ENDROOT
BRANCH   5   7
HETATM    7  C7  UNL     1     -18.585   2.166 -17.018  1.00  0.00     0.302 C 
BRANCH   7   8
HETATM    8  C8  UNL     1     -18.610   2.019 -18.474  1.00  0.00     0.302 C 
BRANCH   8   9
HETATM    9  N3  UNL     1     -17.568   1.165 -19.037  1.00  0.00     0.091 N 
HETATM   10  C9  UNL     1     -17.900   1.165 -20.459  1.00  0.00     0.282 C 
HETATM   11  C10 UNL     1     -16.754   0.650 -21.299  1.00  0.00     0.104 C 
HETATM   12  S1  UNL     1     -16.580  -1.098 -20.820  1.00  0.00    -0.166 SA
HETATM   13  C11 UNL     1     -16.771  -1.161 -19.043  1.00  0.00     0.104 C 
HETATM   14  C12 UNL     1     -17.704  -0.159 -18.475  1.00  0.00     0.282 C 
ENDBRANCH   8   9
ENDBRANCH   7   8
ENDBRANCH   5   7
BRANCH   1  15
HETATM   15  C2  UNL     1     -20.642  -0.211 -14.144  1.00  0.00     0.238 C 
BRANCH  15  16
HETATM   16  N1  UNL     1     -19.432  -0.958 -14.051  1.00  0.00    -0.079 N 
HETATM   17  C1  UNL     1     -19.061  -0.991 -12.626  1.00  0.00     0.267 C 
ATOM     18  H12 UNL     1     -18.689  -0.599 -14.652  1.00  0.00     0.276 HD
ATOM     19  H11 UNL     1     -19.498  -1.886 -14.471  1.00  0.00     0.276 HD
ENDBRANCH  15  16
ENDBRANCH   1  15
TORSDOF 5
ENDMDL
MODEL 2
REMARK VINA RESULT: -5.559330393      1.087      1.221
REMARK  5 active torsions:
REMARK  status: ('A' for Active; 'I' for Inactive)
REMARK    1  A    between atoms: N1_2  and  C2_5 
REMARK    2  A    between atoms: C2_5  and  C3_6 
REMARK    3  A    between atoms: N2_10  and  C7_11 
REMARK    4  A    between atoms: C7_11  and  C8_12 
REMARK    5  A    between atoms: C8_12  and  N3_13 
ROOT
HETATM    1  C3  UNL     1     -21.084   0.599 -15.579  1.00  0.00     0.039 C 
HETATM    2  C4  UNL     1     -22.387   0.957 -16.213  1.00  0.00     0.010 C 
HETATM    3  C5  UNL     1     -22.102   2.103 -17.189  1.00  0.00     0.031 C 
HETATM    4  C6  UNL     1     -20.680   2.078 -17.678  1.00  0.00     0.272 C 
HETATM    5  N2  UNL     1     -19.708   2.326 -16.605  1.00  0.00     0.090 N 
HETATM    6  C13 UNL     1     -20.307   1.902 -15.395  1.00  0.00     0.278 C 
ENDROOT
BRANCH   5   7
HETATM    7  C7  UNL     1     -18.448   1.704 -16.945  1.00  0.00     0.302 C 
BRANCH   7   8
HETATM    8  C8  UNL     1     -18.022   2.071 -18.296  1.00  0.00     0.302 C 
BRANCH   8   9
HETATM    9  N3  UNL     1     -17.218   1.071 -18.995  1.00  0.00     0.091 N 
HETATM   10  C9  UNL     1     -17.649   1.240 -20.381  1.00  0.00     0.282 C 
HETATM   11  C10 UNL     1     -16.696   0.571 -21.345  1.00  0.00     0.104 C 
HETATM   12  S1  UNL     1     -16.844  -1.207 -20.982  1.00  0.00    -0.166 SA
HETATM   13  C11 UNL     1     -16.912  -1.360 -19.201  1.00  0.00     0.104 C 
HETATM   14  C12 UNL     1     -17.577  -0.237 -18.499  1.00  0.00     0.282 C 
ENDBRANCH   8   9
ENDBRANCH   7   8
ENDBRANCH   5   7
BRANCH   1  15
HETATM   15  C2  UNL     1     -21.215  -0.072 -14.238  1.00  0.00     0.238 C 
BRANCH  15  16
HETATM   16  N1  UNL     1     -22.539  -0.510 -13.945  1.00  0.00    -0.079 N 
HETATM   17  C1  UNL     1     -22.678  -0.489 -12.478  1.00  0.00     0.267 C 
ATOM     18  H12 UNL     1     -22.765  -1.415 -14.358  1.00  0.00     0.276 HD
ATOM     19  H11 UNL     1     -23.258   0.032 -14.425  1.00  0.00     0.276 HD
ENDBRANCH  15  16
ENDBRANCH   1  15
TORSDOF 5
ENDMDL
MODEL 3
REMARK VINA RESULT: -5.544653986      1.022      1.052
REMARK  5 active torsions:
REMARK  status: ('A' for Active; 'I' for Inactive)
REMARK    1  A    between atoms: N1_2  and  C2_5 
REMARK    2  A    between atoms: C2_5  and  C3_6 
REMARK    3  A    between atoms: N2_10  and  C7_11 
REMARK    4  A    between atoms: C7_11  and  C8_12 
REMARK    5  A    between atoms: C8_12  and  N3_13 
ROOT
HETATM    1  C3  UNL     1     -20.213   0.477 -15.826  1.00  0.00     0.039 C 
HETATM    2  C4  UNL     1     -21.613   0.600 -15.322  1.00  0.00     0.010 C 
HETATM    3  C5  UNL     1     -22.253   1.770 -16.077  1.00  0.00     0.031 C 
HETATM    4  C6  UNL     1     -21.608   1.987 -17.418  1.00  0.00     0.272 C 
HETATM    5  N2  UNL     1     -20.204   2.408 -17.310  1.00  0.00     0.090 N 
HETATM    6  C13 UNL     1     -19.709   1.896 -16.087  1.00  0.00     0.278 C 
ENDROOT
BRANCH   5   7
HETATM    7  C7  UNL     1     -19.490   2.009 -18.503  1.00  0.00     0.302 C 
BRANCH   7   8
HETATM    8  C8  UNL     1     -18.043   2.117 -18.318  1.00  0.00     0.302 C 
BRANCH   8   9
HETATM    9  N3  UNL     1     -17.245   1.100 -18.998  1.00  0.00     0.091 N 
HETATM   10  C9  UNL     1     -17.644   1.274 -20.393  1.00  0.00     0.282 C 
HETATM   11  C10 UNL     1     -16.684   0.584 -21.336  1.00  0.00     0.104 C 
HETATM   12  S1  UNL     1     -16.874  -1.190 -20.972  1.00  0.00    -0.166 SA
HETATM   13  C11 UNL     1     -16.982  -1.337 -19.193  1.00  0.00     0.104 C 
HETATM   14  C12 UNL     1     -17.640  -0.200 -18.507  1.00  0.00     0.282 C 
ENDBRANCH   8   9
ENDBRANCH   7   8
ENDBRANCH   5   7
BRANCH   1  15
HETATM   15  C2  UNL     1     -19.269  -0.196 -14.866  1.00  0.00     0.238 C 
BRANCH  15  16
HETATM   16  N1  UNL     1     -18.064   0.534 -14.644  1.00  0.00    -0.079 N 
HETATM   17  C1  UNL     1     -17.810   0.501 -13.193  1.00  0.00     0.267 C 
ATOM     18  H12 UNL     1     -18.090   1.479 -15.027  1.00  0.00     0.276 HD
ATOM     19  H11 UNL     1     -17.279   0.192 -15.198  1.00  0.00     0.276 HD
ENDBRANCH  15  16
ENDBRANCH   1  15
TORSDOF 5
ENDMDL
MODEL 4
REMARK VINA RESULT: -5.531316845      0.383      1.333
REMARK  5 active torsions:
REMARK  status: ('A' for Active; 'I' for Inactive)
REMARK    1  A    between atoms: N1_2  and  C2_5 
REMARK    2  A    between atoms: C2_5  and  C3_6 
REMARK    3  A    between atoms: N2_10  and  C7_11 
REMARK    4  A    between atoms: C7_11  and  C8_12 
REMARK    5  A    between atoms: C8_12  and  N3_13 
ROOT
HETATM    1  C3  UNL     1     -20.871   0.491 -15.520  1.00  0.00     0.039 C 
HETATM    2  C4  UNL     1     -22.307   0.706 -15.861  1.00  0.00     0.010 C 
HETATM    3  C5  UNL     1     -22.364   1.927 -16.786  1.00  0.00     0.031 C 
HETATM    4  C6  UNL     1     -21.077   2.113 -17.542  1.00  0.00     0.272 C 
HETATM    5  N2  UNL     1     -19.944   2.432 -16.662  1.00  0.00     0.090 N 
HETATM    6  C13 UNL     1     -20.231   1.874 -15.394  1.00  0.00     0.278 C 
ENDROOT
BRANCH   5   7
HETATM    7  C7  UNL     1     -18.714   1.998 -17.286  1.00  0.00     0.302 C 
BRANCH   7   8
HETATM    8  C8  UNL     1     -18.764   2.173 -18.738  1.00  0.00     0.302 C 
BRANCH   8   9
HETATM    9  N3  UNL     1     -18.329   1.022 -19.525  1.00  0.00     0.091 N 
HETATM   10  C9  UNL     1     -17.611   0.222 -18.537  1.00  0.00     0.282 C 
HETATM   11  C10 UNL     1     -17.383  -1.191 -19.023  1.00  0.00     0.104 C 
HETATM   12  S1  UNL     1     -16.259  -1.014 -20.445  1.00  0.00    -0.166 SA
HETATM   13  C11 UNL     1     -16.832   0.402 -21.375  1.00  0.00     0.104 C 
HETATM   14  C12 UNL     1     -17.437   1.485 -20.563  1.00  0.00     0.282 C 
ENDBRANCH   8   9
ENDBRANCH   7   8
ENDBRANCH   5   7
BRANCH   1  15
HETATM   15  C2  UNL     1     -20.647  -0.257 -14.233  1.00  0.00     0.238 C 
BRANCH  15  16
HETATM   16  N1  UNL     1     -19.448  -1.028 -14.222  1.00  0.00    -0.079 N 
HETATM   17  C1  UNL     1     -18.995  -1.086 -12.821  1.00  0.00     0.267 C 
ATOM     18  H12 UNL     1     -18.736  -0.674 -14.861  1.00  0.00     0.276 HD
ATOM     19  H11 UNL     1     -19.556  -1.948 -14.648  1.00  0.00     0.276 HD
ENDBRANCH  15  16
ENDBRANCH   1  15
TORSDOF 5
ENDMDL
MODEL 5
REMARK VINA RESULT: -5.394321571      1.721      2.449
REMARK  5 active torsions:
REMARK  status: ('A' for Active; 'I' for Inactive)
REMARK    1  A    between atoms: N1_2  and  C2_5 
REMARK    2  A    between atoms: C2_5  and  C3_6 
REMARK    3  A    between atoms: N2_10  and  C7_11 
REMARK    4  A    between atoms: C7_11  and  C8_12 
REMARK    5  A    between atoms: C8_12  and  N3_13 
ROOT
HETATM    1  C3  UNL     1     -22.065   0.556 -15.684  1.00  0.00     0.039 C 
HETATM    2  C4  UNL     1     -22.506   1.973 -15.845  1.00  0.00     0.010 C 
HETATM    3  C5  UNL     1     -21.237   2.815 -16.005  1.00  0.00     0.031 C 
HETATM    4  C6  UNL     1     -20.101   2.009 -16.573  1.00  0.00     0.272 C 
HETATM    5  N2  UNL     1     -19.660   0.937 -15.671  1.00  0.00     0.090 N 
HETATM    6  C13 UNL     1     -20.772   0.583 -14.870  1.00  0.00     0.278 C 
ENDROOT
BRANCH   5   7
HETATM    7  C7  UNL     1     -19.067  -0.129 -16.446  1.00  0.00     0.302 C 
BRANCH   7   8
HETATM    8  C8  UNL     1     -17.858   0.323 -17.135  1.00  0.00     0.302 C 
BRANCH   8   9
HETATM    9  N3  UNL     1     -17.871   0.177 -18.588  1.00  0.00     0.091 N 
HETATM   10  C9  UNL     1     -16.689  -0.648 -18.829  1.00  0.00     0.282 C 
HETATM   11  C10 UNL     1     -16.697  -1.238 -20.220  1.00  0.00     0.104 C 
HETATM   12  S1  UNL     1     -16.547   0.196 -21.332  1.00  0.00    -0.166 SA
HETATM   13  C11 UNL     1     -17.605   1.473 -20.661  1.00  0.00     0.104 C 
HETATM   14  C12 UNL     1     -17.717   1.485 -19.183  1.00  0.00     0.282 C 
ENDBRANCH   8   9
ENDBRANCH   7   8
ENDBRANCH   5   7
BRANCH   1  15
HETATM   15  C2  UNL     1     -23.058  -0.323 -14.972  1.00  0.00     0.238 C 
BRANCH  15  16
HETATM   16  N1  UNL     1     -22.976  -0.244 -13.551  1.00  0.00    -0.079 N 
HETATM   17  C1  UNL     1     -24.309   0.159 -13.070  1.00  0.00     0.267 C 
ATOM     18  H12 UNL     1     -22.228   0.369 -13.225  1.00  0.00     0.276 HD
ATOM     19  H11 UNL     1     -22.634  -1.103 -13.119  1.00  0.00     0.276 HD
ENDBRANCH  15  16
ENDBRANCH   1  15
TORSDOF 5
ENDMDL
