MODEL 1
REMARK VINA RESULT: -6.163151107      0.000      0.000
REMARK  4 active torsions:
REMARK  status: ('A' for Active; 'I' for Inactive)
REMARK    1  A    between atoms: C2_2  and  C3_3 
REMARK    2  A    between atoms: C2_2  and  C5_6 
REMARK    3  A    between atoms: C3_3  and  C4_4 
REMARK    4  A    between atoms: C5_6  and  C6_7 
ROOT
HETATM    1  C6  UNL     1      50.615  23.810  41.246  1.00  0.00     0.164 C 
HETATM    2  C7  UNL     1      51.743  22.973  40.742  1.00  0.00     0.037 C 
HETATM    3  C8  UNL     1      52.539  22.299  41.825  1.00  0.00     0.032 C 
HETATM    4  C9  UNL     1      51.708  21.902  43.016  1.00  0.00     0.210 C 
HETATM    5  O2  UNL     1      50.393  22.255  42.814  1.00  0.00    -0.241 OA
HETATM    6  O3  UNL     1      50.364  23.553  42.579  1.00  0.00    -0.235 OA
ENDROOT
BRANCH   1   7
HETATM    7  C5  UNL     1      49.329  23.557  40.467  1.00  0.00     0.068 C 
BRANCH   7   8
HETATM    8  C2  UNL     1      48.788  24.814  39.894  1.00  0.00    -0.080 C 
HETATM    9  C1  UNL     1      49.550  25.509  39.055  1.00  0.00     0.015 C 
BRANCH   8  10
HETATM   10  C3  UNL     1      47.438  25.312  40.231  1.00  0.00     0.102 C 
BRANCH  10  11
HETATM   11  C4  UNL     1      47.259  25.639  41.655  1.00  0.00     0.235 C 
HETATM   12  O1  UNL     1      48.125  26.163  42.324  1.00  0.00    -0.307 OA
ENDBRANCH  10  11
ENDBRANCH   8  10
ENDBRANCH   7   8
ENDBRANCH   1   7
TORSDOF 4
ENDMDL
MODEL 2
REMARK VINA RESULT: -6.147412898      2.318      4.818
REMARK  4 active torsions:
REMARK  status: ('A' for Active; 'I' for Inactive)
REMARK    1  A    between atoms: C2_2  and  C3_3 
REMARK    2  A    between atoms: C2_2  and  C5_6 
REMARK    3  A    between atoms: C3_3  and  C4_4 
REMARK    4  A    between atoms: C5_6  and  C6_7 
ROOT
HETATM    1  C6  UNL     1      49.824  24.162  40.238  1.00  0.00     0.164 C 
HETATM    2  C7  UNL     1      49.012  25.087  39.394  1.00  0.00     0.037 C 
HETATM    3  C8  UNL     1      47.625  25.337  39.915  1.00  0.00     0.032 C 
HETATM    4  C9  UNL     1      47.544  25.335  41.418  1.00  0.00     0.210 C 
HETATM    5  O2  UNL     1      48.788  25.107  41.959  1.00  0.00    -0.241 OA
HETATM    6  O3  UNL     1      49.229  23.965  41.469  1.00  0.00    -0.235 OA
ENDROOT
BRANCH   1   7
HETATM    7  C5  UNL     1      51.231  24.697  40.475  1.00  0.00     0.068 C 
BRANCH   7   8
HETATM    8  C2  UNL     1      52.247  23.625  40.339  1.00  0.00    -0.080 C 
HETATM    9  C1  UNL     1      52.319  22.695  41.285  1.00  0.00     0.015 C 
BRANCH   8  10
HETATM   10  C3  UNL     1      53.177  23.567  39.192  1.00  0.00     0.102 C 
BRANCH  10  11
HETATM   11  C4  UNL     1      52.702  24.285  37.998  1.00  0.00     0.235 C 
HETATM   12  O1  UNL     1      53.197  24.138  36.900  1.00  0.00    -0.307 OA
ENDBRANCH  10  11
ENDBRANCH   8  10
ENDBRANCH   7   8
ENDBRANCH   1   7
TORSDOF 4
ENDMDL
MODEL 3
REMARK VINA RESULT: -6.044177651      1.063      4.346
REMARK  4 active torsions:
REMARK  status: ('A' for Active; 'I' for Inactive)
REMARK    1  A    between atoms: C2_2  and  C3_3 
REMARK    2  A    between atoms: C2_2  and  C5_6 
REMARK    3  A    between atoms: C3_3  and  C4_4 
REMARK    4  A    between atoms: C5_6  and  C6_7 
ROOT
HETATM    1  C6  UNL     1      49.782  24.166  40.198  1.00  0.00     0.164 C 
HETATM    2  C7  UNL     1      49.177  25.302  39.443  1.00  0.00     0.037 C 
HETATM    3  C8  UNL     1      47.754  25.602  39.822  1.00  0.00     0.032 C 
HETATM    4  C9  UNL     1      47.458  25.351  41.277  1.00  0.00     0.210 C 
HETATM    5  O2  UNL     1      48.591  24.905  41.919  1.00  0.00    -0.241 OA
HETATM    6  O3  UNL     1      49.004  23.823  41.286  1.00  0.00    -0.235 OA
ENDROOT
BRANCH   1   7
HETATM    7  C5  UNL     1      51.180  24.502  40.705  1.00  0.00     0.068 C 
BRANCH   7   8
HETATM    8  C2  UNL     1      52.139  23.409  40.414  1.00  0.00    -0.080 C 
HETATM    9  C1  UNL     1      52.783  23.423  39.252  1.00  0.00     0.015 C 
BRANCH   8  10
HETATM   10  C3  UNL     1      52.391  22.311  41.370  1.00  0.00     0.102 C 
BRANCH  10  11
HETATM   11  C4  UNL     1      51.922  22.589  42.738  1.00  0.00     0.235 C 
HETATM   12  O1  UNL     1      50.954  22.044  43.226  1.00  0.00    -0.307 OA
ENDBRANCH  10  11
ENDBRANCH   8  10
ENDBRANCH   7   8
ENDBRANCH   1   7
TORSDOF 4
ENDMDL
MODEL 4
REMARK VINA RESULT: -6.017761176      1.473      1.944
REMARK  4 active torsions:
REMARK  status: ('A' for Active; 'I' for Inactive)
REMARK    1  A    between atoms: C2_2  and  C3_3 
REMARK    2  A    between atoms: C2_2  and  C5_6 
REMARK    3  A    between atoms: C3_3  and  C4_4 
REMARK    4  A    between atoms: C5_6  and  C6_7 
ROOT
HETATM    1  C6  UNL     1      50.821  23.773  41.128  1.00  0.00     0.164 C 
HETATM    2  C7  UNL     1      52.135  23.070  41.047  1.00  0.00     0.037 C 
HETATM    3  C8  UNL     1      52.573  22.435  42.337  1.00  0.00     0.032 C 
HETATM    4  C9  UNL     1      51.428  21.913  43.164  1.00  0.00     0.210 C 
HETATM    5  O2  UNL     1      50.235  22.144  42.518  1.00  0.00    -0.241 OA
HETATM    6  O3  UNL     1      50.153  23.441  42.290  1.00  0.00    -0.235 OA
ENDROOT
BRANCH   1   7
HETATM    7  C5  UNL     1      49.918  23.426  39.950  1.00  0.00     0.068 C 
BRANCH   7   8
HETATM    8  C2  UNL     1      48.650  24.193  39.996  1.00  0.00    -0.080 C 
HETATM    9  C1  UNL     1      48.702  25.515  39.864  1.00  0.00     0.015 C 
BRANCH   8  10
HETATM   10  C3  UNL     1      47.341  23.534  40.188  1.00  0.00     0.102 C 
BRANCH  10  11
HETATM   11  C4  UNL     1      47.423  22.071  40.332  1.00  0.00     0.235 C 
HETATM   12  O1  UNL     1      46.990  21.479  41.298  1.00  0.00    -0.307 OA
ENDBRANCH  10  11
ENDBRANCH   8  10
ENDBRANCH   7   8
ENDBRANCH   1   7
TORSDOF 4
ENDMDL
MODEL 5
REMARK VINA RESULT: -5.987339438      1.466      2.217
REMARK  4 active torsions:
REMARK  status: ('A' for Active; 'I' for Inactive)
REMARK    1  A    between atoms: C2_2  and  C3_3 
REMARK    2  A    between atoms: C2_2  and  C5_6 
REMARK    3  A    between atoms: C3_3  and  C4_4 
REMARK    4  A    between atoms: C5_6  and  C6_7 
ROOT
HETATM    1  C6  UNL     1      50.593  23.688  41.363  1.00  0.00     0.164 C 
HETATM    2  C7  UNL     1      51.772  22.885  40.924  1.00  0.00     0.037 C 
HETATM    3  C8  UNL     1      52.603  22.345  42.054  1.00  0.00     0.032 C 
HETATM    4  C9  UNL     1      51.794  21.990  43.273  1.00  0.00     0.210 C 
HETATM    5  O2  UNL     1      50.461  22.246  43.046  1.00  0.00    -0.241 OA
HETATM    6  O3  UNL     1      50.354  23.518  42.713  1.00  0.00    -0.235 OA
ENDROOT
BRANCH   1   7
HETATM    7  C5  UNL     1      49.328  23.299  40.608  1.00  0.00     0.068 C 
BRANCH   7   8
HETATM    8  C2  UNL     1      48.746  24.461  39.892  1.00  0.00    -0.080 C 
HETATM    9  C1  UNL     1      47.480  24.392  39.493  1.00  0.00     0.015 C 
BRANCH   8  10
HETATM   10  C3  UNL     1      49.531  25.681  39.610  1.00  0.00     0.102 C 
BRANCH  10  11
HETATM   11  C4  UNL     1      50.338  25.603  38.382  1.00  0.00     0.235 C 
HETATM   12  O1  UNL     1      51.540  25.441  38.393  1.00  0.00    -0.307 OA
ENDBRANCH  10  11
ENDBRANCH   8  10
ENDBRANCH   7   8
ENDBRANCH   1   7
TORSDOF 4
ENDMDL
