MODEL 1
REMARK VINA RESULT: -9.883371437      0.000      0.000
REMARK  5 active torsions:
REMARK  status: ('A' for Active; 'I' for Inactive)
REMARK    1  A    between atoms: O1_1  and  C1_3 
REMARK    2  A    between atoms: C3_5  and  C4_6 
REMARK    3  A    between atoms: C4_6  and  C5_7 
REMARK    4  A    between atoms: C5_7  and  C6_8 
REMARK    5  A    between atoms: C12_17  and  C13_18 
ROOT
HETATM    1  C1  UNL     1      49.955  12.536 -24.501  1.00  0.00     0.123 C 
HETATM    2  C2  UNL     1      48.918  11.954 -25.427  1.00  0.00     0.063 C 
HETATM    3  C3  UNL     1      47.606  12.665 -25.105  1.00  0.00     0.125 C 
HETATM    4  O2  UNL     1      47.773  13.987 -25.479  1.00  0.00    -0.373 OA
HETATM    5  C12 UNL     1      48.562  14.627 -24.559  1.00  0.00     0.193 C 
HETATM    6  C19 UNL     1      49.494  13.765 -23.797  1.00  0.00     0.071 C 
ENDROOT
BRANCH   5   7
HETATM    7  C13 UNL     1      49.299  15.782 -25.178  1.00  0.00     0.129 A 
HETATM    8  N1  UNL     1      50.618  15.889 -25.408  1.00  0.00    -0.285 N 
HETATM    9  N2  UNL     1      50.881  17.072 -25.974  1.00  0.00    -0.287 N 
ATOM     10  H1  UNL     1      51.313  15.177 -25.185  1.00  0.00     0.188 HD
HETATM   11  C14 UNL     1      49.723  17.744 -26.116  1.00  0.00     0.099 A 
ATOM     12  H2  UNL     1      51.804  17.408 -26.251  1.00  0.00     0.188 HD
HETATM   13  N3  UNL     1      48.766  16.935 -25.621  1.00  0.00    -0.322 N 
HETATM   14  C18 UNL     1      49.309  19.059 -26.648  1.00  0.00     0.078 C 
HETATM   15  C15 UNL     1      47.406  17.434 -25.657  1.00  0.00     0.132 C 
HETATM   16  C16 UNL     1      47.363  18.833 -25.081  1.00  0.00     0.021 C 
HETATM   17  C17 UNL     1      48.353  19.750 -25.718  1.00  0.00     0.009 C 
ENDBRANCH   5   7
BRANCH   3  18
HETATM   18  C4  UNL     1      46.506  11.984 -25.883  1.00  0.00     0.036 C 
BRANCH  18  19
HETATM   19  C5  UNL     1      46.026  12.819 -27.037  1.00  0.00     0.041 C 
BRANCH  19  20
HETATM   20  C6  UNL     1      46.225  12.192 -28.346  1.00  0.00    -0.053 A 
HETATM   21  C7  UNL     1      46.734  10.903 -28.398  1.00  0.00     0.049 A 
HETATM   22  C8  UNL     1      46.949  10.245 -29.589  1.00  0.00     0.118 A 
HETATM   23  F1  UNL     1      47.445   8.987 -29.670  1.00  0.00    -0.206 F 
HETATM   24  C9  UNL     1      46.646  10.891 -30.769  1.00  0.00     0.066 A 
HETATM   25  C10 UNL     1      46.136  12.179 -30.775  1.00  0.00     0.037 A 
HETATM   26 CL1  UNL     1      45.756  12.988 -32.294  1.00  0.00    -0.084 Cl
HETATM   27  C11 UNL     1      45.942  12.786 -29.556  1.00  0.00     0.031 A 
ENDBRANCH  19  20
ENDBRANCH  18  19
ENDBRANCH   3  18
BRANCH   1  28
HETATM   28  O1  UNL     1      51.170  12.696 -25.159  1.00  0.00    -0.395 OA
ATOM     29  H1  UNL     1      51.090  13.330 -25.863  1.00  0.00     0.210 HD
ENDBRANCH   1  28
TORSDOF 5
ENDMDL
MODEL 2
REMARK VINA RESULT: -9.673589012      1.407      1.686
REMARK  5 active torsions:
REMARK  status: ('A' for Active; 'I' for Inactive)
REMARK    1  A    between atoms: O1_1  and  C1_3 
REMARK    2  A    between atoms: C3_5  and  C4_6 
REMARK    3  A    between atoms: C4_6  and  C5_7 
REMARK    4  A    between atoms: C5_7  and  C6_8 
REMARK    5  A    between atoms: C12_17  and  C13_18 
ROOT
HETATM    1  C1  UNL     1      49.990  12.552 -24.528  1.00  0.00     0.123 C 
HETATM    2  C2  UNL     1      48.920  11.979 -25.421  1.00  0.00     0.063 C 
HETATM    3  C3  UNL     1      47.623  12.698 -25.055  1.00  0.00     0.125 C 
HETATM    4  O2  UNL     1      47.786  14.020 -25.432  1.00  0.00    -0.373 OA
HETATM    5  C12 UNL     1      48.610  14.653 -24.537  1.00  0.00     0.193 C 
HETATM    6  C19 UNL     1      49.561  13.783 -23.808  1.00  0.00     0.071 C 
ENDROOT
BRANCH   5   7
HETATM    7  C13 UNL     1      49.333  15.804 -25.179  1.00  0.00     0.129 A 
HETATM    8  N1  UNL     1      50.647  15.909 -25.440  1.00  0.00    -0.285 N 
HETATM    9  N2  UNL     1      50.898  17.089 -26.017  1.00  0.00    -0.287 N 
ATOM     10  H1  UNL     1      51.346  15.196 -25.230  1.00  0.00     0.188 HD
HETATM   11  C14 UNL     1      49.737  17.761 -26.135  1.00  0.00     0.099 A 
ATOM     12  H2  UNL     1      51.814  17.422 -26.317  1.00  0.00     0.188 HD
HETATM   13  N3  UNL     1      48.791  16.956 -25.614  1.00  0.00    -0.322 N 
HETATM   14  C18 UNL     1      49.313  19.074 -26.663  1.00  0.00     0.078 C 
HETATM   15  C15 UNL     1      47.432  17.456 -25.620  1.00  0.00     0.132 C 
HETATM   16  C16 UNL     1      47.403  18.857 -25.050  1.00  0.00     0.021 C 
HETATM   17  C17 UNL     1      48.379  19.771 -25.713  1.00  0.00     0.009 C 
ENDBRANCH   5   7
BRANCH   3  18
HETATM   18  C4  UNL     1      46.493  12.026 -25.797  1.00  0.00     0.036 C 
BRANCH  18  19
HETATM   19  C5  UNL     1      46.016  12.842 -26.964  1.00  0.00     0.041 C 
BRANCH  19  20
HETATM   20  C6  UNL     1      46.231  12.202 -28.264  1.00  0.00    -0.053 A 
HETATM   21  C7  UNL     1      45.815  12.865 -29.410  1.00  0.00     0.049 A 
HETATM   22  C8  UNL     1      45.981  12.331 -30.669  1.00  0.00     0.118 A 
HETATM   23  F1  UNL     1      45.585  12.955 -31.805  1.00  0.00    -0.206 F 
HETATM   24  C9  UNL     1      46.580  11.096 -30.793  1.00  0.00     0.066 A 
HETATM   25  C10 UNL     1      47.013  10.390 -29.682  1.00  0.00     0.037 A 
HETATM   26 CL1  UNL     1      47.776   8.812 -29.863  1.00  0.00    -0.084 Cl
HETATM   27  C11 UNL     1      46.821  10.973 -28.451  1.00  0.00     0.031 A 
ENDBRANCH  19  20
ENDBRANCH  18  19
ENDBRANCH   3  18
BRANCH   1  28
HETATM   28  O1  UNL     1      51.184  12.707 -25.227  1.00  0.00    -0.395 OA
ATOM     29  H1  UNL     1      51.018  12.975 -26.122  1.00  0.00     0.210 HD
ENDBRANCH   1  28
TORSDOF 5
ENDMDL
MODEL 3
REMARK VINA RESULT: -9.307468665      1.633      4.127
REMARK  5 active torsions:
REMARK  status: ('A' for Active; 'I' for Inactive)
REMARK    1  A    between atoms: O1_1  and  C1_3 
REMARK    2  A    between atoms: C3_5  and  C4_6 
REMARK    3  A    between atoms: C4_6  and  C5_7 
REMARK    4  A    between atoms: C5_7  and  C6_8 
REMARK    5  A    between atoms: C12_17  and  C13_18 
ROOT
HETATM    1  C1  UNL     1      47.891  17.452 -25.888  1.00  0.00     0.123 C 
HETATM    2  C2  UNL     1      46.679  16.593 -26.143  1.00  0.00     0.063 C 
HETATM    3  C3  UNL     1      47.138  15.460 -27.058  1.00  0.00     0.125 C 
HETATM    4  O2  UNL     1      48.020  14.691 -26.319  1.00  0.00    -0.373 OA
HETATM    5  C12 UNL     1      49.221  15.344 -26.214  1.00  0.00     0.193 C 
HETATM    6  C19 UNL     1      49.165  16.820 -26.329  1.00  0.00     0.071 C 
ENDROOT
BRANCH   5   7
HETATM    7  C13 UNL     1      49.957  14.940 -24.967  1.00  0.00     0.129 A 
HETATM    8  N1  UNL     1      50.249  15.701 -23.900  1.00  0.00    -0.285 N 
HETATM    9  N2  UNL     1      50.915  14.973 -22.997  1.00  0.00    -0.287 N 
ATOM     10  H1  UNL     1      50.000  16.685 -23.794  1.00  0.00     0.188 HD
HETATM   11  C14 UNL     1      51.060  13.724 -23.479  1.00  0.00     0.099 A 
ATOM     12  H2  UNL     1      51.257  15.308 -22.096  1.00  0.00     0.188 HD
HETATM   13  N3  UNL     1      50.465  13.726 -24.688  1.00  0.00    -0.322 N 
HETATM   14  C18 UNL     1      51.674  12.464 -23.013  1.00  0.00     0.078 C 
HETATM   15  C15 UNL     1      50.484  12.480 -25.427  1.00  0.00     0.132 C 
HETATM   16  C16 UNL     1      51.892  11.926 -25.454  1.00  0.00     0.021 C 
HETATM   17  C17 UNL     1      52.499  11.823 -24.094  1.00  0.00     0.009 C 
ENDBRANCH   5   7
BRANCH   3  18
HETATM   18  C4  UNL     1      45.916  14.682 -27.483  1.00  0.00     0.036 C 
BRANCH  18  19
HETATM   19  C5  UNL     1      46.033  13.220 -27.157  1.00  0.00     0.041 C 
BRANCH  19  20
HETATM   20  C6  UNL     1      46.243  12.365 -28.328  1.00  0.00    -0.053 A 
HETATM   21  C7  UNL     1      46.670  11.059 -28.131  1.00  0.00     0.049 A 
HETATM   22  C8  UNL     1      46.890  10.192 -29.179  1.00  0.00     0.118 A 
HETATM   23  F1  UNL     1      47.307   8.914 -29.017  1.00  0.00    -0.206 F 
HETATM   24  C9  UNL     1      46.677  10.638 -30.466  1.00  0.00     0.066 A 
HETATM   25  C10 UNL     1      46.250  11.932 -30.719  1.00  0.00     0.037 A 
HETATM   26 CL1  UNL     1      45.985  12.483 -32.372  1.00  0.00    -0.084 Cl
HETATM   27  C11 UNL     1      46.048  12.753 -29.634  1.00  0.00     0.031 A 
ENDBRANCH  19  20
ENDBRANCH  18  19
ENDBRANCH   3  18
BRANCH   1  28
HETATM   28  O1  UNL     1      47.917  17.890 -24.567  1.00  0.00    -0.395 OA
ATOM     29  H1  UNL     1      47.563  17.227 -23.986  1.00  0.00     0.210 HD
ENDBRANCH   1  28
TORSDOF 5
ENDMDL
MODEL 4
REMARK VINA RESULT: -9.250827163      5.967      8.431
REMARK  5 active torsions:
REMARK  status: ('A' for Active; 'I' for Inactive)
REMARK    1  A    between atoms: O1_1  and  C1_3 
REMARK    2  A    between atoms: C3_5  and  C4_6 
REMARK    3  A    between atoms: C4_6  and  C5_7 
REMARK    4  A    between atoms: C5_7  and  C6_8 
REMARK    5  A    between atoms: C12_17  and  C13_18 
ROOT
HETATM    1  C1  UNL     1      50.221  12.318 -22.318  1.00  0.00     0.123 C 
HETATM    2  C2  UNL     1      50.017  13.792 -22.556  1.00  0.00     0.063 C 
HETATM    3  C3  UNL     1      48.876  14.223 -21.637  1.00  0.00     0.125 C 
HETATM    4  O2  UNL     1      49.344  14.093 -20.341  1.00  0.00    -0.373 OA
HETATM    5  C12 UNL     1      49.372  12.767 -19.995  1.00  0.00     0.193 C 
HETATM    6  C19 UNL     1      49.501  11.809 -21.118  1.00  0.00     0.071 C 
ENDROOT
BRANCH   5   7
HETATM    7  C13 UNL     1      50.416  12.495 -18.948  1.00  0.00     0.129 A 
HETATM    8  N1  UNL     1      51.713  12.201 -19.135  1.00  0.00    -0.285 N 
HETATM    9  N2  UNL     1      52.310  12.029 -17.951  1.00  0.00    -0.287 N 
ATOM     10  H1  UNL     1      52.173  12.122 -20.042  1.00  0.00     0.188 HD
HETATM   11  C14 UNL     1      51.395  12.212 -16.981  1.00  0.00     0.099 A 
ATOM     12  H2  UNL     1      53.293  11.797 -17.807  1.00  0.00     0.188 HD
HETATM   13  N3  UNL     1      50.240  12.497 -17.614  1.00  0.00    -0.322 N 
HETATM   14  C18 UNL     1      51.381  12.172 -15.504  1.00  0.00     0.078 C 
HETATM   15  C15 UNL     1      49.080  12.740 -16.781  1.00  0.00     0.132 C 
HETATM   16  C16 UNL     1      48.945  11.629 -15.762  1.00  0.00     0.021 C 
HETATM   17  C17 UNL     1      50.200  11.399 -14.987  1.00  0.00     0.009 C 
ENDBRANCH   5   7
BRANCH   3  18
HETATM   18  C4  UNL     1      48.519  15.650 -21.977  1.00  0.00     0.036 C 
BRANCH  18  19
HETATM   19  C5  UNL     1      47.913  15.773 -23.346  1.00  0.00     0.041 C 
BRANCH  19  20
HETATM   20  C6  UNL     1      48.528  16.809 -24.178  1.00  0.00    -0.053 A 
HETATM   21  C7  UNL     1      47.768  17.913 -24.537  1.00  0.00     0.049 A 
HETATM   22  C8  UNL     1      48.273  18.931 -25.317  1.00  0.00     0.118 A 
HETATM   23  F1  UNL     1      47.555  20.020 -25.684  1.00  0.00    -0.206 F 
HETATM   24  C9  UNL     1      49.578  18.848 -25.754  1.00  0.00     0.066 A 
HETATM   25  C10 UNL     1      50.381  17.767 -25.425  1.00  0.00     0.037 A 
HETATM   26 CL1  UNL     1      52.046  17.680 -25.995  1.00  0.00    -0.084 Cl
HETATM   27  C11 UNL     1      49.823  16.782 -24.644  1.00  0.00     0.031 A 
ENDBRANCH  19  20
ENDBRANCH  18  19
ENDBRANCH   3  18
BRANCH   1  28
HETATM   28  O1  UNL     1      51.575  11.999 -22.329  1.00  0.00    -0.395 OA
ATOM     29  H1  UNL     1      51.728  11.197 -22.814  1.00  0.00     0.210 HD
ENDBRANCH   1  28
TORSDOF 5
ENDMDL
MODEL 5
REMARK VINA RESULT: -9.221920482      5.827      7.034
REMARK  5 active torsions:
REMARK  status: ('A' for Active; 'I' for Inactive)
REMARK    1  A    between atoms: O1_1  and  C1_3 
REMARK    2  A    between atoms: C3_5  and  C4_6 
REMARK    3  A    between atoms: C4_6  and  C5_7 
REMARK    4  A    between atoms: C5_7  and  C6_8 
REMARK    5  A    between atoms: C12_17  and  C13_18 
ROOT
HETATM    1  C1  UNL     1      52.821  11.363 -25.629  1.00  0.00     0.123 C 
HETATM    2  C2  UNL     1      52.515  10.981 -27.055  1.00  0.00     0.063 C 
HETATM    3  C3  UNL     1      52.117   9.507 -27.031  1.00  0.00     0.125 C 
HETATM    4  O2  UNL     1      50.922   9.433 -26.336  1.00  0.00    -0.373 OA
HETATM    5  C12 UNL     1      51.162   9.584 -24.994  1.00  0.00     0.193 C 
HETATM    6  C19 UNL     1      52.385  10.340 -24.639  1.00  0.00     0.071 C 
ENDROOT
BRANCH   5   7
HETATM    7  C13 UNL     1      49.965  10.153 -24.284  1.00  0.00     0.129 A 
HETATM    8  N1  UNL     1      49.247  11.237 -24.620  1.00  0.00    -0.285 N 
HETATM    9  N2  UNL     1      48.260  11.413 -23.735  1.00  0.00    -0.287 N 
ATOM     10  H1  UNL     1      49.426  11.833 -25.428  1.00  0.00     0.188 HD
HETATM   11  C14 UNL     1      48.335  10.436 -22.812  1.00  0.00     0.099 A 
ATOM     12  H2  UNL     1      47.568  12.163 -23.756  1.00  0.00     0.188 HD
HETATM   13  N3  UNL     1      49.388   9.674 -23.168  1.00  0.00    -0.322 N 
HETATM   14  C18 UNL     1      47.581  10.051 -21.601  1.00  0.00     0.078 C 
HETATM   15  C15 UNL     1      49.686   8.537 -22.322  1.00  0.00     0.132 C 
HETATM   16  C16 UNL     1      49.729   8.977 -20.874  1.00  0.00     0.021 C 
HETATM   17  C17 UNL     1      48.504   9.724 -20.461  1.00  0.00     0.009 C 
ENDBRANCH   5   7
BRANCH   3  18
HETATM   18  C4  UNL     1      51.979   9.039 -28.459  1.00  0.00     0.036 C 
BRANCH  18  19
HETATM   19  C5  UNL     1      50.726   8.240 -28.676  1.00  0.00     0.041 C 
BRANCH  19  20
HETATM   20  C6  UNL     1      50.688   7.527 -29.955  1.00  0.00    -0.053 A 
HETATM   21  C7  UNL     1      51.886   7.245 -30.596  1.00  0.00     0.049 A 
HETATM   22  C8  UNL     1      51.935   6.579 -31.801  1.00  0.00     0.118 A 
HETATM   23  F1  UNL     1      53.089   6.290 -32.450  1.00  0.00    -0.206 F 
HETATM   24  C9  UNL     1      50.753   6.180 -32.388  1.00  0.00     0.066 A 
HETATM   25  C10 UNL     1      49.529   6.436 -31.792  1.00  0.00     0.037 A 
HETATM   26 CL1  UNL     1      48.030   5.918 -32.559  1.00  0.00    -0.084 Cl
HETATM   27  C11 UNL     1      49.542   7.104 -30.590  1.00  0.00     0.031 A 
ENDBRANCH  19  20
ENDBRANCH  18  19
ENDBRANCH   3  18
BRANCH   1  28
HETATM   28  O1  UNL     1      52.351  12.642 -25.349  1.00  0.00    -0.395 OA
ATOM     29  H1  UNL     1      52.197  12.747 -24.418  1.00  0.00     0.210 HD
ENDBRANCH   1  28
TORSDOF 5
ENDMDL
