MODEL 1
REMARK VINA RESULT: -9.406039444      0.000      0.000
REMARK  11 active torsions:
REMARK  status: ('A' for Active; 'I' for Inactive)
REMARK    1  A    between atoms: C2_2  and  O2_4 
REMARK    2  A    between atoms: O2_4  and  C3_5 
REMARK    3  A    between atoms: C3_5  and  C4_6 
REMARK    4  A    between atoms: C3_5  and  C15_18 
REMARK    5  A    between atoms: C4_6  and  C6_8 
REMARK    6  A    between atoms: C6_8  and  C7_9 
REMARK    7  A    between atoms: C7_9  and  C9_11 
REMARK    8  A    between atoms: C9_11  and  C10_12 
REMARK    9  A    between atoms: C11_13  and  C13_15 
REMARK   10  A    between atoms: C15_18  and  C17_20 
REMARK   11  A    between atoms: C26_29  and  O4_30 
ROOT
HETATM    1  C15 UNL     1       4.306   7.222  18.400  1.00  0.00     0.020 C 
HETATM    2  C16 UNL     1       5.239   6.371  17.546  1.00  0.00     0.013 C 
ENDROOT
BRANCH   1   3
HETATM    3  C3  UNL     1       3.594   6.347  19.408  1.00  0.00     0.164 C 
BRANCH   3   4
HETATM    4  O2  UNL     1       2.216   6.328  19.303  1.00  0.00    -0.311 OA
BRANCH   4   5
HETATM    5  C2  UNL     1       1.336   5.375  18.949  1.00  0.00     0.255 C 
HETATM    6  C1  UNL     1       1.665   3.943  19.223  1.00  0.00     0.126 C 
HETATM    7  O1  UNL     1       0.282   5.702  18.407  1.00  0.00    -0.266 OA
ENDBRANCH   4   5
ENDBRANCH   3   4
BRANCH   3   8
HETATM    8  C4  UNL     1       4.013   6.729  20.823  1.00  0.00    -0.054 C 
HETATM    9  C5  UNL     1       3.206   6.398  21.988  1.00  0.00     0.046 C 
BRANCH   8  10
HETATM   10  C6  UNL     1       5.138   7.376  20.993  1.00  0.00     0.007 C 
BRANCH  10  11
HETATM   11  C7  UNL     1       6.329   7.168  21.765  1.00  0.00    -0.080 C 
HETATM   12  C8  UNL     1       6.291   7.129  23.241  1.00  0.00     0.043 C 
BRANCH  11  13
HETATM   13  C9  UNL     1       7.552   7.980  21.309  1.00  0.00     0.061 C 
BRANCH  13  14
HETATM   14  C10 UNL     1       7.641   8.037  19.820  1.00  0.00    -0.012 C 
HETATM   15  C11 UNL     1       8.239   9.035  19.198  1.00  0.00    -0.020 C 
HETATM   16  C12 UNL     1       8.833  10.119  20.037  1.00  0.00     0.052 C 
BRANCH  15  17
HETATM   17  C13 UNL     1       8.354   9.144  17.762  1.00  0.00     0.151 C 
HETATM   18  C14 UNL     1       8.356   7.992  16.848  1.00  0.00     0.096 C 
HETATM   19  O3  UNL     1       8.458  10.283  17.244  1.00  0.00    -0.293 OA
ENDBRANCH  15  17
ENDBRANCH  13  14
ENDBRANCH  11  13
ENDBRANCH  10  11
ENDBRANCH   8  10
ENDBRANCH   3   8
ENDBRANCH   1   3
BRANCH   1  20
HETATM   20  C17 UNL     1       3.473   8.142  17.619  1.00  0.00     0.004 C 
HETATM   21  C18 UNL     1       2.808   7.795  16.386  1.00  0.00    -0.013 C 
HETATM   22  C19 UNL     1       2.487   6.455  15.921  1.00  0.00     0.010 C 
HETATM   23  C20 UNL     1       1.446   8.529  16.380  1.00  0.00     0.005 C 
HETATM   24  C21 UNL     1       1.828   9.983  16.253  1.00  0.00     0.006 C 
HETATM   25  C22 UNL     1       2.844  10.472  17.220  1.00  0.00     0.004 C 
HETATM   26  C23 UNL     1       3.182  11.887  16.841  1.00  0.00    -0.017 C 
HETATM   27  C29 UNL     1       4.024   9.577  17.470  1.00  0.00    -0.035 C 
HETATM   28  C24 UNL     1       3.167  12.840  18.046  1.00  0.00     0.018 C 
HETATM   29  C25 UNL     1       2.065  12.473  15.946  1.00  0.00     0.018 C 
HETATM   30  C26 UNL     1       4.437  12.056  16.057  1.00  0.00     0.126 C 
HETATM   31  C27 UNL     1       4.984  10.781  15.477  1.00  0.00     0.033 C 
HETATM   32  C28 UNL     1       5.126   9.679  16.486  1.00  0.00     0.012 C 
HETATM   33  C30 UNL     1       4.596   9.905  18.853  1.00  0.00     0.016 C 
BRANCH  30  34
HETATM   34  O4  UNL     1       5.487  12.656  16.794  1.00  0.00    -0.395 OA
ATOM     35  H4  UNL     1       6.038  13.228  16.272  1.00  0.00     0.210 HD
ENDBRANCH  30  34
ENDBRANCH   1  20
TORSDOF 11
ENDMDL
MODEL 2
REMARK VINA RESULT: -9.362890071      1.424      2.238
REMARK  11 active torsions:
REMARK  status: ('A' for Active; 'I' for Inactive)
REMARK    1  A    between atoms: C2_2  and  O2_4 
REMARK    2  A    between atoms: O2_4  and  C3_5 
REMARK    3  A    between atoms: C3_5  and  C4_6 
REMARK    4  A    between atoms: C3_5  and  C15_18 
REMARK    5  A    between atoms: C4_6  and  C6_8 
REMARK    6  A    between atoms: C6_8  and  C7_9 
REMARK    7  A    between atoms: C7_9  and  C9_11 
REMARK    8  A    between atoms: C9_11  and  C10_12 
REMARK    9  A    between atoms: C11_13  and  C13_15 
REMARK   10  A    between atoms: C15_18  and  C17_20 
REMARK   11  A    between atoms: C26_29  and  O4_30 
ROOT
HETATM    1  C15 UNL     1       3.959   6.917  18.425  1.00  0.00     0.020 C 
HETATM    2  C16 UNL     1       5.156   6.054  18.042  1.00  0.00     0.013 C 
ENDROOT
BRANCH   1   3
HETATM    3  C3  UNL     1       2.781   6.034  18.767  1.00  0.00     0.164 C 
BRANCH   3   4
HETATM    4  O2  UNL     1       1.544   6.649  18.703  1.00  0.00    -0.311 OA
BRANCH   4   5
HETATM    5  C2  UNL     1       0.434   6.403  17.986  1.00  0.00     0.255 C 
HETATM    6  C1  UNL     1      -0.222   7.527  17.251  1.00  0.00     0.126 C 
HETATM    7  O1  UNL     1      -0.018   5.260  17.952  1.00  0.00    -0.266 OA
ENDBRANCH   4   5
ENDBRANCH   3   4
BRANCH   3   8
HETATM    8  C4  UNL     1       2.984   5.396  20.137  1.00  0.00    -0.054 C 
HETATM    9  C5  UNL     1       2.838   3.964  20.357  1.00  0.00     0.046 C 
BRANCH   8  10
HETATM   10  C6  UNL     1       3.303   6.164  21.147  1.00  0.00     0.007 C 
BRANCH  10  11
HETATM   11  C7  UNL     1       3.687   5.948  22.513  1.00  0.00    -0.080 C 
HETATM   12  C8  UNL     1       2.697   6.008  23.608  1.00  0.00     0.043 C 
BRANCH  11  13
HETATM   13  C9  UNL     1       4.973   6.668  22.951  1.00  0.00     0.061 C 
BRANCH  13  14
HETATM   14  C10 UNL     1       5.646   7.326  21.792  1.00  0.00    -0.012 C 
HETATM   15  C11 UNL     1       6.905   7.717  21.852  1.00  0.00    -0.020 C 
HETATM   16  C12 UNL     1       7.646   7.479  23.127  1.00  0.00     0.052 C 
BRANCH  15  17
HETATM   17  C13 UNL     1       7.608   8.360  20.765  1.00  0.00     0.151 C 
HETATM   18  C14 UNL     1       8.196   7.638  19.627  1.00  0.00     0.096 C 
HETATM   19  O3  UNL     1       7.735   9.609  20.776  1.00  0.00    -0.293 OA
ENDBRANCH  15  17
ENDBRANCH  13  14
ENDBRANCH  11  13
ENDBRANCH  10  11
ENDBRANCH   8  10
ENDBRANCH   3   8
ENDBRANCH   1   3
BRANCH   1  20
HETATM   20  C17 UNL     1       3.710   8.020  17.491  1.00  0.00     0.004 C 
HETATM   21  C18 UNL     1       3.764   7.901  16.053  1.00  0.00    -0.013 C 
HETATM   22  C19 UNL     1       3.655   6.675  15.280  1.00  0.00     0.010 C 
HETATM   23  C20 UNL     1       2.650   8.807  15.479  1.00  0.00     0.005 C 
HETATM   24  C21 UNL     1       3.127  10.203  15.800  1.00  0.00     0.006 C 
HETATM   25  C22 UNL     1       3.518  10.443  17.212  1.00  0.00     0.004 C 
HETATM   26  C23 UNL     1       4.086  11.832  17.292  1.00  0.00    -0.017 C 
HETATM   27  C29 UNL     1       4.341   9.375  17.876  1.00  0.00    -0.035 C 
HETATM   28  C24 UNL     1       3.503  12.642  18.460  1.00  0.00     0.018 C 
HETATM   29  C25 UNL     1       3.635  12.656  16.064  1.00  0.00     0.018 C 
HETATM   30  C26 UNL     1       5.573  11.915  17.291  1.00  0.00     0.126 C 
HETATM   31  C27 UNL     1       6.267  10.649  16.869  1.00  0.00     0.033 C 
HETATM   32  C28 UNL     1       5.799   9.435  17.617  1.00  0.00     0.012 C 
HETATM   33  C30 UNL     1       4.128   9.472  19.391  1.00  0.00     0.016 C 
BRANCH  30  34
HETATM   34  O4  UNL     1       6.120  12.286  18.543  1.00  0.00    -0.395 OA
ATOM     35  H4  UNL     1       6.966  11.891  18.719  1.00  0.00     0.210 HD
ENDBRANCH  30  34
ENDBRANCH   1  20
TORSDOF 11
ENDMDL
MODEL 3
REMARK VINA RESULT: -9.195327590      1.637      2.373
REMARK  11 active torsions:
REMARK  status: ('A' for Active; 'I' for Inactive)
REMARK    1  A    between atoms: C2_2  and  O2_4 
REMARK    2  A    between atoms: O2_4  and  C3_5 
REMARK    3  A    between atoms: C3_5  and  C4_6 
REMARK    4  A    between atoms: C3_5  and  C15_18 
REMARK    5  A    between atoms: C4_6  and  C6_8 
REMARK    6  A    between atoms: C6_8  and  C7_9 
REMARK    7  A    between atoms: C7_9  and  C9_11 
REMARK    8  A    between atoms: C9_11  and  C10_12 
REMARK    9  A    between atoms: C11_13  and  C13_15 
REMARK   10  A    between atoms: C15_18  and  C17_20 
REMARK   11  A    between atoms: C26_29  and  O4_30 
ROOT
HETATM    1  C15 UNL     1       4.247   6.862  17.705  1.00  0.00     0.020 C 
HETATM    2  C16 UNL     1       5.645   6.305  17.949  1.00  0.00     0.013 C 
ENDROOT
BRANCH   1   3
HETATM    3  C3  UNL     1       3.233   5.741  17.759  1.00  0.00     0.164 C 
BRANCH   3   4
HETATM    4  O2  UNL     1       2.023   6.010  17.146  1.00  0.00    -0.311 OA
BRANCH   4   5
HETATM    5  C2  UNL     1       0.753   6.017  17.587  1.00  0.00     0.255 C 
HETATM    6  C1  UNL     1       0.124   7.317  17.971  1.00  0.00     0.126 C 
HETATM    7  O1  UNL     1       0.139   4.955  17.665  1.00  0.00    -0.266 OA
ENDBRANCH   4   5
ENDBRANCH   3   4
BRANCH   3   8
HETATM    8  C4  UNL     1       3.010   5.305  19.203  1.00  0.00    -0.054 C 
HETATM    9  C5  UNL     1       2.817   3.910  19.572  1.00  0.00     0.046 C 
BRANCH   8  10
HETATM   10  C6  UNL     1       2.994   6.218  20.140  1.00  0.00     0.007 C 
BRANCH  10  11
HETATM   11  C7  UNL     1       3.745   6.465  21.337  1.00  0.00    -0.080 C 
HETATM   12  C8  UNL     1       3.230   6.068  22.664  1.00  0.00     0.043 C 
BRANCH  11  13
HETATM   13  C9  UNL     1       4.374   7.865  21.435  1.00  0.00     0.061 C 
BRANCH  13  14
HETATM   14  C10 UNL     1       5.844   7.816  21.181  1.00  0.00    -0.012 C 
HETATM   15  C11 UNL     1       6.520   8.887  20.808  1.00  0.00    -0.020 C 
HETATM   16  C12 UNL     1       5.761  10.164  20.647  1.00  0.00     0.052 C 
BRANCH  15  17
HETATM   17  C13 UNL     1       7.940   8.900  20.546  1.00  0.00     0.151 C 
HETATM   18  C14 UNL     1       8.555   8.360  19.324  1.00  0.00     0.096 C 
HETATM   19  O3  UNL     1       8.712   9.399  21.400  1.00  0.00    -0.293 OA
ENDBRANCH  15  17
ENDBRANCH  13  14
ENDBRANCH  11  13
ENDBRANCH  10  11
ENDBRANCH   8  10
ENDBRANCH   3   8
ENDBRANCH   1   3
BRANCH   1  20
HETATM   20  C17 UNL     1       4.170   7.768  16.555  1.00  0.00     0.004 C 
HETATM   21  C18 UNL     1       4.907   7.594  15.327  1.00  0.00    -0.013 C 
HETATM   22  C19 UNL     1       5.496   6.358  14.837  1.00  0.00     0.010 C 
HETATM   23  C20 UNL     1       3.985   8.052  14.173  1.00  0.00     0.005 C 
HETATM   24  C21 UNL     1       3.869   9.542  14.381  1.00  0.00     0.006 C 
HETATM   25  C22 UNL     1       3.488   9.976  15.750  1.00  0.00     0.004 C 
HETATM   26  C23 UNL     1       3.563  11.477  15.784  1.00  0.00    -0.017 C 
HETATM   27  C29 UNL     1       4.166   9.275  16.893  1.00  0.00    -0.035 C 
HETATM   28  C24 UNL     1       2.316  12.115  16.416  1.00  0.00     0.018 C 
HETATM   29  C25 UNL     1       3.524  12.038  14.343  1.00  0.00     0.018 C 
HETATM   30  C26 UNL     1       4.802  12.042  16.388  1.00  0.00     0.126 C 
HETATM   31  C27 UNL     1       5.920  11.050  16.554  1.00  0.00     0.033 C 
HETATM   32  C28 UNL     1       5.505   9.794  17.260  1.00  0.00     0.012 C 
HETATM   33  C30 UNL     1       3.265   9.381  18.128  1.00  0.00     0.016 C 
BRANCH  30  34
HETATM   34  O4  UNL     1       4.592  12.640  17.653  1.00  0.00    -0.395 OA
ATOM     35  H4  UNL     1       5.301  12.488  18.267  1.00  0.00     0.210 HD
ENDBRANCH  30  34
ENDBRANCH   1  20
TORSDOF 11
ENDMDL
MODEL 4
REMARK VINA RESULT: -9.067671285      1.587      2.571
REMARK  11 active torsions:
REMARK  status: ('A' for Active; 'I' for Inactive)
REMARK    1  A    between atoms: C2_2  and  O2_4 
REMARK    2  A    between atoms: O2_4  and  C3_5 
REMARK    3  A    between atoms: C3_5  and  C4_6 
REMARK    4  A    between atoms: C3_5  and  C15_18 
REMARK    5  A    between atoms: C4_6  and  C6_8 
REMARK    6  A    between atoms: C6_8  and  C7_9 
REMARK    7  A    between atoms: C7_9  and  C9_11 
REMARK    8  A    between atoms: C9_11  and  C10_12 
REMARK    9  A    between atoms: C11_13  and  C13_15 
REMARK   10  A    between atoms: C15_18  and  C17_20 
REMARK   11  A    between atoms: C26_29  and  O4_30 
ROOT
HETATM    1  C15 UNL     1       3.635   6.909  16.092  1.00  0.00     0.020 C 
HETATM    2  C16 UNL     1       2.812   6.330  14.947  1.00  0.00     0.013 C 
ENDROOT
BRANCH   1   3
HETATM    3  C3  UNL     1       3.720   5.904  17.219  1.00  0.00     0.164 C 
BRANCH   3   4
HETATM    4  O2  UNL     1       2.505   5.481  17.724  1.00  0.00    -0.311 OA
BRANCH   4   5
HETATM    5  C2  UNL     1       2.072   4.303  18.205  1.00  0.00     0.255 C 
HETATM    6  C1  UNL     1       0.609   4.103  18.433  1.00  0.00     0.126 C 
HETATM    7  O1  UNL     1       2.889   3.416  18.447  1.00  0.00    -0.266 OA
ENDBRANCH   4   5
ENDBRANCH   3   4
BRANCH   3   8
HETATM    8  C4  UNL     1       4.599   6.447  18.340  1.00  0.00    -0.054 C 
HETATM    9  C5  UNL     1       6.050   6.493  18.237  1.00  0.00     0.046 C 
BRANCH   8  10
HETATM   10  C6  UNL     1       4.025   6.888  19.431  1.00  0.00     0.007 C 
BRANCH  10  11
HETATM   11  C7  UNL     1       4.260   6.742  20.839  1.00  0.00    -0.080 C 
HETATM   12  C8  UNL     1       3.296   6.039  21.710  1.00  0.00     0.043 C 
BRANCH  11  13
HETATM   13  C9  UNL     1       4.759   8.009  21.552  1.00  0.00     0.061 C 
BRANCH  13  14
HETATM   14  C10 UNL     1       6.243   8.138  21.453  1.00  0.00    -0.012 C 
HETATM   15  C11 UNL     1       6.811   9.035  20.669  1.00  0.00    -0.020 C 
HETATM   16  C12 UNL     1       5.915   9.929  19.875  1.00  0.00     0.052 C 
BRANCH  15  17
HETATM   17  C13 UNL     1       8.239   9.205  20.530  1.00  0.00     0.151 C 
HETATM   18  C14 UNL     1       9.007   8.770  19.354  1.00  0.00     0.096 C 
HETATM   19  O3  UNL     1       8.880   9.755  21.459  1.00  0.00    -0.293 OA
ENDBRANCH  15  17
ENDBRANCH  13  14
ENDBRANCH  11  13
ENDBRANCH  10  11
ENDBRANCH   8  10
ENDBRANCH   3   8
ENDBRANCH   1   3
BRANCH   1  20
HETATM   20  C17 UNL     1       3.255   8.278  16.453  1.00  0.00     0.004 C 
HETATM   21  C18 UNL     1       1.895   8.732  16.618  1.00  0.00    -0.013 C 
HETATM   22  C19 UNL     1       0.729   7.901  16.872  1.00  0.00     0.010 C 
HETATM   23  C20 UNL     1       1.892   9.747  17.785  1.00  0.00     0.005 C 
HETATM   24  C21 UNL     1       2.660  10.924  17.233  1.00  0.00     0.006 C 
HETATM   25  C22 UNL     1       3.979  10.608  16.628  1.00  0.00     0.004 C 
HETATM   26  C23 UNL     1       4.511  11.877  16.022  1.00  0.00    -0.017 C 
HETATM   27  C29 UNL     1       4.043   9.399  15.740  1.00  0.00    -0.035 C 
HETATM   28  C24 UNL     1       5.975  12.144  16.404  1.00  0.00     0.018 C 
HETATM   29  C25 UNL     1       3.785  13.097  16.634  1.00  0.00     0.018 C 
HETATM   30  C26 UNL     1       4.323  12.010  14.550  1.00  0.00     0.126 C 
HETATM   31  C27 UNL     1       3.342  11.036  13.958  1.00  0.00     0.033 C 
HETATM   32  C28 UNL     1       3.615   9.610  14.337  1.00  0.00     0.012 C 
HETATM   33  C30 UNL     1       5.488   8.889  15.720  1.00  0.00     0.016 C 
BRANCH  30  34
HETATM   34  O4  UNL     1       5.524  11.883  13.813  1.00  0.00    -0.395 OA
ATOM     35  H4  UNL     1       5.534  11.133  13.230  1.00  0.00     0.210 HD
ENDBRANCH  30  34
ENDBRANCH   1  20
TORSDOF 11
ENDMDL
MODEL 5
REMARK VINA RESULT: -8.942524223      1.809      4.515
REMARK  11 active torsions:
REMARK  status: ('A' for Active; 'I' for Inactive)
REMARK    1  A    between atoms: C2_2  and  O2_4 
REMARK    2  A    between atoms: O2_4  and  C3_5 
REMARK    3  A    between atoms: C3_5  and  C4_6 
REMARK    4  A    between atoms: C3_5  and  C15_18 
REMARK    5  A    between atoms: C4_6  and  C6_8 
REMARK    6  A    between atoms: C6_8  and  C7_9 
REMARK    7  A    between atoms: C7_9  and  C9_11 
REMARK    8  A    between atoms: C9_11  and  C10_12 
REMARK    9  A    between atoms: C11_13  and  C13_15 
REMARK   10  A    between atoms: C15_18  and  C17_20 
REMARK   11  A    between atoms: C26_29  and  O4_30 
ROOT
HETATM    1  C15 UNL     1       6.391   8.373  18.182  1.00  0.00     0.020 C 
HETATM    2  C16 UNL     1       7.912   8.443  18.102  1.00  0.00     0.013 C 
ENDROOT
BRANCH   1   3
HETATM    3  C3  UNL     1       5.972   7.067  18.819  1.00  0.00     0.164 C 
BRANCH   3   4
HETATM    4  O2  UNL     1       5.024   6.347  18.118  1.00  0.00    -0.311 OA
BRANCH   4   5
HETATM    5  C2  UNL     1       5.108   5.339  17.231  1.00  0.00     0.255 C 
HETATM    6  C1  UNL     1       4.000   5.140  16.249  1.00  0.00     0.126 C 
HETATM    7  O1  UNL     1       6.094   4.605  17.249  1.00  0.00    -0.266 OA
ENDBRANCH   4   5
ENDBRANCH   3   4
BRANCH   3   8
HETATM    8  C4  UNL     1       5.503   7.308  20.250  1.00  0.00    -0.054 C 
HETATM    9  C5  UNL     1       6.434   7.545  21.343  1.00  0.00     0.046 C 
BRANCH   8  10
HETATM   10  C6  UNL     1       4.218   7.304  20.499  1.00  0.00     0.007 C 
BRANCH  10  11
HETATM   11  C7  UNL     1       3.298   6.382  21.100  1.00  0.00    -0.080 C 
HETATM   12  C8  UNL     1       3.713   5.487  22.199  1.00  0.00     0.043 C 
BRANCH  11  13
HETATM   13  C9  UNL     1       2.420   5.598  20.110  1.00  0.00     0.061 C 
BRANCH  13  14
HETATM   14  C10 UNL     1       1.836   6.499  19.073  1.00  0.00    -0.012 C 
HETATM   15  C11 UNL     1       0.958   6.062  18.189  1.00  0.00    -0.020 C 
HETATM   16  C12 UNL     1       0.561   4.624  18.258  1.00  0.00     0.052 C 
BRANCH  15  17
HETATM   17  C13 UNL     1       0.361   6.885  17.163  1.00  0.00     0.151 C 
HETATM   18  C14 UNL     1       0.774   8.267  16.876  1.00  0.00     0.096 C 
HETATM   19  O3  UNL     1      -0.566   6.409  16.464  1.00  0.00    -0.293 OA
ENDBRANCH  15  17
ENDBRANCH  13  14
ENDBRANCH  11  13
ENDBRANCH  10  11
ENDBRANCH   8  10
ENDBRANCH   3   8
ENDBRANCH   1   3
BRANCH   1  20
HETATM   20  C17 UNL     1       5.721   8.744  16.932  1.00  0.00     0.004 C 
HETATM   21  C18 UNL     1       6.245   8.479  15.614  1.00  0.00    -0.013 C 
HETATM   22  C19 UNL     1       7.248   7.487  15.263  1.00  0.00     0.010 C 
HETATM   23  C20 UNL     1       5.043   8.133  14.706  1.00  0.00     0.005 C 
HETATM   24  C21 UNL     1       4.290   9.437  14.600  1.00  0.00     0.006 C 
HETATM   25  C22 UNL     1       3.981  10.110  15.887  1.00  0.00     0.004 C 
HETATM   26  C23 UNL     1       3.361  11.441  15.562  1.00  0.00    -0.017 C 
HETATM   27  C29 UNL     1       5.080  10.149  16.911  1.00  0.00    -0.035 C 
HETATM   28  C24 UNL     1       2.082  11.709  16.369  1.00  0.00     0.018 C 
HETATM   29  C25 UNL     1       2.835  11.434  14.108  1.00  0.00     0.018 C 
HETATM   30  C26 UNL     1       4.282  12.610  15.637  1.00  0.00     0.126 C 
HETATM   31  C27 UNL     1       5.741  12.250  15.688  1.00  0.00     0.033 C 
HETATM   32  C28 UNL     1       6.070  11.239  16.747  1.00  0.00     0.012 C 
HETATM   33  C30 UNL     1       4.445  10.294  18.298  1.00  0.00     0.016 C 
BRANCH  30  34
HETATM   34  O4  UNL     1       4.029  13.458  16.742  1.00  0.00    -0.395 OA
ATOM     35  H4  UNL     1       3.611  14.277  16.504  1.00  0.00     0.210 HD
ENDBRANCH  30  34
ENDBRANCH   1  20
TORSDOF 11
ENDMDL
