MODEL 1
REMARK VINA RESULT: -9.326167796      0.000      0.000
REMARK  10 active torsions:
REMARK  status: ('A' for Active; 'I' for Inactive)
REMARK    1  A    between atoms: C2_2  and  C3_3 
REMARK    2  A    between atoms: C13_13  and  O1_14 
REMARK    3  A    between atoms: O1_14  and  C14_15 
REMARK    4  A    between atoms: C14_15  and  C15_17 
REMARK    5  A    between atoms: C15_17  and  C16_18 
REMARK    6  A    between atoms: C18_20  and  C19_21 
REMARK    7  A    between atoms: C19_21  and  O3_22 
REMARK    8  A    between atoms: O3_22  and  C20_23 
REMARK    9  A    between atoms: C20_23  and  C21_27 
REMARK   10  A    between atoms: C21_27  and  C22_28 
ROOT
HETATM    1  C3  UNL     1       3.074  12.477  16.265  1.00  0.00    -0.026 C 
HETATM    2  C4  UNL     1       2.874  13.273  17.560  1.00  0.00     0.019 C 
HETATM    3  C5  UNL     1       4.361  12.807  15.588  1.00  0.00     0.014 C 
HETATM    4  C6  UNL     1       5.554  12.079  16.082  1.00  0.00     0.011 C 
HETATM    5  C7  UNL     1       5.326  10.997  17.053  1.00  0.00    -0.035 C 
HETATM    6  C8  UNL     1       5.820  11.322  18.447  1.00  0.00     0.016 C 
HETATM    7  C9  UNL     1       6.026   9.708  16.586  1.00  0.00     0.021 C 
HETATM    8  C10 UNL     1       4.685   9.274  16.041  1.00  0.00    -0.021 C 
HETATM    9  C11 UNL     1       4.562   9.401  14.584  1.00  0.00     0.014 C 
HETATM   10  C12 UNL     1       4.265   8.004  14.010  1.00  0.00     0.034 C 
HETATM   11  C13 UNL     1       4.551   7.057  15.159  1.00  0.00     0.141 C 
HETATM   12  C25 UNL     1       4.303   7.835  16.401  1.00  0.00     0.053 C 
HETATM   13  C26 UNL     1       2.892   7.803  16.841  1.00  0.00    -0.082 C 
HETATM   14  C27 UNL     1       1.886   7.210  16.245  1.00  0.00     0.015 C 
HETATM   15  C28 UNL     1       2.603   8.552  18.117  1.00  0.00     0.034 C 
HETATM   16  C29 UNL     1       3.771   9.526  18.270  1.00  0.00     0.015 C 
HETATM   17  C30 UNL     1       4.041  10.257  16.956  1.00  0.00    -0.023 C 
HETATM   18  C31 UNL     1       2.863  11.008  16.504  1.00  0.00     0.024 C 
ENDROOT
BRANCH  11  19
HETATM   19  O1  UNL     1       5.912   6.617  15.062  1.00  0.00    -0.315 OA
BRANCH  19  20
HETATM   20  C14 UNL     1       6.412   5.580  15.797  1.00  0.00     0.263 C 
HETATM   21  O2  UNL     1       5.790   4.476  15.777  1.00  0.00    -0.265 OA
BRANCH  20  22
HETATM   22  C15 UNL     1       7.645   5.664  16.624  1.00  0.00     0.144 C 
BRANCH  22  23
HETATM   23  C16 UNL     1       7.564   6.757  17.622  1.00  0.00    -0.076 C 
HETATM   24  C17 UNL     1       8.446   7.941  17.486  1.00  0.00     0.043 C 
HETATM   25  C18 UNL     1       6.722   6.700  18.631  1.00  0.00     0.002 C 
BRANCH  25  26
HETATM   26  C19 UNL     1       6.647   7.776  19.609  1.00  0.00     0.204 C 
BRANCH  26  27
HETATM   27  O3  UNL     1       6.727   7.462  20.950  1.00  0.00    -0.336 OA
BRANCH  27  28
HETATM   28  C20 UNL     1       5.792   7.664  21.941  1.00  0.00     0.115 C 
HETATM   29  N1  UNL     1       6.305   7.739  23.135  1.00  0.00    -0.383 N 
ATOM     30  H12 UNL     1       7.310   7.653  23.288  1.00  0.00     0.157 HD
ATOM     31  H11 UNL     1       5.612   7.888  23.868  1.00  0.00     0.157 HD
BRANCH  28  32
HETATM   32  C21 UNL     1       4.349   7.788  21.720  1.00  0.00     0.116 C 
BRANCH  32  33
HETATM   33  C22 UNL     1       3.564   6.561  21.850  1.00  0.00    -0.086 C 
HETATM   34  C23 UNL     1       3.129   6.152  23.026  1.00  0.00     0.014 C 
HETATM   35  C24 UNL     1       3.250   5.757  20.641  1.00  0.00     0.043 C 
ENDBRANCH  32  33
ENDBRANCH  28  32
ENDBRANCH  27  28
ENDBRANCH  26  27
ENDBRANCH  25  26
ENDBRANCH  22  23
ENDBRANCH  20  22
ENDBRANCH  19  20
ENDBRANCH  11  19
BRANCH   1  36
HETATM   36  C2  UNL     1       1.969  12.929  15.352  1.00  0.00    -0.028 C 
HETATM   37  C1  UNL     1       1.691  12.175  14.294  1.00  0.00     0.007 C 
ENDBRANCH   1  36
TORSDOF 10
ENDMDL
MODEL 2
REMARK VINA RESULT: -9.169980650      2.389      5.941
REMARK  10 active torsions:
REMARK  status: ('A' for Active; 'I' for Inactive)
REMARK    1  A    between atoms: C2_2  and  C3_3 
REMARK    2  A    between atoms: C13_13  and  O1_14 
REMARK    3  A    between atoms: O1_14  and  C14_15 
REMARK    4  A    between atoms: C14_15  and  C15_17 
REMARK    5  A    between atoms: C15_17  and  C16_18 
REMARK    6  A    between atoms: C18_20  and  C19_21 
REMARK    7  A    between atoms: C19_21  and  O3_22 
REMARK    8  A    between atoms: O3_22  and  C20_23 
REMARK    9  A    between atoms: C20_23  and  C21_27 
REMARK   10  A    between atoms: C21_27  and  C22_28 
ROOT
HETATM    1  C3  UNL     1       3.416   6.368  20.509  1.00  0.00    -0.026 C 
HETATM    2  C4  UNL     1       3.521   4.847  20.668  1.00  0.00     0.019 C 
HETATM    3  C5  UNL     1       4.741   7.005  20.259  1.00  0.00     0.014 C 
HETATM    4  C6  UNL     1       5.198   7.008  18.850  1.00  0.00     0.011 C 
HETATM    5  C7  UNL     1       4.242   6.545  17.832  1.00  0.00    -0.035 C 
HETATM    6  C8  UNL     1       4.614   5.215  17.213  1.00  0.00     0.016 C 
HETATM    7  C9  UNL     1       4.127   7.583  16.701  1.00  0.00     0.021 C 
HETATM    8  C10 UNL     1       2.883   8.085  17.400  1.00  0.00    -0.021 C 
HETATM    9  C11 UNL     1       3.080   9.334  18.146  1.00  0.00     0.014 C 
HETATM   10  C12 UNL     1       2.120  10.388  17.565  1.00  0.00     0.034 C 
HETATM   11  C13 UNL     1       1.625   9.774  16.271  1.00  0.00     0.141 C 
HETATM   12  C25 UNL     1       1.689   8.302  16.466  1.00  0.00     0.053 C 
HETATM   13  C26 UNL     1       0.474   7.741  17.093  1.00  0.00    -0.082 C 
HETATM   14  C27 UNL     1      -0.585   8.396  17.504  1.00  0.00     0.015 C 
HETATM   15  C28 UNL     1       0.483   6.245  17.280  1.00  0.00     0.034 C 
HETATM   16  C29 UNL     1       1.959   5.854  17.219  1.00  0.00     0.015 C 
HETATM   17  C30 UNL     1       2.799   6.775  18.103  1.00  0.00    -0.023 C 
HETATM   18  C31 UNL     1       2.360   6.728  19.503  1.00  0.00     0.024 C 
ENDROOT
BRANCH  11  19
HETATM   19  O1  UNL     1       2.475  10.213  15.202  1.00  0.00    -0.315 OA
BRANCH  19  20
HETATM   20  C14 UNL     1       2.311  11.411  14.567  1.00  0.00     0.263 C 
HETATM   21  O2  UNL     1       1.403  11.505  13.688  1.00  0.00    -0.265 OA
BRANCH  20  22
HETATM   22  C15 UNL     1       3.134  12.619  14.844  1.00  0.00     0.144 C 
BRANCH  22  23
HETATM   23  C16 UNL     1       4.532  12.265  15.185  1.00  0.00    -0.076 C 
HETATM   24  C17 UNL     1       5.507  12.001  14.100  1.00  0.00     0.043 C 
HETATM   25  C18 UNL     1       4.928  12.180  16.437  1.00  0.00     0.002 C 
BRANCH  25  26
HETATM   26  C19 UNL     1       6.303  11.832  16.767  1.00  0.00     0.204 C 
BRANCH  26  27
HETATM   27  O3  UNL     1       6.714  11.920  18.081  1.00  0.00    -0.336 OA
BRANCH  27  28
HETATM   28  C20 UNL     1       7.046  10.905  18.951  1.00  0.00     0.115 C 
HETATM   29  N1  UNL     1       6.072  10.554  19.740  1.00  0.00    -0.383 N 
ATOM     30  H12 UNL     1       5.160  11.008  19.693  1.00  0.00     0.157 HD
ATOM     31  H11 UNL     1       6.318   9.802  20.384  1.00  0.00     0.157 HD
BRANCH  28  32
HETATM   32  C21 UNL     1       8.356  10.252  19.018  1.00  0.00     0.116 C 
BRANCH  32  33
HETATM   33  C22 UNL     1       8.405   8.850  18.607  1.00  0.00    -0.086 C 
HETATM   34  C23 UNL     1       8.625   7.889  19.484  1.00  0.00     0.014 C 
HETATM   35  C24 UNL     1       8.205   8.494  17.179  1.00  0.00     0.043 C 
ENDBRANCH  32  33
ENDBRANCH  28  32
ENDBRANCH  27  28
ENDBRANCH  26  27
ENDBRANCH  25  26
ENDBRANCH  22  23
ENDBRANCH  20  22
ENDBRANCH  19  20
ENDBRANCH  11  19
BRANCH   1  36
HETATM   36  C2  UNL     1       2.932   6.869  21.842  1.00  0.00    -0.028 C 
HETATM   37  C1  UNL     1       3.503   6.376  22.935  1.00  0.00     0.007 C 
ENDBRANCH   1  36
TORSDOF 10
ENDMDL
MODEL 3
REMARK VINA RESULT: -9.126920171      2.461      5.913
REMARK  10 active torsions:
REMARK  status: ('A' for Active; 'I' for Inactive)
REMARK    1  A    between atoms: C2_2  and  C3_3 
REMARK    2  A    between atoms: C13_13  and  O1_14 
REMARK    3  A    between atoms: O1_14  and  C14_15 
REMARK    4  A    between atoms: C14_15  and  C15_17 
REMARK    5  A    between atoms: C15_17  and  C16_18 
REMARK    6  A    between atoms: C18_20  and  C19_21 
REMARK    7  A    between atoms: C19_21  and  O3_22 
REMARK    8  A    between atoms: O3_22  and  C20_23 
REMARK    9  A    between atoms: C20_23  and  C21_27 
REMARK   10  A    between atoms: C21_27  and  C22_28 
ROOT
HETATM    1  C3  UNL     1       3.478   6.388  20.551  1.00  0.00    -0.026 C 
HETATM    2  C4  UNL     1       3.609   4.869  20.708  1.00  0.00     0.019 C 
HETATM    3  C5  UNL     1       4.795   7.051  20.329  1.00  0.00     0.014 C 
HETATM    4  C6  UNL     1       5.281   7.066  18.929  1.00  0.00     0.011 C 
HETATM    5  C7  UNL     1       4.354   6.588  17.891  1.00  0.00    -0.035 C 
HETATM    6  C8  UNL     1       4.763   5.267  17.276  1.00  0.00     0.016 C 
HETATM    7  C9  UNL     1       4.241   7.627  16.760  1.00  0.00     0.021 C 
HETATM    8  C10 UNL     1       2.975   8.103  17.435  1.00  0.00    -0.021 C 
HETATM    9  C11 UNL     1       3.133   9.354  18.188  1.00  0.00     0.014 C 
HETATM   10  C12 UNL     1       2.165  10.391  17.591  1.00  0.00     0.034 C 
HETATM   11  C13 UNL     1       1.707   9.771  16.285  1.00  0.00     0.141 C 
HETATM   12  C25 UNL     1       1.795   8.300  16.478  1.00  0.00     0.053 C 
HETATM   13  C26 UNL     1       0.579   7.714  17.080  1.00  0.00    -0.082 C 
HETATM   14  C27 UNL     1      -0.500   8.348  17.471  1.00  0.00     0.015 C 
HETATM   15  C28 UNL     1       0.613   6.218  17.263  1.00  0.00     0.034 C 
HETATM   16  C29 UNL     1       2.097   5.855  17.231  1.00  0.00     0.015 C 
HETATM   17  C30 UNL     1       2.902   6.790  18.133  1.00  0.00    -0.023 C 
HETATM   18  C31 UNL     1       2.435   6.731  19.524  1.00  0.00     0.024 C 
ENDROOT
BRANCH  11  19
HETATM   19  O1  UNL     1       2.570  10.229  15.234  1.00  0.00    -0.315 OA
BRANCH  19  20
HETATM   20  C14 UNL     1       2.385  11.417  14.586  1.00  0.00     0.263 C 
HETATM   21  O2  UNL     1       1.454  11.494  13.729  1.00  0.00    -0.265 OA
BRANCH  20  22
HETATM   22  C15 UNL     1       3.208  12.632  14.825  1.00  0.00     0.144 C 
BRANCH  22  23
HETATM   23  C16 UNL     1       4.613  12.290  15.147  1.00  0.00    -0.076 C 
HETATM   24  C17 UNL     1       5.618  12.220  14.059  1.00  0.00     0.043 C 
HETATM   25  C18 UNL     1       4.990  12.045  16.383  1.00  0.00     0.002 C 
BRANCH  25  26
HETATM   26  C19 UNL     1       6.372  11.708  16.694  1.00  0.00     0.204 C 
BRANCH  26  27
HETATM   27  O3  UNL     1       6.740  10.378  16.734  1.00  0.00    -0.336 OA
BRANCH  27  28
HETATM   28  C20 UNL     1       7.684   9.768  17.529  1.00  0.00     0.115 C 
HETATM   29  N1  UNL     1       8.099   8.626  17.063  1.00  0.00    -0.383 N 
ATOM     30  H12 UNL     1       7.738   8.246  16.188  1.00  0.00     0.157 HD
ATOM     31  H11 UNL     1       8.798   8.174  17.652  1.00  0.00     0.157 HD
BRANCH  28  32
HETATM   32  C21 UNL     1       8.202  10.314  18.786  1.00  0.00     0.116 C 
BRANCH  32  33
HETATM   33  C22 UNL     1       7.507   9.906  20.006  1.00  0.00    -0.086 C 
HETATM   34  C23 UNL     1       8.035   9.018  20.827  1.00  0.00     0.014 C 
HETATM   35  C24 UNL     1       6.184  10.496  20.333  1.00  0.00     0.043 C 
ENDBRANCH  32  33
ENDBRANCH  28  32
ENDBRANCH  27  28
ENDBRANCH  26  27
ENDBRANCH  25  26
ENDBRANCH  22  23
ENDBRANCH  20  22
ENDBRANCH  19  20
ENDBRANCH  11  19
BRANCH   1  36
HETATM   36  C2  UNL     1       2.958   6.877  21.874  1.00  0.00    -0.028 C 
HETATM   37  C1  UNL     1       3.528   6.404  22.977  1.00  0.00     0.007 C 
ENDBRANCH   1  36
TORSDOF 10
ENDMDL
MODEL 4
REMARK VINA RESULT: -9.052480753      2.167      4.593
REMARK  10 active torsions:
REMARK  status: ('A' for Active; 'I' for Inactive)
REMARK    1  A    between atoms: C2_2  and  C3_3 
REMARK    2  A    between atoms: C13_13  and  O1_14 
REMARK    3  A    between atoms: O1_14  and  C14_15 
REMARK    4  A    between atoms: C14_15  and  C15_17 
REMARK    5  A    between atoms: C15_17  and  C16_18 
REMARK    6  A    between atoms: C18_20  and  C19_21 
REMARK    7  A    between atoms: C19_21  and  O3_22 
REMARK    8  A    between atoms: O3_22  and  C20_23 
REMARK    9  A    between atoms: C20_23  and  C21_27 
REMARK   10  A    between atoms: C21_27  and  C22_28 
ROOT
HETATM    1  C3  UNL     1       1.047   6.115  18.227  1.00  0.00    -0.026 C 
HETATM    2  C4  UNL     1       0.712   4.649  17.928  1.00  0.00     0.019 C 
HETATM    3  C5  UNL     1       1.788   6.277  19.511  1.00  0.00     0.014 C 
HETATM    4  C6  UNL     1       3.255   6.081  19.437  1.00  0.00     0.011 C 
HETATM    5  C7  UNL     1       3.844   5.918  18.099  1.00  0.00    -0.035 C 
HETATM    6  C8  UNL     1       4.351   4.518  17.826  1.00  0.00     0.016 C 
HETATM    7  C9  UNL     1       5.019   6.896  17.913  1.00  0.00     0.021 C 
HETATM    8  C10 UNL     1       4.045   7.800  17.191  1.00  0.00    -0.021 C 
HETATM    9  C11 UNL     1       3.586   8.943  17.990  1.00  0.00     0.014 C 
HETATM   10  C12 UNL     1       3.981  10.230  17.245  1.00  0.00     0.034 C 
HETATM   11  C13 UNL     1       4.953   9.765  16.179  1.00  0.00     0.141 C 
HETATM   12  C25 UNL     1       4.579   8.360  15.869  1.00  0.00     0.053 C 
HETATM   13  C26 UNL     1       3.528   8.248  14.835  1.00  0.00    -0.082 C 
HETATM   14  C27 UNL     1       2.905   9.226  14.224  1.00  0.00     0.015 C 
HETATM   15  C28 UNL     1       3.142   6.838  14.467  1.00  0.00     0.034 C 
HETATM   16  C29 UNL     1       3.605   5.986  15.648  1.00  0.00     0.015 C 
HETATM   17  C30 UNL     1       3.171   6.615  16.972  1.00  0.00    -0.023 C 
HETATM   18  C31 UNL     1       1.712   6.763  17.046  1.00  0.00     0.024 C 
ENDROOT
BRANCH  11  19
HETATM   19  O1  UNL     1       6.286   9.865  16.700  1.00  0.00    -0.315 OA
BRANCH  19  20
HETATM   20  C14 UNL     1       6.878  11.058  17.001  1.00  0.00     0.263 C 
HETATM   21  O2  UNL     1       6.497  12.092  16.374  1.00  0.00    -0.265 OA
BRANCH  20  22
HETATM   22  C15 UNL     1       7.944  11.224  18.024  1.00  0.00     0.144 C 
BRANCH  22  23
HETATM   23  C16 UNL     1       8.190   9.967  18.770  1.00  0.00    -0.076 C 
HETATM   24  C17 UNL     1       8.828   8.819  18.082  1.00  0.00     0.043 C 
HETATM   25  C18 UNL     1       7.852   9.847  20.036  1.00  0.00     0.002 C 
BRANCH  25  26
HETATM   26  C19 UNL     1       8.096   8.609  20.764  1.00  0.00     0.204 C 
BRANCH  26  27
HETATM   27  O3  UNL     1       7.775   8.553  22.105  1.00  0.00    -0.336 OA
BRANCH  27  28
HETATM   28  C20 UNL     1       7.169   7.533  22.804  1.00  0.00     0.115 C 
HETATM   29  N1  UNL     1       7.646   7.368  24.004  1.00  0.00    -0.383 N 
ATOM     30  H12 UNL     1       8.398   7.957  24.362  1.00  0.00     0.157 HD
ATOM     31  H11 UNL     1       7.198   6.612  24.522  1.00  0.00     0.157 HD
BRANCH  28  32
HETATM   32  C21 UNL     1       6.089   6.687  22.289  1.00  0.00     0.116 C 
BRANCH  32  33
HETATM   33  C22 UNL     1       4.741   7.252  22.343  1.00  0.00    -0.086 C 
HETATM   34  C23 UNL     1       3.787   6.671  23.045  1.00  0.00     0.014 C 
HETATM   35  C24 UNL     1       4.434   8.498  21.595  1.00  0.00     0.043 C 
ENDBRANCH  32  33
ENDBRANCH  28  32
ENDBRANCH  27  28
ENDBRANCH  26  27
ENDBRANCH  25  26
ENDBRANCH  22  23
ENDBRANCH  20  22
ENDBRANCH  19  20
ENDBRANCH  11  19
BRANCH   1  36
HETATM   36  C2  UNL     1      -0.284   6.794  18.399  1.00  0.00    -0.028 C 
HETATM   37  C1  UNL     1      -0.485   7.937  17.751  1.00  0.00     0.007 C 
ENDBRANCH   1  36
TORSDOF 10
ENDMDL
MODEL 5
REMARK VINA RESULT: -9.050048698      2.249      4.969
REMARK  10 active torsions:
REMARK  status: ('A' for Active; 'I' for Inactive)
REMARK    1  A    between atoms: C2_2  and  C3_3 
REMARK    2  A    between atoms: C13_13  and  O1_14 
REMARK    3  A    between atoms: O1_14  and  C14_15 
REMARK    4  A    between atoms: C14_15  and  C15_17 
REMARK    5  A    between atoms: C15_17  and  C16_18 
REMARK    6  A    between atoms: C18_20  and  C19_21 
REMARK    7  A    between atoms: C19_21  and  O3_22 
REMARK    8  A    between atoms: O3_22  and  C20_23 
REMARK    9  A    between atoms: C20_23  and  C21_27 
REMARK   10  A    between atoms: C21_27  and  C22_28 
ROOT
HETATM    1  C3  UNL     1       7.524   7.712  16.841  1.00  0.00    -0.026 C 
HETATM    2  C4  UNL     1       8.634   8.698  17.224  1.00  0.00     0.019 C 
HETATM    3  C5  UNL     1       7.114   6.848  17.985  1.00  0.00     0.014 C 
HETATM    4  C6  UNL     1       6.114   7.433  18.909  1.00  0.00     0.011 C 
HETATM    5  C7  UNL     1       5.508   8.716  18.518  1.00  0.00    -0.035 C 
HETATM    6  C8  UNL     1       5.947   9.880  19.381  1.00  0.00     0.016 C 
HETATM    7  C9  UNL     1       3.973   8.621  18.588  1.00  0.00     0.021 C 
HETATM    8  C10 UNL     1       4.002   8.372  17.097  1.00  0.00    -0.021 C 
HETATM    9  C11 UNL     1       3.791   6.969  16.721  1.00  0.00     0.014 C 
HETATM   10  C12 UNL     1       2.542   6.902  15.825  1.00  0.00     0.034 C 
HETATM   11  C13 UNL     1       1.889   8.261  15.986  1.00  0.00     0.141 C 
HETATM   12  C25 UNL     1       2.990   9.207  16.307  1.00  0.00     0.053 C 
HETATM   13  C26 UNL     1       3.652   9.765  15.108  1.00  0.00    -0.082 C 
HETATM   14  C27 UNL     1       3.391   9.487  13.854  1.00  0.00     0.015 C 
HETATM   15  C28 UNL     1       4.753  10.756  15.388  1.00  0.00     0.034 C 
HETATM   16  C29 UNL     1       5.167  10.480  16.834  1.00  0.00     0.015 C 
HETATM   17  C30 UNL     1       5.361   8.981  17.064  1.00  0.00    -0.023 C 
HETATM   18  C31 UNL     1       6.384   8.426  16.170  1.00  0.00     0.024 C 
ENDROOT
BRANCH  11  19
HETATM   19  O1  UNL     1       0.922   8.181  17.042  1.00  0.00    -0.315 OA
BRANCH  19  20
HETATM   20  C14 UNL     1       0.154   7.074  17.263  1.00  0.00     0.263 C 
HETATM   21  O2  UNL     1      -0.474   6.574  16.282  1.00  0.00    -0.265 OA
BRANCH  20  22
HETATM   22  C15 UNL     1       0.007   6.414  18.588  1.00  0.00     0.144 C 
BRANCH  22  23
HETATM   23  C16 UNL     1       1.201   5.610  18.937  1.00  0.00    -0.076 C 
HETATM   24  C17 UNL     1       1.395   4.277  18.318  1.00  0.00     0.043 C 
HETATM   25  C18 UNL     1       2.100   6.056  19.790  1.00  0.00     0.002 C 
BRANCH  25  26
HETATM   26  C19 UNL     1       3.271   5.262  20.129  1.00  0.00     0.204 C 
BRANCH  26  27
HETATM   27  O3  UNL     1       3.752   5.306  21.422  1.00  0.00    -0.336 OA
BRANCH  27  28
HETATM   28  C20 UNL     1       3.828   6.382  22.278  1.00  0.00     0.115 C 
HETATM   29  N1  UNL     1       2.994   6.316  23.275  1.00  0.00    -0.383 N 
ATOM     30  H12 UNL     1       2.356   5.527  23.383  1.00  0.00     0.157 HD
ATOM     31  H11 UNL     1       3.049   7.113  23.908  1.00  0.00     0.157 HD
BRANCH  28  32
HETATM   32  C21 UNL     1       4.744   7.515  22.122  1.00  0.00     0.116 C 
BRANCH  32  33
HETATM   33  C22 UNL     1       6.099   7.331  22.640  1.00  0.00    -0.086 C 
HETATM   34  C23 UNL     1       7.152   7.465  21.857  1.00  0.00     0.014 C 
HETATM   35  C24 UNL     1       6.300   6.985  24.070  1.00  0.00     0.043 C 
ENDBRANCH  32  33
ENDBRANCH  28  32
ENDBRANCH  27  28
ENDBRANCH  26  27
ENDBRANCH  25  26
ENDBRANCH  22  23
ENDBRANCH  20  22
ENDBRANCH  19  20
ENDBRANCH  11  19
BRANCH   1  36
HETATM   36  C2  UNL     1       8.138   6.811  15.807  1.00  0.00    -0.028 C 
HETATM   37  C1  UNL     1       7.700   5.558  15.737  1.00  0.00     0.007 C 
ENDBRANCH   1  36
TORSDOF 10
ENDMDL
