MODEL 1
REMARK VINA RESULT: -8.147373603      0.000      0.000
REMARK  7 active torsions:
REMARK  status: ('A' for Active; 'I' for Inactive)
REMARK    1  A    between atoms: C2_6  and  C3_7 
REMARK    2  A    between atoms: N4_8  and  N5_10 
REMARK    3  A    between atoms: N5_10  and  C4_12 
REMARK    4  A    between atoms: C4_12  and  C5_13 
REMARK    5  A    between atoms: C5_13  and  C6_17 
REMARK    6  A    between atoms: C7_20  and  N8_21 
REMARK    7  A    between atoms: C9_30  and  C10_31 
ROOT
HETATM    1  C6  UNL     1      12.574 -10.903 -11.841  1.00  0.00     0.090 A 
HETATM    2  N7  UNL     1      13.014 -10.211 -12.962  1.00  0.00    -0.189 N 
ATOM      3  H7  UNL     1      13.986 -10.323 -13.249  1.00  0.00     0.184 HD
HETATM    4  C7  UNL     1      12.230  -9.407 -13.681  1.00  0.00     0.678 A 
HETATM    5  N9  UNL     1      10.945  -9.237 -13.331  1.00  0.00    -0.176 N 
ATOM      6  H9  UNL     1      10.355  -8.620 -13.888  1.00  0.00     0.186 HD
HETATM    7  C8  UNL     1      10.422  -9.857 -12.270  1.00  0.00     0.131 A 
HETATM    8  N10 UNL     1       9.188  -9.708 -11.921  1.00  0.00    -0.384 N 
ATOM      9 1H10 UNL     1       8.788 -10.181 -11.111  1.00  0.00     0.157 HD
ATOM     10 2H10 UNL     1       8.572  -9.098 -12.457  1.00  0.00     0.157 HD
HETATM   11  C9  UNL     1      11.276 -10.703 -11.526  1.00  0.00     0.084 A 
ENDROOT
BRANCH   1  12
HETATM   12  C5  UNL     1      13.523 -11.752 -11.146  1.00  0.00     0.051 C 
HETATM   13  N6  UNL     1      14.188 -11.155 -10.180  1.00  0.00    -0.399 N 
ATOM     14  H62 UNL     1      14.856 -11.752  -9.692  1.00  0.00     0.156 HD
ATOM     15  H61 UNL     1      13.953 -10.181  -9.986  1.00  0.00     0.156 HD
BRANCH  12  16
HETATM   16  C4  UNL     1      13.857 -13.130 -11.421  1.00  0.00     0.198 C 
BRANCH  16  17
HETATM   17  N5  UNL     1      12.831 -13.740 -12.291  1.00  0.00    -0.331 N 
ATOM     18  H5  UNL     1      11.862 -13.779 -11.974  1.00  0.00     0.180 HD
BRANCH  17  19
HETATM   19  N4  UNL     1      13.163 -14.263 -13.536  1.00  0.00    -0.312 N 
HETATM   20  C3  UNL     1      13.940 -13.708 -14.380  1.00  0.00     0.157 C 
ATOM     21  H4  UNL     1      12.754 -15.160 -13.794  1.00  0.00     0.185 HD
BRANCH  20  22
HETATM   22  C2  UNL     1      14.184 -14.391 -15.644  1.00  0.00     0.151 A 
HETATM   23  N3  UNL     1      13.600 -14.144 -16.829  1.00  0.00    -0.266 N 
HETATM   24  N2  UNL     1      14.098 -14.981 -17.724  1.00  0.00    -0.003 NA
ATOM     25  H3  UNL     1      12.893 -13.431 -17.009  1.00  0.00     0.186 HD
HETATM   26  N1  UNL     1      14.995 -15.773 -17.162  1.00  0.00    -0.221 N 
HETATM   27  C1  UNL     1      15.757 -16.820 -17.823  1.00  0.00     0.197 C 
HETATM   28  N15 UNL     1      15.041 -15.405 -15.892  1.00  0.00    -0.269 N 
ATOM     29  H15 UNL     1      15.646 -15.832 -15.191  1.00  0.00     0.190 HD
ENDBRANCH  20  22
ENDBRANCH  17  19
ENDBRANCH  16  17
ENDBRANCH  12  16
ENDBRANCH   1  12
BRANCH  11  30
HETATM   30  C10 UNL     1      10.604 -11.313 -10.400  1.00  0.00     0.153 A 
HETATM   31  N11 UNL     1      10.600 -10.928  -9.111  1.00  0.00    -0.268 N 
HETATM   32  N12 UNL     1       9.930 -11.804  -8.389  1.00  0.00    -0.227 N 
ATOM     33  H11 UNL     1      11.047 -10.087  -8.748  1.00  0.00     0.190 HD
HETATM   34  N13 UNL     1       9.498 -12.749  -9.178  1.00  0.00    -0.227 N 
ATOM     35  H12 UNL     1       9.775 -11.751  -7.382  1.00  0.00     0.210 HD
HETATM   36  N14 UNL     1       9.891 -12.480 -10.410  1.00  0.00    -0.268 N 
ATOM     37  H13 UNL     1       8.949 -13.560  -8.892  1.00  0.00     0.210 HD
ATOM     38  H14 UNL     1       9.696 -13.048 -11.234  1.00  0.00     0.190 HD
ENDBRANCH  11  30
BRANCH   4  39
HETATM   39  N8  UNL     1      12.736  -8.809 -14.704  1.00  0.00    -0.234 N 
ATOM     40  H82 UNL     1      13.713  -8.938 -14.970  1.00  0.00     0.174 HD
ATOM     41  H81 UNL     1      12.136  -8.193 -15.254  1.00  0.00     0.174 HD
ENDBRANCH   4  39
TORSDOF 7
ENDMDL
MODEL 2
REMARK VINA RESULT: -7.944879230      2.639      5.130
REMARK  7 active torsions:
REMARK  status: ('A' for Active; 'I' for Inactive)
REMARK    1  A    between atoms: C2_6  and  C3_7 
REMARK    2  A    between atoms: N4_8  and  N5_10 
REMARK    3  A    between atoms: N5_10  and  C4_12 
REMARK    4  A    between atoms: C4_12  and  C5_13 
REMARK    5  A    between atoms: C5_13  and  C6_17 
REMARK    6  A    between atoms: C7_20  and  N8_21 
REMARK    7  A    between atoms: C9_30  and  C10_31 
ROOT
HETATM    1  C6  UNL     1      11.742  -7.876 -12.369  1.00  0.00     0.090 A 
HETATM    2  N7  UNL     1      11.287  -7.795 -11.058  1.00  0.00    -0.189 N 
ATOM      3  H7  UNL     1      10.984  -8.652 -10.598  1.00  0.00     0.184 HD
HETATM    4  C7  UNL     1      11.227  -6.653 -10.373  1.00  0.00     0.678 A 
HETATM    5  N9  UNL     1      11.619  -5.505 -10.949  1.00  0.00    -0.176 N 
ATOM      6  H9  UNL     1      11.568  -4.638 -10.415  1.00  0.00     0.186 HD
HETATM    7  C8  UNL     1      12.073  -5.473 -12.205  1.00  0.00     0.131 A 
HETATM    8  N10 UNL     1      12.456  -4.379 -12.774  1.00  0.00    -0.384 N 
ATOM      9 1H10 UNL     1      12.802  -4.354 -13.732  1.00  0.00     0.157 HD
ATOM     10 2H10 UNL     1      12.418  -3.495 -12.267  1.00  0.00     0.157 HD
HETATM   11  C9  UNL     1      12.125  -6.699 -12.908  1.00  0.00     0.084 A 
ENDROOT
BRANCH   1  12
HETATM   12  C5  UNL     1      11.764  -9.179 -13.005  1.00  0.00     0.051 C 
HETATM   13  N6  UNL     1      10.579  -9.729 -13.171  1.00  0.00    -0.399 N 
ATOM     14  H62 UNL     1      10.595 -10.645 -13.618  1.00  0.00     0.156 HD
ATOM     15  H61 UNL     1       9.768  -9.183 -12.879  1.00  0.00     0.156 HD
BRANCH  12  16
HETATM   16  C4  UNL     1      12.912  -9.952 -13.418  1.00  0.00     0.198 C 
BRANCH  16  17
HETATM   17  N5  UNL     1      12.589 -11.393 -13.406  1.00  0.00    -0.331 N 
ATOM     18  H5  UNL     1      11.728 -11.711 -12.961  1.00  0.00     0.180 HD
BRANCH  17  19
HETATM   19  N4  UNL     1      13.440 -12.324 -13.990  1.00  0.00    -0.312 N 
HETATM   20  C3  UNL     1      13.586 -13.529 -13.601  1.00  0.00     0.157 C 
ATOM     21  H4  UNL     1      13.991 -12.020 -14.793  1.00  0.00     0.185 HD
BRANCH  20  22
HETATM   22  C2  UNL     1      14.522 -14.378 -14.327  1.00  0.00     0.151 A 
HETATM   23  N3  UNL     1      15.778 -14.697 -13.968  1.00  0.00    -0.266 N 
HETATM   24  N2  UNL     1      16.291 -15.488 -14.895  1.00  0.00    -0.003 NA
ATOM     25  H3  UNL     1      16.256 -14.381 -13.123  1.00  0.00     0.186 HD
HETATM   26  N1  UNL     1      15.408 -15.702 -15.855  1.00  0.00    -0.221 N 
HETATM   27  C1  UNL     1      15.604 -16.519 -17.041  1.00  0.00     0.197 C 
HETATM   28  N15 UNL     1      14.331 -15.021 -15.500  1.00  0.00    -0.269 N 
ATOM     29  H15 UNL     1      13.467 -14.985 -16.041  1.00  0.00     0.190 HD
ENDBRANCH  20  22
ENDBRANCH  17  19
ENDBRANCH  16  17
ENDBRANCH  12  16
ENDBRANCH   1  12
BRANCH  11  30
HETATM   30  C10 UNL     1      12.625  -6.540 -14.257  1.00  0.00     0.153 A 
HETATM   31  N11 UNL     1      13.897  -6.563 -14.691  1.00  0.00    -0.268 N 
HETATM   32  N12 UNL     1      13.930  -6.297 -15.981  1.00  0.00    -0.227 N 
ATOM     33  H11 UNL     1      14.713  -6.756 -14.110  1.00  0.00     0.190 HD
HETATM   34  N13 UNL     1      12.707  -6.101 -16.396  1.00  0.00    -0.227 N 
ATOM     35  H12 UNL     1      14.769  -6.251 -16.559  1.00  0.00     0.210 HD
HETATM   36  N14 UNL     1      11.889  -6.243 -15.369  1.00  0.00    -0.268 N 
ATOM     37  H13 UNL     1      12.431  -5.877 -17.352  1.00  0.00     0.210 HD
ATOM     38  H14 UNL     1      10.874  -6.146 -15.401  1.00  0.00     0.190 HD
ENDBRANCH  11  30
BRANCH   4  39
HETATM   39  N8  UNL     1      10.789  -6.685  -9.162  1.00  0.00    -0.234 N 
ATOM     40  H82 UNL     1      10.866  -7.525  -8.588  1.00  0.00     0.174 HD
ATOM     41  H81 UNL     1      10.356  -5.844  -8.778  1.00  0.00     0.174 HD
ENDBRANCH   4  39
TORSDOF 7
ENDMDL
MODEL 3
REMARK VINA RESULT: -7.760981801      1.200      1.387
REMARK  7 active torsions:
REMARK  status: ('A' for Active; 'I' for Inactive)
REMARK    1  A    between atoms: C2_6  and  C3_7 
REMARK    2  A    between atoms: N4_8  and  N5_10 
REMARK    3  A    between atoms: N5_10  and  C4_12 
REMARK    4  A    between atoms: C4_12  and  C5_13 
REMARK    5  A    between atoms: C5_13  and  C6_17 
REMARK    6  A    between atoms: C7_20  and  N8_21 
REMARK    7  A    between atoms: C9_30  and  C10_31 
ROOT
HETATM    1  C6  UNL     1      12.536  -9.850 -11.273  1.00  0.00     0.090 A 
HETATM    2  N7  UNL     1      12.891  -8.707 -11.979  1.00  0.00    -0.189 N 
ATOM      3  H7  UNL     1      13.855  -8.613 -12.296  1.00  0.00     0.184 HD
HETATM    4  C7  UNL     1      12.034  -7.726 -12.262  1.00  0.00     0.678 A 
HETATM    5  N9  UNL     1      10.755  -7.817 -11.861  1.00  0.00    -0.176 N 
ATOM      6  H9  UNL     1      10.109  -7.060 -12.083  1.00  0.00     0.186 HD
HETATM    7  C8  UNL     1      10.311  -8.875 -11.177  1.00  0.00     0.131 A 
HETATM    8  N10 UNL     1       9.085  -8.980 -10.785  1.00  0.00    -0.384 N 
ATOM      9 1H10 UNL     1       8.746  -9.787 -10.262  1.00  0.00     0.157 HD
ATOM     10 2H10 UNL     1       8.414  -8.241 -10.991  1.00  0.00     0.157 HD
HETATM   11  C9  UNL     1      11.242  -9.899 -10.890  1.00  0.00     0.084 A 
ENDROOT
BRANCH   1  12
HETATM   12  C5  UNL     1      13.560 -10.849 -11.033  1.00  0.00     0.051 C 
HETATM   13  N6  UNL     1      14.284 -10.644  -9.954  1.00  0.00    -0.399 N 
ATOM     14  H62 UNL     1      15.004 -11.347  -9.785  1.00  0.00     0.156 HD
ATOM     15  H61 UNL     1      14.039  -9.840  -9.376  1.00  0.00     0.156 HD
BRANCH  12  16
HETATM   16  C4  UNL     1      13.906 -11.987 -11.852  1.00  0.00     0.198 C 
BRANCH  16  17
HETATM   17  N5  UNL     1      12.984 -12.090 -13.001  1.00  0.00    -0.331 N 
ATOM     18  H5  UNL     1      12.057 -11.667 -12.940  1.00  0.00     0.180 HD
BRANCH  17  19
HETATM   19  N4  UNL     1      13.357 -12.753 -14.165  1.00  0.00    -0.312 N 
HETATM   20  C3  UNL     1      13.599 -14.000 -14.251  1.00  0.00     0.157 C 
ATOM     21  H4  UNL     1      13.444 -12.197 -15.016  1.00  0.00     0.185 HD
BRANCH  20  22
HETATM   22  C2  UNL     1      13.980 -14.539 -15.550  1.00  0.00     0.151 A 
HETATM   23  N3  UNL     1      13.566 -14.121 -16.759  1.00  0.00    -0.266 N 
HETATM   24  N2  UNL     1      14.144 -14.871 -17.683  1.00  0.00    -0.003 NA
ATOM     25  H3  UNL     1      12.915 -13.355 -16.935  1.00  0.00     0.186 HD
HETATM   26  N1  UNL     1      14.930 -15.771 -17.117  1.00  0.00    -0.221 N 
HETATM   27  C1  UNL     1      15.732 -16.770 -17.804  1.00  0.00     0.197 C 
HETATM   28  N15 UNL     1      14.824 -15.561 -15.816  1.00  0.00    -0.269 N 
ATOM     29  H15 UNL     1      15.316 -16.100 -15.104  1.00  0.00     0.190 HD
ENDBRANCH  20  22
ENDBRANCH  17  19
ENDBRANCH  16  17
ENDBRANCH  12  16
ENDBRANCH   1  12
BRANCH  11  30
HETATM   30  C10 UNL     1      10.651 -10.988 -10.141  1.00  0.00     0.153 A 
HETATM   31  N11 UNL     1      10.113 -12.131 -10.600  1.00  0.00    -0.268 N 
HETATM   32  N12 UNL     1       9.610 -12.819  -9.594  1.00  0.00    -0.227 N 
ATOM     33  H11 UNL     1      10.096 -12.422 -11.577  1.00  0.00     0.190 HD
HETATM   34  N13 UNL     1       9.809 -12.149  -8.492  1.00  0.00    -0.227 N 
ATOM     35  H12 UNL     1       9.144 -13.723  -9.666  1.00  0.00     0.210 HD
HETATM   36  N14 UNL     1      10.442 -11.029  -8.791  1.00  0.00    -0.268 N 
ATOM     37  H13 UNL     1       9.525 -12.441  -7.557  1.00  0.00     0.210 HD
ATOM     38  H14 UNL     1      10.727 -10.312  -8.124  1.00  0.00     0.190 HD
ENDBRANCH  11  30
BRANCH   4  39
HETATM   39  N8  UNL     1      12.463  -6.706 -12.922  1.00  0.00    -0.234 N 
ATOM     40  H82 UNL     1      13.103  -6.030 -12.505  1.00  0.00     0.174 HD
ATOM     41  H81 UNL     1      12.146  -6.581 -13.884  1.00  0.00     0.174 HD
ENDBRANCH   4  39
TORSDOF 7
ENDMDL
MODEL 4
REMARK VINA RESULT: -7.756760460      1.537      1.927
REMARK  7 active torsions:
REMARK  status: ('A' for Active; 'I' for Inactive)
REMARK    1  A    between atoms: C2_6  and  C3_7 
REMARK    2  A    between atoms: N4_8  and  N5_10 
REMARK    3  A    between atoms: N5_10  and  C4_12 
REMARK    4  A    between atoms: C4_12  and  C5_13 
REMARK    5  A    between atoms: C5_13  and  C6_17 
REMARK    6  A    between atoms: C7_20  and  N8_21 
REMARK    7  A    between atoms: C9_30  and  C10_31 
ROOT
HETATM    1  C6  UNL     1      11.791 -10.211 -12.773  1.00  0.00     0.090 A 
HETATM    2  N7  UNL     1      12.508  -9.963 -13.938  1.00  0.00    -0.189 N 
ATOM      3  H7  UNL     1      12.979 -10.744 -14.392  1.00  0.00     0.184 HD
HETATM    4  C7  UNL     1      12.610  -8.754 -14.491  1.00  0.00     0.678 A 
HETATM    5  N9  UNL     1      12.001  -7.703 -13.920  1.00  0.00    -0.176 N 
ATOM      6  H9  UNL     1      12.087  -6.783 -14.352  1.00  0.00     0.186 HD
HETATM    7  C8  UNL     1      11.287  -7.833 -12.799  1.00  0.00     0.131 A 
HETATM    8  N10 UNL     1      10.693  -6.834 -12.237  1.00  0.00    -0.384 N 
ATOM      9 1H10 UNL     1      10.148  -6.933 -11.381  1.00  0.00     0.157 HD
ATOM     10 2H10 UNL     1      10.759  -5.901 -12.644  1.00  0.00     0.157 HD
HETATM   11  C9  UNL     1      11.197  -9.126 -12.234  1.00  0.00     0.084 A 
ENDROOT
BRANCH   1  12
HETATM   12  C5  UNL     1      11.751 -11.572 -12.274  1.00  0.00     0.051 C 
HETATM   13  N6  UNL     1      10.553 -12.118 -12.264  1.00  0.00    -0.399 N 
ATOM     14  H62 UNL     1      10.526 -13.075 -11.913  1.00  0.00     0.156 HD
ATOM     15  H61 UNL     1       9.785 -11.560 -12.637  1.00  0.00     0.156 HD
BRANCH  12  16
HETATM   16  C4  UNL     1      12.839 -12.362 -11.746  1.00  0.00     0.198 C 
BRANCH  16  17
HETATM   17  N5  UNL     1      12.654 -13.785 -12.095  1.00  0.00    -0.331 N 
ATOM     18  H5  UNL     1      12.244 -14.420 -11.410  1.00  0.00     0.180 HD
BRANCH  17  19
HETATM   19  N4  UNL     1      13.029 -14.273 -13.342  1.00  0.00    -0.312 N 
HETATM   20  C3  UNL     1      13.888 -13.732 -14.111  1.00  0.00     0.157 C 
ATOM     21  H4  UNL     1      12.582 -15.131 -13.665  1.00  0.00     0.185 HD
BRANCH  20  22
HETATM   22  C2  UNL     1      14.167 -14.374 -15.390  1.00  0.00     0.151 A 
HETATM   23  N3  UNL     1      13.651 -14.058 -16.590  1.00  0.00    -0.266 N 
HETATM   24  N2  UNL     1      14.159 -14.878 -17.495  1.00  0.00    -0.003 NA
ATOM     25  H3  UNL     1      12.980 -13.311 -16.772  1.00  0.00     0.186 HD
HETATM   26  N1  UNL     1      14.998 -15.726 -16.925  1.00  0.00    -0.221 N 
HETATM   27  C1  UNL     1      15.750 -16.775 -17.592  1.00  0.00     0.197 C 
HETATM   28  N15 UNL     1      14.997 -15.411 -15.640  1.00  0.00    -0.269 N 
ATOM     29  H15 UNL     1      15.551 -15.889 -14.930  1.00  0.00     0.190 HD
ENDBRANCH  20  22
ENDBRANCH  17  19
ENDBRANCH  16  17
ENDBRANCH  12  16
ENDBRANCH   1  12
BRANCH  11  30
HETATM   30  C10 UNL     1      10.406  -9.144 -11.022  1.00  0.00     0.153 A 
HETATM   31  N11 UNL     1      10.823  -9.102  -9.744  1.00  0.00    -0.268 N 
HETATM   32  N12 UNL     1       9.788  -9.222  -8.936  1.00  0.00    -0.227 N 
ATOM     33  H11 UNL     1      11.792  -8.994  -9.445  1.00  0.00     0.190 HD
HETATM   34  N13 UNL     1       8.708  -9.340  -9.660  1.00  0.00    -0.227 N 
ATOM     35  H12 UNL     1       9.825  -9.221  -7.917  1.00  0.00     0.210 HD
HETATM   36  N14 UNL     1       9.051  -9.296 -10.935  1.00  0.00    -0.268 N 
ATOM     37  H13 UNL     1       7.760  -9.449  -9.301  1.00  0.00     0.210 HD
ATOM     38  H14 UNL     1       8.409  -9.365 -11.725  1.00  0.00     0.190 HD
ENDBRANCH  11  30
BRANCH   4  39
HETATM   39  N8  UNL     1      13.299  -8.629 -15.573  1.00  0.00    -0.234 N 
ATOM     40  H82 UNL     1      14.165  -8.090 -15.596  1.00  0.00     0.174 HD
ATOM     41  H81 UNL     1      12.961  -9.085 -16.421  1.00  0.00     0.174 HD
ENDBRANCH   4  39
TORSDOF 7
ENDMDL
MODEL 5
REMARK VINA RESULT: -7.687366132      2.431      4.770
REMARK  7 active torsions:
REMARK  status: ('A' for Active; 'I' for Inactive)
REMARK    1  A    between atoms: C2_6  and  C3_7 
REMARK    2  A    between atoms: N4_8  and  N5_10 
REMARK    3  A    between atoms: N5_10  and  C4_12 
REMARK    4  A    between atoms: C4_12  and  C5_13 
REMARK    5  A    between atoms: C5_13  and  C6_17 
REMARK    6  A    between atoms: C7_20  and  N8_21 
REMARK    7  A    between atoms: C9_30  and  C10_31 
ROOT
HETATM    1  C6  UNL     1      12.815  -8.489 -12.491  1.00  0.00     0.090 A 
HETATM    2  N7  UNL     1      13.122  -8.627 -11.143  1.00  0.00    -0.189 N 
ATOM      3  H7  UNL     1      13.124  -9.563 -10.740  1.00  0.00     0.184 HD
HETATM    4  C7  UNL     1      13.414  -7.596 -10.349  1.00  0.00     0.678 A 
HETATM    5  N9  UNL     1      13.422  -6.349 -10.847  1.00  0.00    -0.176 N 
ATOM      6  H9  UNL     1      13.648  -5.569 -10.230  1.00  0.00     0.186 HD
HETATM    7  C8  UNL     1      13.142  -6.107 -12.130  1.00  0.00     0.131 A 
HETATM    8  N10 UNL     1      13.147  -4.915 -12.626  1.00  0.00    -0.384 N 
ATOM      9 1H10 UNL     1      12.933  -4.730 -13.606  1.00  0.00     0.157 HD
ATOM     10 2H10 UNL     1      13.368  -4.113 -12.036  1.00  0.00     0.157 HD
HETATM   11  C9  UNL     1      12.834  -7.219 -12.948  1.00  0.00     0.084 A 
ENDROOT
BRANCH   1  12
HETATM   12  C5  UNL     1      12.519  -9.689 -13.250  1.00  0.00     0.051 C 
HETATM   13  N6  UNL     1      12.998  -9.695 -14.476  1.00  0.00    -0.399 N 
ATOM     14  H62 UNL     1      12.790 -10.539 -15.009  1.00  0.00     0.156 HD
ATOM     15  H61 UNL     1      13.555  -8.889 -14.761  1.00  0.00     0.156 HD
BRANCH  12  16
HETATM   16  C4  UNL     1      11.730 -10.829 -12.846  1.00  0.00     0.198 C 
BRANCH  16  17
HETATM   17  N5  UNL     1      12.592 -12.020 -12.698  1.00  0.00    -0.331 N 
ATOM     18  H5  UNL     1      12.951 -12.269 -11.777  1.00  0.00     0.180 HD
BRANCH  17  19
HETATM   19  N4  UNL     1      12.922 -12.808 -13.796  1.00  0.00    -0.312 N 
HETATM   20  C3  UNL     1      14.099 -13.193 -14.092  1.00  0.00     0.157 C 
ATOM     21  H4  UNL     1      12.162 -13.100 -14.410  1.00  0.00     0.185 HD
BRANCH  20  22
HETATM   22  C2  UNL     1      14.274 -14.017 -15.282  1.00  0.00     0.151 A 
HETATM   23  N3  UNL     1      13.725 -13.825 -16.494  1.00  0.00    -0.266 N 
HETATM   24  N2  UNL     1      14.134 -14.793 -17.298  1.00  0.00    -0.003 NA
ATOM     25  H3  UNL     1      13.100 -13.061 -16.751  1.00  0.00     0.186 HD
HETATM   26  N1  UNL     1      14.938 -15.619 -16.649  1.00  0.00    -0.221 N 
HETATM   27  C1  UNL     1      15.585 -16.800 -17.196  1.00  0.00     0.197 C 
HETATM   28  N15 UNL     1      15.018 -15.137 -15.420  1.00  0.00    -0.269 N 
ATOM     29  H15 UNL     1      15.570 -15.556 -14.672  1.00  0.00     0.190 HD
ENDBRANCH  20  22
ENDBRANCH  17  19
ENDBRANCH  16  17
ENDBRANCH  12  16
ENDBRANCH   1  12
BRANCH  11  30
HETATM   30  C10 UNL     1      12.542  -6.835 -14.312  1.00  0.00     0.153 A 
HETATM   31  N11 UNL     1      13.398  -6.545 -15.308  1.00  0.00    -0.268 N 
HETATM   32  N12 UNL     1      12.724  -6.162 -16.374  1.00  0.00    -0.227 N 
ATOM     33  H11 UNL     1      14.414  -6.610 -15.247  1.00  0.00     0.190 HD
HETATM   34  N13 UNL     1      11.450  -6.198 -16.095  1.00  0.00    -0.227 N 
ATOM     35  H12 UNL     1      13.131  -5.886 -17.268  1.00  0.00     0.210 HD
HETATM   36  N14 UNL     1      11.305  -6.604 -14.847  1.00  0.00    -0.268 N 
ATOM     37  H13 UNL     1      10.693  -5.952 -16.733  1.00  0.00     0.210 HD
ATOM     38  H14 UNL     1      10.417  -6.725 -14.361  1.00  0.00     0.190 HD
ENDBRANCH  11  30
BRANCH   4  39
HETATM   39  N8  UNL     1      13.685  -7.831  -9.111  1.00  0.00    -0.234 N 
ATOM     40  H82 UNL     1      13.854  -7.074  -8.449  1.00  0.00     0.174 HD
ATOM     41  H81 UNL     1      13.729  -8.801  -8.798  1.00  0.00     0.174 HD
ENDBRANCH   4  39
TORSDOF 7
ENDMDL
