MODEL 1
REMARK VINA RESULT: -9.255249451      0.000      0.000
REMARK  7 active torsions:
REMARK  status: ('A' for Active; 'I' for Inactive)
REMARK       I    between atoms: C1_2  and  N2_3 
REMARK       I    between atoms: C1_2  and  N5_20 
REMARK    1  A    between atoms: N2_3  and  N3_4 
REMARK    2  A    between atoms: C2_6  and  C3_7 
REMARK    3  A    between atoms: C5_9  and  O1_10 
REMARK    4  A    between atoms: C6_12  and  O2_13 
REMARK    5  A    between atoms: C7_15  and  N4_16 
REMARK    6  A    between atoms: N5_20  and  C9_22 
REMARK    7  A    between atoms: C9_22  and  C10_23 
ROOT
HETATM    1  N1  UNL     1      10.985  -9.433 -11.143  1.00  0.00    -0.047 NA
HETATM    2  C1  UNL     1      12.006  -9.657 -12.182  1.00  0.00     0.287 C 
HETATM    3  N2  UNL     1      12.062 -10.779 -12.500  1.00  0.00    -0.292 NA
HETATM    4  N5  UNL     1      12.793  -8.582 -12.661  1.00  0.00    -0.319 N 
ATOM      5  H5  UNL     1      13.780  -8.810 -12.777  1.00  0.00     0.166 HD
ENDROOT
BRANCH   3   6
HETATM    6  N3  UNL     1      12.459 -11.943 -13.146  1.00  0.00    -0.243 N 
HETATM    7  C2  UNL     1      13.678 -12.144 -13.445  1.00  0.00     0.132 C 
ATOM      8  H3  UNL     1      11.761 -12.648 -13.385  1.00  0.00     0.201 HD
BRANCH   7   9
HETATM    9  C3  UNL     1      14.384 -13.206 -14.079  1.00  0.00    -0.013 A 
HETATM   10  C4  UNL     1      15.483 -13.881 -13.563  1.00  0.00     0.052 A 
HETATM   11  C5  UNL     1      16.130 -14.875 -14.281  1.00  0.00     0.102 A 
HETATM   12  C6  UNL     1      15.689 -15.241 -15.574  1.00  0.00     0.132 A 
HETATM   13  C7  UNL     1      14.602 -14.604 -16.118  1.00  0.00     0.139 A 
HETATM   14  C8  UNL     1      13.983 -13.607 -15.367  1.00  0.00     0.052 A 
BRANCH  11  15
HETATM   15  O1  UNL     1      17.241 -15.538 -13.756  1.00  0.00    -0.358 OA
ATOM     16  H1  UNL     1      17.543 -16.359 -14.127  1.00  0.00     0.217 HD
ENDBRANCH  11  15
BRANCH  12  17
HETATM   17  O2  UNL     1      16.375 -16.224 -16.245  1.00  0.00    -0.356 OA
ATOM     18  H2  UNL     1      16.682 -16.041 -17.125  1.00  0.00     0.218 HD
ENDBRANCH  12  17
BRANCH  13  19
HETATM   19  N4  UNL     1      14.062 -14.886 -17.408  1.00  0.00    -0.113 N 
HETATM   20  O3  UNL     1      13.216 -14.112 -17.931  1.00  0.00    -0.532 OA
HETATM   21  O4  UNL     1      14.409 -15.968 -18.125  1.00  0.00    -0.532 OA
ENDBRANCH  13  19
ENDBRANCH   7   9
ENDBRANCH   3   6
BRANCH   4  22
HETATM   22  C9  UNL     1      12.465  -7.252 -13.007  1.00  0.00     0.197 C 
HETATM   23  C11 UNL     1      10.970  -7.007 -12.580  1.00  0.00     0.189 C 
HETATM   24  N10 UNL     1      11.456  -5.696 -12.280  1.00  0.00    -0.141 NA
HETATM   25  N11 UNL     1      12.717  -6.225 -12.023  1.00  0.00    -0.106 NA
BRANCH  22  26
HETATM   26  C10 UNL     1      12.641  -6.770 -14.411  1.00  0.00     0.161 A 
HETATM   27  N6  UNL     1      13.651  -6.174 -15.000  1.00  0.00    -0.269 N 
HETATM   28  N7  UNL     1      13.307  -5.906 -16.239  1.00  0.00    -0.227 N 
ATOM     29  H6  UNL     1      14.549  -5.955 -14.569  1.00  0.00     0.190 HD
HETATM   30  N8  UNL     1      12.090  -6.338 -16.436  1.00  0.00    -0.227 N 
ATOM     31  H7  UNL     1      13.893  -5.439 -16.932  1.00  0.00     0.210 HD
HETATM   32  N9  UNL     1      11.650  -6.874 -15.339  1.00  0.00    -0.269 N 
ATOM     33  H8  UNL     1      11.570  -6.266 -17.310  1.00  0.00     0.210 HD
ATOM     34  H9  UNL     1      10.731  -7.295 -15.198  1.00  0.00     0.190 HD
ENDBRANCH  22  26
ENDBRANCH   4  22
TORSDOF 7
ENDMDL
MODEL 2
REMARK VINA RESULT: -8.990878535      4.456      8.685
REMARK  7 active torsions:
REMARK  status: ('A' for Active; 'I' for Inactive)
REMARK       I    between atoms: C1_2  and  N2_3 
REMARK       I    between atoms: C1_2  and  N5_20 
REMARK    1  A    between atoms: N2_3  and  N3_4 
REMARK    2  A    between atoms: C2_6  and  C3_7 
REMARK    3  A    between atoms: C5_9  and  O1_10 
REMARK    4  A    between atoms: C6_12  and  O2_13 
REMARK    5  A    between atoms: C7_15  and  N4_16 
REMARK    6  A    between atoms: N5_20  and  C9_22 
REMARK    7  A    between atoms: C9_22  and  C10_23 
ROOT
HETATM    1  N1  UNL     1      13.553 -14.101 -12.668  1.00  0.00    -0.047 NA
HETATM    2  C1  UNL     1      13.219 -13.186 -13.774  1.00  0.00     0.287 C 
HETATM    3  N2  UNL     1      12.901 -12.132 -13.384  1.00  0.00    -0.292 NA
HETATM    4  N5  UNL     1      13.286 -13.627 -15.117  1.00  0.00    -0.319 N 
ATOM      5  H5  UNL     1      12.503 -13.320 -15.694  1.00  0.00     0.166 HD
ENDROOT
BRANCH   3   6
HETATM    6  N3  UNL     1      12.474 -10.810 -13.370  1.00  0.00    -0.243 N 
HETATM    7  C2  UNL     1      12.974  -9.951 -14.162  1.00  0.00     0.132 C 
ATOM      8  H3  UNL     1      11.747 -10.525 -12.713  1.00  0.00     0.201 HD
BRANCH   7   9
HETATM    9  C3  UNL     1      12.751  -8.565 -14.394  1.00  0.00    -0.013 A 
HETATM   10  C4  UNL     1      13.300  -7.807 -15.421  1.00  0.00     0.052 A 
HETATM   11  C5  UNL     1      13.055  -6.447 -15.534  1.00  0.00     0.102 A 
HETATM   12  C6  UNL     1      12.228  -5.779 -14.602  1.00  0.00     0.132 A 
HETATM   13  C7  UNL     1      11.659  -6.491 -13.577  1.00  0.00     0.139 A 
HETATM   14  C8  UNL     1      11.934  -7.854 -13.494  1.00  0.00     0.052 A 
BRANCH  11  15
HETATM   15  O1  UNL     1      13.622  -5.695 -16.564  1.00  0.00    -0.358 OA
ATOM     16  H1  UNL     1      14.027  -6.115 -17.314  1.00  0.00     0.217 HD
ENDBRANCH  11  15
BRANCH  12  17
HETATM   17  O2  UNL     1      12.028  -4.428 -14.757  1.00  0.00    -0.356 OA
ATOM     18  H2  UNL     1      11.155  -4.082 -14.619  1.00  0.00     0.218 HD
ENDBRANCH  12  17
BRANCH  13  19
HETATM   19  N4  UNL     1      10.806  -5.931 -12.579  1.00  0.00    -0.113 N 
HETATM   20  O3  UNL     1      10.192  -4.851 -12.796  1.00  0.00    -0.532 OA
HETATM   21  O4  UNL     1      10.612  -6.501 -11.379  1.00  0.00    -0.532 OA
ENDBRANCH  13  19
ENDBRANCH   7   9
ENDBRANCH   3   6
BRANCH   4  22
HETATM   22  C9  UNL     1      14.234 -14.414 -15.808  1.00  0.00     0.197 C 
HETATM   23  C11 UNL     1      13.610 -15.846 -15.999  1.00  0.00     0.189 C 
HETATM   24  N10 UNL     1      14.310 -15.791 -17.246  1.00  0.00    -0.141 NA
HETATM   25  N11 UNL     1      14.185 -14.405 -17.251  1.00  0.00    -0.106 NA
BRANCH  22  26
HETATM   26  C10 UNL     1      15.621 -14.571 -15.273  1.00  0.00     0.161 A 
HETATM   27  N6  UNL     1      16.757 -14.030 -15.646  1.00  0.00    -0.269 N 
HETATM   28  N7  UNL     1      17.715 -14.519 -14.890  1.00  0.00    -0.227 N 
ATOM     29  H6  UNL     1      16.877 -13.348 -16.394  1.00  0.00     0.190 HD
HETATM   30  N8  UNL     1      17.187 -15.357 -14.038  1.00  0.00    -0.227 N 
ATOM     31  H7  UNL     1      18.705 -14.282 -14.957  1.00  0.00     0.210 HD
HETATM   32  N9  UNL     1      15.906 -15.414 -14.242  1.00  0.00    -0.269 N 
ATOM     33  H8  UNL     1      17.698 -15.882 -13.329  1.00  0.00     0.210 HD
ATOM     34  H9  UNL     1      15.236 -15.986 -13.726  1.00  0.00     0.190 HD
ENDBRANCH  22  26
ENDBRANCH   4  22
TORSDOF 7
ENDMDL
MODEL 3
REMARK VINA RESULT: -8.811828299      4.250      8.509
REMARK  7 active torsions:
REMARK  status: ('A' for Active; 'I' for Inactive)
REMARK       I    between atoms: C1_2  and  N2_3 
REMARK       I    between atoms: C1_2  and  N5_20 
REMARK    1  A    between atoms: N2_3  and  N3_4 
REMARK    2  A    between atoms: C2_6  and  C3_7 
REMARK    3  A    between atoms: C5_9  and  O1_10 
REMARK    4  A    between atoms: C6_12  and  O2_13 
REMARK    5  A    between atoms: C7_15  and  N4_16 
REMARK    6  A    between atoms: N5_20  and  C9_22 
REMARK    7  A    between atoms: C9_22  and  C10_23 
ROOT
HETATM    1  N1  UNL     1      13.635 -14.844 -12.781  1.00  0.00    -0.047 NA
HETATM    2  C1  UNL     1      13.028 -13.908 -13.743  1.00  0.00     0.287 C 
HETATM    3  N2  UNL     1      12.504 -13.013 -13.207  1.00  0.00    -0.292 NA
HETATM    4  N5  UNL     1      13.103 -14.158 -15.135  1.00  0.00    -0.319 N 
ATOM      5  H5  UNL     1      12.234 -13.977 -15.637  1.00  0.00     0.166 HD
ENDROOT
BRANCH   3   6
HETATM    6  N3  UNL     1      11.788 -11.840 -13.003  1.00  0.00    -0.243 N 
HETATM    7  C2  UNL     1      12.365 -10.708 -13.023  1.00  0.00     0.132 C 
ATOM      8  H3  UNL     1      10.783 -11.888 -12.835  1.00  0.00     0.201 HD
BRANCH   7   9
HETATM    9  C3  UNL     1      11.923  -9.364 -12.865  1.00  0.00    -0.013 A 
HETATM   10  C4  UNL     1      11.145  -8.875 -11.822  1.00  0.00     0.052 A 
HETATM   11  C5  UNL     1      10.727  -7.553 -11.782  1.00  0.00     0.102 A 
HETATM   12  C6  UNL     1      11.084  -6.649 -12.809  1.00  0.00     0.132 A 
HETATM   13  C7  UNL     1      11.857  -7.088 -13.854  1.00  0.00     0.139 A 
HETATM   14  C8  UNL     1      12.252  -8.424 -13.860  1.00  0.00     0.052 A 
BRANCH  11  15
HETATM   15  O1  UNL     1       9.937  -7.077 -10.736  1.00  0.00    -0.358 OA
ATOM     16  H1  UNL     1       9.476  -6.250 -10.805  1.00  0.00     0.217 HD
ENDBRANCH  11  15
BRANCH  12  17
HETATM   17  O2  UNL     1      10.632  -5.354 -12.725  1.00  0.00    -0.356 OA
ATOM     18  H2  UNL     1       9.910  -5.090 -13.282  1.00  0.00     0.218 HD
ENDBRANCH  12  17
BRANCH  13  19
HETATM   19  N4  UNL     1      12.283  -6.272 -14.944  1.00  0.00    -0.113 N 
HETATM   20  O3  UNL     1      12.164  -6.677 -16.131  1.00  0.00    -0.532 OA
HETATM   21  O4  UNL     1      12.827  -5.056 -14.777  1.00  0.00    -0.532 OA
ENDBRANCH  13  19
ENDBRANCH   7   9
ENDBRANCH   3   6
BRANCH   4  22
HETATM   22  C9  UNL     1      14.159 -14.612 -15.958  1.00  0.00     0.197 C 
HETATM   23  C11 UNL     1      13.798 -16.071 -16.425  1.00  0.00     0.189 C 
HETATM   24  N10 UNL     1      14.441 -15.652 -17.633  1.00  0.00    -0.141 NA
HETATM   25  N11 UNL     1      14.067 -14.337 -17.372  1.00  0.00    -0.106 NA
BRANCH  22  26
HETATM   26  C10 UNL     1      15.566 -14.611 -15.454  1.00  0.00     0.161 A 
HETATM   27  N6  UNL     1      16.586 -13.837 -15.741  1.00  0.00    -0.269 N 
HETATM   28  N7  UNL     1      17.631 -14.264 -15.069  1.00  0.00    -0.227 N 
ATOM     29  H6  UNL     1      16.570 -13.040 -16.377  1.00  0.00     0.190 HD
HETATM   30  N8  UNL     1      17.273 -15.297 -14.354  1.00  0.00    -0.227 N 
ATOM     31  H7  UNL     1      18.565 -13.856 -15.100  1.00  0.00     0.210 HD
HETATM   32  N9  UNL     1      16.014 -15.539 -14.563  1.00  0.00    -0.269 N 
ATOM     33  H8  UNL     1      17.882 -15.828 -13.733  1.00  0.00     0.210 HD
ATOM     34  H9  UNL     1      15.463 -16.285 -14.139  1.00  0.00     0.190 HD
ENDBRANCH  22  26
ENDBRANCH   4  22
TORSDOF 7
ENDMDL
MODEL 4
REMARK VINA RESULT: -8.800047843      4.497      8.668
REMARK  7 active torsions:
REMARK  status: ('A' for Active; 'I' for Inactive)
REMARK       I    between atoms: C1_2  and  N2_3 
REMARK       I    between atoms: C1_2  and  N5_20 
REMARK    1  A    between atoms: N2_3  and  N3_4 
REMARK    2  A    between atoms: C2_6  and  C3_7 
REMARK    3  A    between atoms: C5_9  and  O1_10 
REMARK    4  A    between atoms: C6_12  and  O2_13 
REMARK    5  A    between atoms: C7_15  and  N4_16 
REMARK    6  A    between atoms: N5_20  and  C9_22 
REMARK    7  A    between atoms: C9_22  and  C10_23 
ROOT
HETATM    1  N1  UNL     1      12.481 -14.356 -13.978  1.00  0.00    -0.047 NA
HETATM    2  C1  UNL     1      13.464 -13.259 -13.913  1.00  0.00     0.287 C 
HETATM    3  N2  UNL     1      13.094 -12.385 -13.234  1.00  0.00    -0.292 NA
HETATM    4  N5  UNL     1      14.677 -13.337 -14.639  1.00  0.00    -0.319 N 
ATOM      5  H5  UNL     1      14.939 -12.468 -15.103  1.00  0.00     0.166 HD
ENDROOT
BRANCH   3   6
HETATM    6  N3  UNL     1      13.056 -11.171 -12.559  1.00  0.00    -0.243 N 
HETATM    7  C2  UNL     1      13.099 -10.068 -13.191  1.00  0.00     0.132 C 
ATOM      8  H3  UNL     1      12.993 -11.164 -11.541  1.00  0.00     0.201 HD
BRANCH   7   9
HETATM    9  C3  UNL     1      13.069  -8.699 -12.802  1.00  0.00    -0.013 A 
HETATM   10  C4  UNL     1      13.848  -8.112 -11.813  1.00  0.00     0.052 A 
HETATM   11  C5  UNL     1      13.711  -6.773 -11.477  1.00  0.00     0.102 A 
HETATM   12  C6  UNL     1      12.769  -5.952 -12.138  1.00  0.00     0.132 A 
HETATM   13  C7  UNL     1      11.985  -6.490 -13.127  1.00  0.00     0.139 A 
HETATM   14  C8  UNL     1      12.148  -7.840 -13.431  1.00  0.00     0.052 A 
BRANCH  11  15
HETATM   15  O1  UNL     1      14.491  -6.197 -10.473  1.00  0.00    -0.358 OA
ATOM     16  H1  UNL     1      15.383  -6.486 -10.317  1.00  0.00     0.217 HD
ENDBRANCH  11  15
BRANCH  12  17
HETATM   17  O2  UNL     1      12.668  -4.636 -11.757  1.00  0.00    -0.356 OA
ATOM     18  H2  UNL     1      11.960  -4.387 -11.175  1.00  0.00     0.218 HD
ENDBRANCH  12  17
BRANCH  13  19
HETATM   19  N4  UNL     1      11.003  -5.764 -13.867  1.00  0.00    -0.113 N 
HETATM   20  O3  UNL     1      10.155  -5.047 -13.271  1.00  0.00    -0.532 OA
HETATM   21  O4  UNL     1      10.923  -5.802 -15.206  1.00  0.00    -0.532 OA
ENDBRANCH  13  19
ENDBRANCH   7   9
ENDBRANCH   3   6
BRANCH   4  22
HETATM   22  C9  UNL     1      15.592 -14.395 -14.841  1.00  0.00     0.197 C 
HETATM   23  C11 UNL     1      17.032 -13.765 -14.915  1.00  0.00     0.189 C 
HETATM   24  N10 UNL     1      17.402 -14.974 -14.245  1.00  0.00    -0.141 NA
HETATM   25  N11 UNL     1      16.137 -15.039 -13.669  1.00  0.00    -0.106 NA
BRANCH  22  26
HETATM   26  C10 UNL     1      15.426 -15.329 -15.996  1.00  0.00     0.161 A 
HETATM   27  N6  UNL     1      16.263 -16.175 -16.550  1.00  0.00    -0.269 N 
HETATM   28  N7  UNL     1      15.662 -16.741 -17.572  1.00  0.00    -0.227 N 
ATOM     29  H6  UNL     1      17.217 -16.361 -16.241  1.00  0.00     0.190 HD
HETATM   30  N8  UNL     1      14.449 -16.263 -17.659  1.00  0.00    -0.227 N 
ATOM     31  H7  UNL     1      16.073 -17.437 -18.194  1.00  0.00     0.210 HD
HETATM   32  N9  UNL     1      14.268 -15.396 -16.709  1.00  0.00    -0.269 N 
ATOM     33  H8  UNL     1      13.757 -16.527 -18.360  1.00  0.00     0.210 HD
ATOM     34  H9  UNL     1      13.416 -14.864 -16.531  1.00  0.00     0.190 HD
ENDBRANCH  22  26
ENDBRANCH   4  22
TORSDOF 7
ENDMDL
MODEL 5
REMARK VINA RESULT: -8.772085872      2.225      3.733
REMARK  7 active torsions:
REMARK  status: ('A' for Active; 'I' for Inactive)
REMARK       I    between atoms: C1_2  and  N2_3 
REMARK       I    between atoms: C1_2  and  N5_20 
REMARK    1  A    between atoms: N2_3  and  N3_4 
REMARK    2  A    between atoms: C2_6  and  C3_7 
REMARK    3  A    between atoms: C5_9  and  O1_10 
REMARK    4  A    between atoms: C6_12  and  O2_13 
REMARK    5  A    between atoms: C7_15  and  N4_16 
REMARK    6  A    between atoms: N5_20  and  C9_22 
REMARK    7  A    between atoms: C9_22  and  C10_23 
ROOT
HETATM    1  N1  UNL     1      10.013 -11.890  -9.820  1.00  0.00    -0.047 NA
HETATM    2  C1  UNL     1      11.236 -11.444 -10.512  1.00  0.00     0.287 C 
HETATM    3  N2  UNL     1      11.882 -12.345 -10.876  1.00  0.00    -0.292 NA
HETATM    4  N5  UNL     1      11.518 -10.063 -10.652  1.00  0.00    -0.319 N 
ATOM      5  H5  UNL     1      12.494  -9.820 -10.479  1.00  0.00     0.166 HD
ENDROOT
BRANCH   3   6
HETATM    6  N3  UNL     1      12.917 -13.072 -11.451  1.00  0.00    -0.243 N 
HETATM    7  C2  UNL     1      13.003 -13.205 -12.712  1.00  0.00     0.132 C 
ATOM      8  H3  UNL     1      13.619 -13.506 -10.851  1.00  0.00     0.201 HD
BRANCH   7   9
HETATM    9  C3  UNL     1      13.921 -13.860 -13.582  1.00  0.00    -0.013 A 
HETATM   10  C4  UNL     1      15.185 -14.324 -13.239  1.00  0.00     0.052 A 
HETATM   11  C5  UNL     1      16.024 -14.911 -14.175  1.00  0.00     0.102 A 
HETATM   12  C6  UNL     1      15.618 -15.059 -15.521  1.00  0.00     0.132 A 
HETATM   13  C7  UNL     1      14.375 -14.621 -15.900  1.00  0.00     0.139 A 
HETATM   14  C8  UNL     1      13.564 -14.033 -14.933  1.00  0.00     0.052 A 
BRANCH  11  15
HETATM   15  O1  UNL     1      17.296 -15.363 -13.820  1.00  0.00    -0.358 OA
ATOM     16  H1  UNL     1      17.425 -16.230 -13.454  1.00  0.00     0.217 HD
ENDBRANCH  11  15
BRANCH  12  17
HETATM   17  O2  UNL     1      16.495 -15.637 -16.407  1.00  0.00    -0.356 OA
ATOM     18  H2  UNL     1      17.256 -15.138 -16.680  1.00  0.00     0.218 HD
ENDBRANCH  12  17
BRANCH  13  19
HETATM   19  N4  UNL     1      13.852 -14.718 -17.225  1.00  0.00    -0.113 N 
HETATM   20  O3  UNL     1      12.913 -13.965 -17.599  1.00  0.00    -0.532 OA
HETATM   21  O4  UNL     1      14.313 -15.597 -18.129  1.00  0.00    -0.532 OA
ENDBRANCH  13  19
ENDBRANCH   7   9
ENDBRANCH   3   6
BRANCH   4  22
HETATM   22  C9  UNL     1      10.702  -8.960 -10.987  1.00  0.00     0.197 C 
HETATM   23  C11 UNL     1      11.632  -7.694 -11.075  1.00  0.00     0.189 C 
HETATM   24  N10 UNL     1      10.740  -7.333 -12.134  1.00  0.00    -0.141 NA
HETATM   25  N11 UNL     1      10.501  -8.679 -12.389  1.00  0.00    -0.106 NA
BRANCH  22  26
HETATM   26  C10 UNL     1       9.514  -8.615 -10.147  1.00  0.00     0.161 A 
HETATM   27  N6  UNL     1       8.344  -9.198 -10.025  1.00  0.00    -0.269 N 
HETATM   28  N7  UNL     1       7.615  -8.490  -9.193  1.00  0.00    -0.227 N 
ATOM     29  H6  UNL     1       8.051 -10.054 -10.496  1.00  0.00     0.190 HD
HETATM   30  N8  UNL     1       8.321  -7.470  -8.784  1.00  0.00    -0.227 N 
ATOM     31  H7  UNL     1       6.657  -8.701  -8.913  1.00  0.00     0.210 HD
HETATM   32  N9  UNL     1       9.491  -7.514  -9.347  1.00  0.00    -0.269 N 
ATOM     33  H8  UNL     1       8.006  -6.755  -8.129  1.00  0.00     0.210 HD
ATOM     34  H9  UNL     1      10.252  -6.847  -9.213  1.00  0.00     0.190 HD
ENDBRANCH  22  26
ENDBRANCH   4  22
TORSDOF 7
ENDMDL
