MODEL 1
REMARK VINA RESULT: -7.950034871      0.000      0.000
REMARK  8 active torsions:
REMARK  status: ('A' for Active; 'I' for Inactive)
REMARK    1  A    between atoms: C2_7  and  N3_8 
REMARK    2  A    between atoms: N3_8  and  C3_10 
REMARK    3  A    between atoms: C3_10  and  N4_11 
REMARK    4  A    between atoms: C5_17  and  N7_18 
REMARK    5  A    between atoms: C8_28  and  N10_29 
REMARK    6  A    between atoms: N10_29  and  C9_31 
REMARK    7  A    between atoms: C9_31  and  C10_32 
REMARK    8  A    between atoms: C10_32  and  O1_33 
ROOT
HETATM    1  N3  UNL     1      13.039 -12.576 -11.276  1.00  0.00    -0.352 N 
ATOM      2  H3  UNL     1      12.751 -12.987 -10.388  1.00  0.00     0.163 HD
ENDROOT
BRANCH   1   3
HETATM    3  C2  UNL     1      12.205 -11.589 -11.845  1.00  0.00     0.164 A 
HETATM    4  N2  UNL     1      10.889 -11.475 -11.686  1.00  0.00    -0.170 N 
HETATM    5  C1  UNL     1      10.087 -10.550 -12.215  1.00  0.00     0.679 A 
ATOM      6  H2  UNL     1      10.442 -12.174 -11.093  1.00  0.00     0.186 HD
HETATM    7  N1  UNL     1       8.807 -10.631 -11.921  1.00  0.00    -0.234 N 
HETATM    8  N11 UNL     1      10.447  -9.545 -13.017  1.00  0.00    -0.170 N 
ATOM      9  H12 UNL     1       8.532 -11.398 -11.308  1.00  0.00     0.174 HD
ATOM     10  H11 UNL     1       8.193  -9.923 -12.326  1.00  0.00     0.174 HD
HETATM   11  C8  UNL     1      11.693  -9.283 -13.437  1.00  0.00     0.163 A 
ATOM     12  H11 UNL     1       9.709  -8.920 -13.338  1.00  0.00     0.186 HD
HETATM   13  S1  UNL     1      12.871 -10.369 -12.860  1.00  0.00    -0.017 SA
BRANCH  11  14
HETATM   14  N10 UNL     1      11.877  -8.272 -14.212  1.00  0.00    -0.368 N 
ATOM     15  H10 UNL     1      11.172  -7.537 -14.268  1.00  0.00     0.161 HD
BRANCH  14  16
HETATM   16  C9  UNL     1      13.091  -8.177 -15.006  1.00  0.00     0.147 C 
BRANCH  16  17
HETATM   17  C10 UNL     1      13.321  -6.744 -15.395  1.00  0.00     0.183 C 
BRANCH  17  18
HETATM   18  O1  UNL     1      12.541  -6.440 -16.502  1.00  0.00    -0.399 OA
ATOM     19  H1  UNL     1      12.928  -5.706 -16.964  1.00  0.00     0.209 HD
ENDBRANCH  17  18
ENDBRANCH  16  17
ENDBRANCH  14  16
ENDBRANCH  11  14
ENDBRANCH   1   3
BRANCH   1  20
HETATM   20  C3  UNL     1      14.251 -13.035 -11.853  1.00  0.00     0.276 C 
BRANCH  20  21
HETATM   21  N4  UNL     1      13.975 -13.924 -12.955  1.00  0.00    -0.242 N 
HETATM   22  N5  UNL     1      12.877 -14.534 -13.303  1.00  0.00    -0.237 N 
HETATM   23  N6  UNL     1      13.028 -15.263 -14.397  1.00  0.00    -0.279 N 
ATOM     24  H5  UNL     1      11.999 -14.458 -12.790  1.00  0.00     0.208 HD
HETATM   25  C4  UNL     1      14.302 -15.132 -14.803  1.00  0.00     0.139 A 
ATOM     26  H6  UNL     1      12.307 -15.824 -14.850  1.00  0.00     0.189 HD
HETATM   27  C5  UNL     1      15.059 -15.622 -15.843  1.00  0.00     0.132 A 
HETATM   28  C7  UNL     1      14.901 -14.287 -13.894  1.00  0.00     0.158 A 
HETATM   29  N8  UNL     1      16.353 -15.281 -15.964  1.00  0.00    -0.337 N 
HETATM   30  C6  UNL     1      16.943 -14.446 -15.066  1.00  0.00     0.183 A 
ATOM     31  H8  UNL     1      16.900 -15.653 -16.741  1.00  0.00     0.168 HD
HETATM   32  N9  UNL     1      16.208 -13.965 -14.048  1.00  0.00    -0.335 N 
ATOM     33  H9  UNL     1      16.647 -13.340 -13.373  1.00  0.00     0.168 HD
BRANCH  27  34
HETATM   34  N7  UNL     1      14.502 -16.411 -16.693  1.00  0.00    -0.383 N 
ATOM     35  H72 UNL     1      13.584 -16.815 -16.508  1.00  0.00     0.157 HD
ATOM     36  H71 UNL     1      14.997 -16.626 -17.558  1.00  0.00     0.157 HD
ENDBRANCH  27  34
ENDBRANCH  20  21
ENDBRANCH   1  20
TORSDOF 8
ENDMDL
MODEL 2
REMARK VINA RESULT: -7.722378706      1.185      1.828
REMARK  8 active torsions:
REMARK  status: ('A' for Active; 'I' for Inactive)
REMARK    1  A    between atoms: C2_7  and  N3_8 
REMARK    2  A    between atoms: N3_8  and  C3_10 
REMARK    3  A    between atoms: C3_10  and  N4_11 
REMARK    4  A    between atoms: C5_17  and  N7_18 
REMARK    5  A    between atoms: C8_28  and  N10_29 
REMARK    6  A    between atoms: N10_29  and  C9_31 
REMARK    7  A    between atoms: C9_31  and  C10_32 
REMARK    8  A    between atoms: C10_32  and  O1_33 
ROOT
HETATM    1  N3  UNL     1      13.459 -13.079 -12.720  1.00  0.00    -0.352 N 
ATOM      2  H3  UNL     1      13.160 -14.037 -12.540  1.00  0.00     0.163 HD
ENDROOT
BRANCH   1   3
HETATM    3  C2  UNL     1      12.484 -12.061 -12.647  1.00  0.00     0.164 A 
HETATM    4  N2  UNL     1      11.306 -12.134 -12.032  1.00  0.00    -0.170 N 
HETATM    5  C1  UNL     1      10.375 -11.183 -11.952  1.00  0.00     0.679 A 
ATOM      6  H2  UNL     1      11.091 -13.018 -11.570  1.00  0.00     0.186 HD
HETATM    7  N1  UNL     1       9.277 -11.477 -11.289  1.00  0.00    -0.234 N 
HETATM    8  N11 UNL     1      10.438  -9.957 -12.478  1.00  0.00    -0.170 N 
ATOM      9  H12 UNL     1       9.229 -12.413 -10.887  1.00  0.00     0.174 HD
ATOM     10  H11 UNL     1       8.564 -10.749 -11.228  1.00  0.00     0.174 HD
HETATM   11  C8  UNL     1      11.460  -9.459 -13.186  1.00  0.00     0.163 A 
ATOM     12  H11 UNL     1       9.637  -9.345 -12.326  1.00  0.00     0.186 HD
HETATM   13  S1  UNL     1      12.761 -10.538 -13.399  1.00  0.00    -0.017 SA
BRANCH  11  14
HETATM   14  N10 UNL     1      11.368  -8.252 -13.627  1.00  0.00    -0.368 N 
ATOM     15  H10 UNL     1      10.616  -7.646 -13.301  1.00  0.00     0.161 HD
BRANCH  14  16
HETATM   16  C9  UNL     1      12.337  -7.755 -14.589  1.00  0.00     0.147 C 
BRANCH  16  17
HETATM   17  C10 UNL     1      11.745  -6.595 -15.338  1.00  0.00     0.183 C 
BRANCH  17  18
HETATM   18  O1  UNL     1      12.509  -6.343 -16.469  1.00  0.00    -0.399 OA
ATOM     19  H1  UNL     1      13.172  -7.018 -16.555  1.00  0.00     0.209 HD
ENDBRANCH  17  18
ENDBRANCH  16  17
ENDBRANCH  14  16
ENDBRANCH  11  14
ENDBRANCH   1   3
BRANCH   1  20
HETATM   20  C3  UNL     1      14.827 -12.862 -13.028  1.00  0.00     0.276 C 
BRANCH  20  21
HETATM   21  N4  UNL     1      15.342 -13.952 -13.821  1.00  0.00    -0.242 N 
HETATM   22  N5  UNL     1      16.297 -14.805 -13.578  1.00  0.00    -0.237 N 
HETATM   23  N6  UNL     1      16.463 -15.673 -14.562  1.00  0.00    -0.279 N 
ATOM     24  H5  UNL     1      16.854 -14.804 -12.723  1.00  0.00     0.208 HD
HETATM   25  C4  UNL     1      15.566 -15.382 -15.519  1.00  0.00     0.139 A 
ATOM     26  H6  UNL     1      17.149 -16.427 -14.590  1.00  0.00     0.189 HD
HETATM   27  C5  UNL     1      15.240 -15.897 -16.753  1.00  0.00     0.132 A 
HETATM   28  C7  UNL     1      14.857 -14.295 -15.052  1.00  0.00     0.158 A 
HETATM   29  N8  UNL     1      14.253 -15.351 -17.482  1.00  0.00    -0.337 N 
HETATM   30  C6  UNL     1      13.554 -14.279 -17.020  1.00  0.00     0.183 A 
ATOM     31  H8  UNL     1      14.024 -15.745 -18.395  1.00  0.00     0.168 HD
HETATM   32  N9  UNL     1      13.868 -13.771 -15.815  1.00  0.00    -0.335 N 
ATOM     33  H9  UNL     1      13.347 -12.967 -15.466  1.00  0.00     0.168 HD
BRANCH  27  34
HETATM   34  N7  UNL     1      15.900 -16.912 -17.191  1.00  0.00    -0.383 N 
ATOM     35  H72 UNL     1      16.867 -17.068 -16.907  1.00  0.00     0.157 HD
ATOM     36  H71 UNL     1      15.437 -17.557 -17.830  1.00  0.00     0.157 HD
ENDBRANCH  27  34
ENDBRANCH  20  21
ENDBRANCH   1  20
TORSDOF 8
ENDMDL
MODEL 3
REMARK VINA RESULT: -7.696532458      2.604      4.003
REMARK  8 active torsions:
REMARK  status: ('A' for Active; 'I' for Inactive)
REMARK    1  A    between atoms: C2_7  and  N3_8 
REMARK    2  A    between atoms: N3_8  and  C3_10 
REMARK    3  A    between atoms: C3_10  and  N4_11 
REMARK    4  A    between atoms: C5_17  and  N7_18 
REMARK    5  A    between atoms: C8_28  and  N10_29 
REMARK    6  A    between atoms: N10_29  and  C9_31 
REMARK    7  A    between atoms: C9_31  and  C10_32 
REMARK    8  A    between atoms: C10_32  and  O1_33 
ROOT
HETATM    1  N3  UNL     1      13.869 -12.029 -13.512  1.00  0.00    -0.352 N 
ATOM      2  H3  UNL     1      14.516 -11.739 -14.245  1.00  0.00     0.163 HD
ENDROOT
BRANCH   1   3
HETATM    3  C2  UNL     1      12.754 -11.201 -13.255  1.00  0.00     0.164 A 
HETATM    4  N2  UNL     1      12.552  -9.973 -13.725  1.00  0.00    -0.170 N 
HETATM    5  C1  UNL     1      11.506  -9.179 -13.493  1.00  0.00     0.679 A 
ATOM      6  H2  UNL     1      13.281  -9.596 -14.331  1.00  0.00     0.186 HD
HETATM    7  N1  UNL     1      11.517  -7.994 -14.067  1.00  0.00    -0.234 N 
HETATM    8  N11 UNL     1      10.443  -9.460 -12.736  1.00  0.00    -0.170 N 
ATOM      9  H12 UNL     1      12.329  -7.780 -14.645  1.00  0.00     0.174 HD
ATOM     10  H11 UNL     1      10.717  -7.387 -13.889  1.00  0.00     0.174 HD
HETATM   11  C8  UNL     1      10.235 -10.603 -12.068  1.00  0.00     0.163 A 
ATOM     12  H11 UNL     1       9.724  -8.741 -12.660  1.00  0.00     0.186 HD
HETATM   13  S1  UNL     1      11.477 -11.755 -12.242  1.00  0.00    -0.017 SA
BRANCH  11  14
HETATM   14  N10 UNL     1       9.154 -10.720 -11.378  1.00  0.00    -0.368 N 
ATOM     15  H10 UNL     1       8.268 -10.908 -11.847  1.00  0.00     0.161 HD
BRANCH  14  16
HETATM   16  C9  UNL     1       9.197 -10.583  -9.932  1.00  0.00     0.147 C 
BRANCH  16  17
HETATM   17  C10 UNL     1       8.712 -11.856  -9.297  1.00  0.00     0.183 C 
BRANCH  17  18
HETATM   18  O1  UNL     1       9.724 -12.804  -9.345  1.00  0.00    -0.399 OA
ATOM     19  H1  UNL     1      10.276 -12.712  -8.577  1.00  0.00     0.209 HD
ENDBRANCH  17  18
ENDBRANCH  16  17
ENDBRANCH  14  16
ENDBRANCH  11  14
ENDBRANCH   1   3
BRANCH   1  20
HETATM   20  C3  UNL     1      14.151 -13.235 -12.821  1.00  0.00     0.276 C 
BRANCH  20  21
HETATM   21  N4  UNL     1      14.931 -14.118 -13.653  1.00  0.00    -0.242 N 
HETATM   22  N5  UNL     1      16.040 -14.759 -13.410  1.00  0.00    -0.237 N 
HETATM   23  N6  UNL     1      16.440 -15.486 -14.440  1.00  0.00    -0.279 N 
ATOM     24  H5  UNL     1      16.543 -14.705 -12.524  1.00  0.00     0.208 HD
HETATM   25  C4  UNL     1      15.545 -15.322 -15.429  1.00  0.00     0.139 A 
ATOM     26  H6  UNL     1      17.278 -16.067 -14.477  1.00  0.00     0.189 HD
HETATM   27  C5  UNL     1      15.399 -15.795 -16.713  1.00  0.00     0.132 A 
HETATM   28  C7  UNL     1      14.592 -14.459 -14.933  1.00  0.00     0.158 A 
HETATM   29  N8  UNL     1      14.350 -15.421 -17.463  1.00  0.00    -0.337 N 
HETATM   30  C6  UNL     1      13.409 -14.568 -16.972  1.00  0.00     0.183 A 
ATOM     31  H8  UNL     1      14.257 -15.781 -18.413  1.00  0.00     0.168 HD
HETATM   32  N9  UNL     1      13.547 -14.103 -15.719  1.00  0.00    -0.335 N 
ATOM     33  H9  UNL     1      12.844 -13.464 -15.348  1.00  0.00     0.168 HD
BRANCH  27  34
HETATM   34  N7  UNL     1      16.288 -16.602 -17.177  1.00  0.00    -0.383 N 
ATOM     35  H72 UNL     1      16.041 -17.553 -17.447  1.00  0.00     0.157 HD
ATOM     36  H71 UNL     1      17.249 -16.270 -17.271  1.00  0.00     0.157 HD
ENDBRANCH  27  34
ENDBRANCH  20  21
ENDBRANCH   1  20
TORSDOF 8
ENDMDL
MODEL 4
REMARK VINA RESULT: -7.695866783      1.773      2.425
REMARK  8 active torsions:
REMARK  status: ('A' for Active; 'I' for Inactive)
REMARK    1  A    between atoms: C2_7  and  N3_8 
REMARK    2  A    between atoms: N3_8  and  C3_10 
REMARK    3  A    between atoms: C3_10  and  N4_11 
REMARK    4  A    between atoms: C5_17  and  N7_18 
REMARK    5  A    between atoms: C8_28  and  N10_29 
REMARK    6  A    between atoms: N10_29  and  C9_31 
REMARK    7  A    between atoms: C9_31  and  C10_32 
REMARK    8  A    between atoms: C10_32  and  O1_33 
ROOT
HETATM    1  N3  UNL     1      13.546 -13.299 -12.445  1.00  0.00    -0.352 N 
ATOM      2  H3  UNL     1      13.417 -14.300 -12.300  1.00  0.00     0.163 HD
ENDROOT
BRANCH   1   3
HETATM    3  C2  UNL     1      12.529 -12.432 -11.990  1.00  0.00     0.164 A 
HETATM    4  N2  UNL     1      11.649 -12.680 -11.024  1.00  0.00    -0.170 N 
HETATM    5  C1  UNL     1      10.684 -11.873 -10.581  1.00  0.00     0.679 A 
ATOM      6  H2  UNL     1      11.720 -13.591 -10.570  1.00  0.00     0.186 HD
HETATM    7  N1  UNL     1       9.924 -12.330  -9.608  1.00  0.00    -0.234 N 
HETATM    8  N11 UNL     1      10.405 -10.645 -11.023  1.00  0.00    -0.170 N 
ATOM      9  H12 UNL     1      10.137 -13.268  -9.271  1.00  0.00     0.174 HD
ATOM     10  H11 UNL     1       9.185 -11.713  -9.269  1.00  0.00     0.174 HD
HETATM   11  C8  UNL     1      11.052  -9.996 -12.000  1.00  0.00     0.163 A 
ATOM     12  H11 UNL     1       9.629 -10.156 -10.576  1.00  0.00     0.186 HD
HETATM   13  S1  UNL     1      12.333 -10.875 -12.698  1.00  0.00    -0.017 SA
BRANCH  11  14
HETATM   14  N10 UNL     1      10.660  -8.810 -12.312  1.00  0.00    -0.368 N 
ATOM     15  H10 UNL     1       9.853  -8.400 -11.842  1.00  0.00     0.161 HD
BRANCH  14  16
HETATM   16  C9  UNL     1      11.367  -8.057 -13.334  1.00  0.00     0.147 C 
BRANCH  16  17
HETATM   17  C10 UNL     1      11.672  -6.680 -12.815  1.00  0.00     0.183 C 
BRANCH  17  18
HETATM   18  O1  UNL     1      10.488  -5.969 -12.683  1.00  0.00    -0.399 OA
ATOM     19  H1  UNL     1       9.933  -6.142 -13.434  1.00  0.00     0.209 HD
ENDBRANCH  17  18
ENDBRANCH  16  17
ENDBRANCH  14  16
ENDBRANCH  11  14
ENDBRANCH   1   3
BRANCH   1  20
HETATM   20  C3  UNL     1      14.736 -12.873 -13.092  1.00  0.00     0.276 C 
BRANCH  20  21
HETATM   21  N4  UNL     1      15.293 -13.950 -13.874  1.00  0.00    -0.242 N 
HETATM   22  N5  UNL     1      16.279 -14.764 -13.621  1.00  0.00    -0.237 N 
HETATM   23  N6  UNL     1      16.480 -15.633 -14.598  1.00  0.00    -0.279 N 
ATOM     24  H5  UNL     1      16.833 -14.735 -12.765  1.00  0.00     0.208 HD
HETATM   25  C4  UNL     1      15.575 -15.384 -15.559  1.00  0.00     0.139 A 
ATOM     26  H6  UNL     1      17.194 -16.361 -14.618  1.00  0.00     0.189 HD
HETATM   27  C5  UNL     1      15.273 -15.922 -16.790  1.00  0.00     0.132 A 
HETATM   28  C7  UNL     1      14.825 -14.321 -15.104  1.00  0.00     0.158 A 
HETATM   29  N8  UNL     1      14.268 -15.420 -17.526  1.00  0.00    -0.337 N 
HETATM   30  C6  UNL     1      13.528 -14.370 -17.074  1.00  0.00     0.183 A 
ATOM     31  H8  UNL     1      14.057 -15.830 -18.436  1.00  0.00     0.168 HD
HETATM   32  N9  UNL     1      13.819 -13.841 -15.874  1.00  0.00    -0.335 N 
ATOM     33  H9  UNL     1      13.267 -13.054 -15.532  1.00  0.00     0.168 HD
BRANCH  27  34
HETATM   34  N7  UNL     1      15.972 -16.915 -17.217  1.00  0.00    -0.383 N 
ATOM     35  H72 UNL     1      16.230 -17.679 -16.594  1.00  0.00     0.157 HD
ATOM     36  H71 UNL     1      16.264 -16.922 -18.195  1.00  0.00     0.157 HD
ENDBRANCH  27  34
ENDBRANCH  20  21
ENDBRANCH   1  20
TORSDOF 8
ENDMDL
MODEL 5
REMARK VINA RESULT: -7.638002770      1.546      2.242
REMARK  8 active torsions:
REMARK  status: ('A' for Active; 'I' for Inactive)
REMARK    1  A    between atoms: C2_7  and  N3_8 
REMARK    2  A    between atoms: N3_8  and  C3_10 
REMARK    3  A    between atoms: C3_10  and  N4_11 
REMARK    4  A    between atoms: C5_17  and  N7_18 
REMARK    5  A    between atoms: C8_28  and  N10_29 
REMARK    6  A    between atoms: N10_29  and  C9_31 
REMARK    7  A    between atoms: C9_31  and  C10_32 
REMARK    8  A    between atoms: C10_32  and  O1_33 
ROOT
HETATM    1  N3  UNL     1      12.620 -11.777 -12.000  1.00  0.00    -0.352 N 
ATOM      2  H3  UNL     1      11.842 -12.116 -11.436  1.00  0.00     0.163 HD
ENDROOT
BRANCH   1   3
HETATM    3  C2  UNL     1      12.454 -10.550 -12.679  1.00  0.00     0.164 A 
HETATM    4  N2  UNL     1      12.900 -10.250 -13.896  1.00  0.00    -0.170 N 
HETATM    5  C1  UNL     1      12.752  -9.098 -14.552  1.00  0.00     0.679 A 
ATOM      6  H2  UNL     1      13.414 -10.985 -14.383  1.00  0.00     0.186 HD
HETATM    7  N1  UNL     1      13.280  -9.024 -15.755  1.00  0.00    -0.234 N 
HETATM    8  N11 UNL     1      12.122  -8.006 -14.114  1.00  0.00    -0.170 N 
ATOM      9  H12 UNL     1      13.761  -9.859 -16.090  1.00  0.00     0.174 HD
ATOM     10  H11 UNL     1      13.166  -8.143 -16.257  1.00  0.00     0.174 HD
HETATM   11  C8  UNL     1      11.519  -7.871 -12.925  1.00  0.00     0.163 A 
ATOM     12  H11 UNL     1      12.097  -7.202 -14.741  1.00  0.00     0.186 HD
HETATM   13  S1  UNL     1      11.603  -9.253 -11.934  1.00  0.00    -0.017 SA
BRANCH  11  14
HETATM   14  N10 UNL     1      10.952  -6.748 -12.651  1.00  0.00    -0.368 N 
ATOM     15  H10 UNL     1      10.152  -6.721 -12.019  1.00  0.00     0.161 HD
BRANCH  14  16
HETATM   16  C9  UNL     1      11.454  -5.518 -13.242  1.00  0.00     0.147 C 
BRANCH  16  17
HETATM   17  C10 UNL     1      10.458  -5.005 -14.243  1.00  0.00     0.183 C 
BRANCH  17  18
HETATM   18  O1  UNL     1      10.723  -5.571 -15.482  1.00  0.00    -0.399 OA
ATOM     19  H1  UNL     1      11.505  -5.175 -15.847  1.00  0.00     0.209 HD
ENDBRANCH  17  18
ENDBRANCH  16  17
ENDBRANCH  14  16
ENDBRANCH  11  14
ENDBRANCH   1   3
BRANCH   1  20
HETATM   20  C3  UNL     1      13.795 -12.570 -12.048  1.00  0.00     0.276 C 
BRANCH  20  21
HETATM   21  N4  UNL     1      13.663 -13.601 -13.048  1.00  0.00    -0.242 N 
HETATM   22  N5  UNL     1      12.633 -14.318 -13.402  1.00  0.00    -0.237 N 
HETATM   23  N6  UNL     1      12.916 -15.162 -14.379  1.00  0.00    -0.279 N 
ATOM     24  H5  UNL     1      11.711 -14.235 -12.973  1.00  0.00     0.208 HD
HETATM   25  C4  UNL     1      14.211 -15.001 -14.698  1.00  0.00     0.139 A 
ATOM     26  H6  UNL     1      12.267 -15.819 -14.814  1.00  0.00     0.189 HD
HETATM   27  C5  UNL     1      15.080 -15.564 -15.605  1.00  0.00     0.132 A 
HETATM   28  C7  UNL     1      14.684 -14.015 -13.858  1.00  0.00     0.158 A 
HETATM   29  N8  UNL     1      16.359 -15.159 -15.666  1.00  0.00    -0.337 N 
HETATM   30  C6  UNL     1      16.825 -14.186 -14.837  1.00  0.00     0.183 A 
ATOM     31  H8  UNL     1      16.990 -15.586 -16.344  1.00  0.00     0.168 HD
HETATM   32  N9  UNL     1      15.981 -13.632 -13.949  1.00  0.00    -0.335 N 
ATOM     33  H9  UNL     1      16.326 -12.903 -13.325  1.00  0.00     0.168 HD
BRANCH  27  34
HETATM   34  N7  UNL     1      14.640 -16.484 -16.390  1.00  0.00    -0.383 N 
ATOM     35  H72 UNL     1      13.738 -16.928 -16.221  1.00  0.00     0.157 HD
ATOM     36  H71 UNL     1      15.213 -16.761 -17.187  1.00  0.00     0.157 HD
ENDBRANCH  27  34
ENDBRANCH  20  21
ENDBRANCH   1  20
TORSDOF 8
ENDMDL
