MODEL 1
REMARK VINA RESULT: -5.959677980      0.000      0.000
REMARK  1 active torsions:
REMARK  status: ('A' for Active; 'I' for Inactive)
REMARK    1  A    between atoms: N5_12  and  C3_13 
ROOT
HETATM    1  N1  UNL     1       9.729 -11.997  39.134  1.00  0.00    -0.380 N 
ATOM      2  H11 UNL     1       8.860 -12.275  38.680  1.00  0.00     0.158 HD
ATOM      3  H12 UNL     1      10.460 -12.705  39.188  1.00  0.00     0.158 HD
HETATM    4  C1  UNL     1       9.884 -10.817  39.606  1.00  0.00     0.192 C 
HETATM    5  C2  UNL     1      11.127 -10.418  40.254  1.00  0.00     0.306 C 
HETATM    6  O1  UNL     1      12.070 -11.239  40.357  1.00  0.00    -0.263 OA
HETATM    7  N2  UNL     1      11.201  -9.085  40.747  1.00  0.00    -0.250 N 
ATOM      8  H2  UNL     1      11.883  -8.822  41.458  1.00  0.00     0.191 HD
HETATM    9  N3  UNL     1      10.322  -8.170  40.233  1.00  0.00    -0.223 N 
ATOM     10  H3  UNL     1      10.635  -7.234  39.977  1.00  0.00     0.205 HD
HETATM   11  N4  UNL     1       9.040  -8.535  40.076  1.00  0.00     0.005 NA
HETATM   12  N5  UNL     1       8.857  -9.820  39.529  1.00  0.00    -0.193 N 
ENDROOT
BRANCH  12  13
HETATM   13  C3  UNL     1       7.638 -10.152  38.887  1.00  0.00     0.376 C 
HETATM   14  O2  UNL     1       6.790 -10.936  39.383  1.00  0.00    -0.282 OA
ENDBRANCH  12  13
TORSDOF 1
ENDMDL
MODEL 2
REMARK VINA RESULT: -5.695460311      2.695      3.506
REMARK  1 active torsions:
REMARK  status: ('A' for Active; 'I' for Inactive)
REMARK    1  A    between atoms: N5_12  and  C3_13 
ROOT
HETATM    1  N1  UNL     1      10.223  -8.312  40.366  1.00  0.00    -0.380 N 
ATOM      2  H11 UNL     1      10.264  -7.593  41.089  1.00  0.00     0.158 HD
ATOM      3  H12 UNL     1      11.114  -8.609  39.971  1.00  0.00     0.158 HD
HETATM    4  C1  UNL     1       9.106  -8.807  39.986  1.00  0.00     0.192 C 
HETATM    5  C2  UNL     1       9.047  -9.835  38.953  1.00  0.00     0.306 C 
HETATM    6  O1  UNL     1      10.104 -10.249  38.422  1.00  0.00    -0.263 OA
HETATM    7  N2  UNL     1       7.757 -10.321  38.599  1.00  0.00    -0.250 N 
ATOM      8  H2  UNL     1       7.597 -10.796  37.710  1.00  0.00     0.191 HD
HETATM    9  N3  UNL     1       6.739 -10.129  39.493  1.00  0.00    -0.223 N 
ATOM     10  H3  UNL     1       6.077 -10.877  39.699  1.00  0.00     0.205 HD
HETATM   11  N4  UNL     1       6.633  -8.932  40.092  1.00  0.00     0.005 NA
HETATM   12  N5  UNL     1       7.852  -8.390  40.542  1.00  0.00    -0.193 N 
ENDROOT
BRANCH  12  13
HETATM   13  C3  UNL     1       7.859  -7.410  41.566  1.00  0.00     0.376 C 
HETATM   14  O2  UNL     1       7.975  -6.179  41.339  1.00  0.00    -0.282 OA
ENDBRANCH  12  13
TORSDOF 1
ENDMDL
MODEL 3
REMARK VINA RESULT: -5.688308670      1.532      4.079
REMARK  1 active torsions:
REMARK  status: ('A' for Active; 'I' for Inactive)
REMARK    1  A    between atoms: N5_12  and  C3_13 
ROOT
HETATM    1  N1  UNL     1      10.398  -8.143  40.578  1.00  0.00    -0.380 N 
ATOM      2  H11 UNL     1      11.318  -7.834  40.890  1.00  0.00     0.158 HD
ATOM      3  H12 UNL     1       9.667  -7.433  40.549  1.00  0.00     0.158 HD
HETATM    4  C1  UNL     1      10.184  -9.360  40.243  1.00  0.00     0.192 C 
HETATM    5  C2  UNL     1       8.869  -9.802  39.797  1.00  0.00     0.306 C 
HETATM    6  O1  UNL     1       7.921  -8.982  39.736  1.00  0.00    -0.263 OA
HETATM    7  N2  UNL     1       8.732 -11.174  39.447  1.00  0.00    -0.250 N 
ATOM      8  H2  UNL     1       7.818 -11.624  39.420  1.00  0.00     0.191 HD
HETATM    9  N3  UNL     1       9.873 -11.869  39.149  1.00  0.00    -0.223 N 
ATOM     10  H3  UNL     1       9.905 -12.503  38.350  1.00  0.00     0.205 HD
HETATM   11  N4  UNL     1      10.949 -11.696  39.933  1.00  0.00     0.005 NA
HETATM   12  N5  UNL     1      11.212 -10.358  40.284  1.00  0.00    -0.193 N 
ENDROOT
BRANCH  12  13
HETATM   13  C3  UNL     1      12.514  -9.972  40.689  1.00  0.00     0.376 C 
HETATM   14  O2  UNL     1      12.755  -9.411  41.788  1.00  0.00    -0.282 OA
ENDBRANCH  12  13
TORSDOF 1
ENDMDL
MODEL 4
REMARK VINA RESULT: -5.670830050      1.749      3.371
REMARK  1 active torsions:
REMARK  status: ('A' for Active; 'I' for Inactive)
REMARK    1  A    between atoms: N5_12  and  C3_13 
ROOT
HETATM    1  N1  UNL     1      11.763 -11.580  40.299  1.00  0.00    -0.380 N 
ATOM      2  H11 UNL     1      12.500 -11.464  40.994  1.00  0.00     0.158 HD
ATOM      3  H12 UNL     1      11.769 -12.453  39.773  1.00  0.00     0.158 HD
HETATM    4  C1  UNL     1      10.882 -10.671  40.107  1.00  0.00     0.192 C 
HETATM    5  C2  UNL     1       9.828 -10.837  39.114  1.00  0.00     0.306 C 
HETATM    6  O1  UNL     1       9.773 -11.886  38.429  1.00  0.00    -0.263 OA
HETATM    7  N2  UNL     1       8.897  -9.770  38.975  1.00  0.00    -0.250 N 
ATOM      8  H2  UNL     1       8.334  -9.666  38.131  1.00  0.00     0.191 HD
HETATM    9  N3  UNL     1       8.784  -8.887  40.015  1.00  0.00    -0.223 N 
ATOM     10  H3  UNL     1       7.868  -8.572  40.335  1.00  0.00     0.205 HD
HETATM   11  N4  UNL     1       9.908  -8.447  40.604  1.00  0.00     0.005 NA
HETATM   12  N5  UNL     1      10.873  -9.444  40.847  1.00  0.00    -0.193 N 
ENDROOT
BRANCH  12  13
HETATM   13  C3  UNL     1      11.863  -9.245  41.841  1.00  0.00     0.376 C 
HETATM   14  O2  UNL     1      13.072  -9.027  41.574  1.00  0.00    -0.282 OA
ENDBRANCH  12  13
TORSDOF 1
ENDMDL
MODEL 5
REMARK VINA RESULT: -5.621798016      1.934      2.716
REMARK  1 active torsions:
REMARK  status: ('A' for Active; 'I' for Inactive)
REMARK    1  A    between atoms: N5_12  and  C3_13 
ROOT
HETATM    1  N1  UNL     1       9.825  -8.624  41.918  1.00  0.00    -0.380 N 
ATOM      2  H11 UNL     1       8.863  -8.378  41.687  1.00  0.00     0.158 HD
ATOM      3  H12 UNL     1      10.246  -8.123  42.700  1.00  0.00     0.158 HD
HETATM    4  C1  UNL     1      10.459  -9.517  41.256  1.00  0.00     0.192 C 
HETATM    5  C2  UNL     1      11.834  -9.870  41.587  1.00  0.00     0.306 C 
HETATM    6  O1  UNL     1      12.417  -9.294  42.536  1.00  0.00    -0.263 OA
HETATM    7  N2  UNL     1      12.453 -10.874  40.791  1.00  0.00    -0.250 N 
ATOM      8  H2  UNL     1      13.468 -10.964  40.750  1.00  0.00     0.191 HD
HETATM    9  N3  UNL     1      11.637 -11.714  40.082  1.00  0.00    -0.223 N 
ATOM     10  H3  UNL     1      11.821 -12.717  40.051  1.00  0.00     0.205 HD
HETATM   11  N4  UNL     1      10.591 -11.185  39.427  1.00  0.00     0.005 NA
HETATM   12  N5  UNL     1       9.867 -10.222  40.157  1.00  0.00    -0.193 N 
ENDROOT
BRANCH  12  13
HETATM   13  C3  UNL     1       8.524  -9.932  39.812  1.00  0.00     0.376 C 
HETATM   14  O2  UNL     1       8.080  -8.761  39.701  1.00  0.00    -0.282 OA
ENDBRANCH  12  13
TORSDOF 1
ENDMDL
