MODEL 1
REMARK VINA RESULT: -6.709340462      0.000      0.000
REMARK  0 active torsions:
REMARK  status: ('A' for Active; 'I' for Inactive)
ROOT
HETATM    1  O1  UNL     1      12.692  -9.684  42.257  1.00  0.00    -0.247 OA
HETATM    2  C1  UNL     1      11.702  -9.792  41.476  1.00  0.00     0.328 A 
HETATM    3  N1  UNL     1      10.899  -8.724  41.321  1.00  0.00    -0.273 N 
ATOM      4  H1  UNL     1      11.077  -7.850  41.814  1.00  0.00     0.173 HD
HETATM    5  C2  UNL     1       9.853  -8.859  40.486  1.00  0.00     0.280 A 
HETATM    6  O2  UNL     1       9.103  -7.865  40.339  1.00  0.00    -0.265 OA
HETATM    7  C3  UNL     1       9.574 -10.016  39.799  1.00  0.00     0.146 A 
HETATM    8  N2  UNL     1       8.632 -10.419  38.931  1.00  0.00    -0.345 N 
ATOM      9  H2  UNL     1       7.863  -9.838  38.599  1.00  0.00     0.167 HD
HETATM   10  C4  UNL     1       8.844 -11.701  38.559  1.00  0.00     0.182 A 
HETATM   11  N3  UNL     1       9.948 -12.108  39.212  1.00  0.00    -0.336 N 
ATOM     12  H3  UNL     1      10.364 -13.036  39.138  1.00  0.00     0.168 HD
HETATM   13  C5  UNL     1      10.420 -11.105  39.978  1.00  0.00     0.143 A 
HETATM   14  N4  UNL     1      11.452 -10.938  40.815  1.00  0.00    -0.292 N 
ATOM     15  H4  UNL     1      12.085 -11.724  40.961  1.00  0.00     0.172 HD
ENDROOT
TORSDOF 0
ENDMDL
MODEL 2
REMARK VINA RESULT: -6.509756546      1.981      2.690
REMARK  0 active torsions:
REMARK  status: ('A' for Active; 'I' for Inactive)
ROOT
HETATM    1  O1  UNL     1      13.177  -8.867  41.518  1.00  0.00    -0.247 OA
HETATM    2  C1  UNL     1      12.033  -9.361  41.294  1.00  0.00     0.328 A 
HETATM    3  N1  UNL     1      11.917 -10.262  40.302  1.00  0.00    -0.273 N 
ATOM      4  H1  UNL     1      12.722 -10.544  39.743  1.00  0.00     0.173 HD
HETATM    5  C2  UNL     1      10.693 -10.775  40.080  1.00  0.00     0.280 A 
HETATM    6  O2  UNL     1      10.583 -11.615  39.156  1.00  0.00    -0.265 OA
HETATM    7  C3  UNL     1       9.580 -10.426  40.806  1.00  0.00     0.146 A 
HETATM    8  N2  UNL     1       8.281 -10.767  40.804  1.00  0.00    -0.345 N 
ATOM      9  H2  UNL     1       7.859 -11.438  40.163  1.00  0.00     0.167 HD
HETATM   10  C4  UNL     1       7.610 -10.096  41.766  1.00  0.00     0.182 A 
HETATM   11  N3  UNL     1       8.516  -9.317  42.386  1.00  0.00    -0.336 N 
ATOM     12  H3  UNL     1       8.314  -8.687  43.162  1.00  0.00     0.168 HD
HETATM   13  C5  UNL     1       9.729  -9.493  41.826  1.00  0.00     0.143 A 
HETATM   14  N4  UNL     1      10.960  -9.002  42.022  1.00  0.00    -0.292 N 
ATOM     15  H4  UNL     1      11.090  -8.316  42.765  1.00  0.00     0.172 HD
ENDROOT
TORSDOF 0
ENDMDL
MODEL 3
REMARK VINA RESULT: -6.485813439      1.735      2.638
REMARK  0 active torsions:
REMARK  status: ('A' for Active; 'I' for Inactive)
ROOT
HETATM    1  O1  UNL     1      13.083  -9.371  41.584  1.00  0.00    -0.247 OA
HETATM    2  C1  UNL     1      11.957  -9.514  41.023  1.00  0.00     0.328 A 
HETATM    3  N1  UNL     1      11.755 -10.620  40.285  1.00  0.00    -0.273 N 
ATOM      4  H1  UNL     1      12.481 -11.326  40.175  1.00  0.00     0.173 HD
HETATM    5  C2  UNL     1      10.552 -10.753  39.697  1.00  0.00     0.280 A 
HETATM    6  O2  UNL     1      10.360 -11.783  39.008  1.00  0.00    -0.265 OA
HETATM    7  C3  UNL     1       9.541  -9.829  39.816  1.00  0.00     0.146 A 
HETATM    8  N2  UNL     1       8.285  -9.709  39.356  1.00  0.00    -0.345 N 
ATOM      9  H2  UNL     1       7.819 -10.389  38.757  1.00  0.00     0.167 HD
HETATM   10  C4  UNL     1       7.725  -8.560  39.797  1.00  0.00     0.182 A 
HETATM   11  N3  UNL     1       8.656  -7.949  40.552  1.00  0.00    -0.336 N 
ATOM     12  H3  UNL     1       8.532  -7.056  41.027  1.00  0.00     0.168 HD
HETATM   13  C5  UNL     1       9.778  -8.696  40.586  1.00  0.00     0.143 A 
HETATM   14  N4  UNL     1      10.985  -8.593  41.157  1.00  0.00    -0.292 N 
ATOM     15  H4  UNL     1      11.178  -7.769  41.726  1.00  0.00     0.172 HD
ENDROOT
TORSDOF 0
ENDMDL
MODEL 4
REMARK VINA RESULT: -6.306873364      1.652      3.350
REMARK  0 active torsions:
REMARK  status: ('A' for Active; 'I' for Inactive)
ROOT
HETATM    1  O1  UNL     1       7.022 -11.217  38.794  1.00  0.00    -0.247 OA
HETATM    2  C1  UNL     1       8.037 -10.666  39.312  1.00  0.00     0.328 A 
HETATM    3  N1  UNL     1       7.953  -9.364  39.637  1.00  0.00    -0.273 N 
ATOM      4  H1  UNL     1       7.101  -8.829  39.474  1.00  0.00     0.173 HD
HETATM    5  C2  UNL     1       9.043  -8.797  40.186  1.00  0.00     0.280 A 
HETATM    6  O2  UNL     1       8.967  -7.583  40.490  1.00  0.00    -0.265 OA
HETATM    7  C3  UNL     1      10.214  -9.476  40.425  1.00  0.00     0.146 A 
HETATM    8  N2  UNL     1      11.415  -9.174  40.943  1.00  0.00    -0.345 N 
ATOM      9  H2  UNL     1      11.682  -8.254  41.291  1.00  0.00     0.167 HD
HETATM   10  C4  UNL     1      12.222 -10.259  40.939  1.00  0.00     0.182 A 
HETATM   11  N3  UNL     1      11.504 -11.264  40.405  1.00  0.00    -0.336 N 
ATOM     12  H3  UNL     1      11.840 -12.216  40.267  1.00  0.00     0.168 HD
HETATM   13  C5  UNL     1      10.273 -10.822  40.080  1.00  0.00     0.143 A 
HETATM   14  N4  UNL     1       9.172 -11.356  39.535  1.00  0.00    -0.292 N 
ATOM     15  H4  UNL     1       9.194 -12.342  39.275  1.00  0.00     0.172 HD
ENDROOT
TORSDOF 0
ENDMDL
MODEL 5
REMARK VINA RESULT: -6.231827346      1.964      3.905
REMARK  0 active torsions:
REMARK  status: ('A' for Active; 'I' for Inactive)
ROOT
HETATM    1  O1  UNL     1       7.051  -8.720  39.585  1.00  0.00    -0.247 OA
HETATM    2  C1  UNL     1       8.213  -9.205  39.708  1.00  0.00     0.328 A 
HETATM    3  N1  UNL     1       8.486 -10.361  39.077  1.00  0.00    -0.273 N 
ATOM      4  H1  UNL     1       7.783 -10.838  38.513  1.00  0.00     0.173 HD
HETATM    5  C2  UNL     1       9.727 -10.860  39.221  1.00  0.00     0.280 A 
HETATM    6  O2  UNL     1       9.984 -11.937  38.633  1.00  0.00    -0.265 OA
HETATM    7  C3  UNL     1      10.708 -10.254  39.969  1.00  0.00     0.146 A 
HETATM    8  N2  UNL     1      11.988 -10.518  40.276  1.00  0.00    -0.345 N 
ATOM      9  H2  UNL     1      12.506 -11.334  39.951  1.00  0.00     0.167 HD
HETATM   10  C4  UNL     1      12.495  -9.554  41.076  1.00  0.00     0.182 A 
HETATM   11  N3  UNL     1      11.504  -8.664  41.272  1.00  0.00    -0.336 N 
ATOM     12  H3  UNL     1      11.578  -7.819  41.836  1.00  0.00     0.168 HD
HETATM   13  C5  UNL     1      10.399  -9.060  40.610  1.00  0.00     0.143 A 
HETATM   14  N4  UNL     1       9.155  -8.590  40.447  1.00  0.00    -0.292 N 
ATOM     15  H4  UNL     1       8.908  -7.715  40.910  1.00  0.00     0.172 HD
ENDROOT
TORSDOF 0
ENDMDL
