MODEL 1
REMARK VINA RESULT: -5.392743064      0.000      0.000
REMARK  5 active torsions:
REMARK  status: ('A' for Active; 'I' for Inactive)
REMARK    1  A    between atoms: C2_2  and  N1_3 
REMARK    2  A    between atoms: C2_2  and  C3_7 
REMARK       I    between atoms: C3_7  and  N2_9 
REMARK    3  A    between atoms: N2_9  and  N3_11 
REMARK    4  A    between atoms: N3_11  and  C4_12 
REMARK    5  A    between atoms: C4_12  and  O2_14 
ROOT
HETATM    1  C3  UNL     1       9.884 -10.451  39.304  1.00  0.00     0.276 C 
HETATM    2  O1  UNL     1       9.698  -9.222  39.221  1.00  0.00    -0.269 OA
HETATM    3  N2  UNL     1      10.917 -10.920  40.158  1.00  0.00    -0.197 N 
ATOM      4  H2  UNL     1      11.072 -11.926  40.233  1.00  0.00     0.205 HD
ENDROOT
BRANCH   1   5
HETATM    5  C2  UNL     1       9.019 -11.319  38.511  1.00  0.00     0.273 C 
HETATM    6  C1  UNL     1       7.534 -11.103  38.787  1.00  0.00     0.050 C 
BRANCH   5   7
HETATM    7  N1  UNL     1       9.257 -12.730  38.775  1.00  0.00    -0.067 N 
ATOM      8  H13 UNL     1       9.212 -12.977  39.763  1.00  0.00     0.275 HD
ATOM      9  H12 UNL     1       8.501 -13.340  38.464  1.00  0.00     0.275 HD
ATOM     10  H11 UNL     1      10.157 -12.937  38.340  1.00  0.00     0.275 HD
ENDBRANCH   5   7
ENDBRANCH   1   5
BRANCH   3  11
HETATM   11  N3  UNL     1      11.700 -10.090  40.873  1.00  0.00    -0.281 NA
BRANCH  11  12
HETATM   12  C4  UNL     1      12.454  -9.252  41.579  1.00  0.00     0.327 C 
HETATM   13  N4  UNL     1      12.560  -9.412  43.029  1.00  0.00    -0.040 NA
BRANCH  12  14
HETATM   14  O2  UNL     1      13.151  -8.215  41.161  1.00  0.00    -0.323 OA
ATOM     15  H2  UNL     1      14.078  -8.039  41.267  1.00  0.00     0.221 HD
ENDBRANCH  12  14
ENDBRANCH  11  12
ENDBRANCH   3  11
TORSDOF 5
ENDMDL
MODEL 2
REMARK VINA RESULT: -5.182951745      1.813      1.872
REMARK  5 active torsions:
REMARK  status: ('A' for Active; 'I' for Inactive)
REMARK    1  A    between atoms: C2_2  and  N1_3 
REMARK    2  A    between atoms: C2_2  and  C3_7 
REMARK       I    between atoms: C3_7  and  N2_9 
REMARK    3  A    between atoms: N2_9  and  N3_11 
REMARK    4  A    between atoms: N3_11  and  C4_12 
REMARK    5  A    between atoms: C4_12  and  O2_14 
ROOT
HETATM    1  C3  UNL     1       9.211 -10.006  39.366  1.00  0.00     0.276 C 
HETATM    2  O1  UNL     1      10.025 -10.180  38.439  1.00  0.00    -0.269 OA
HETATM    3  N2  UNL     1       9.707  -9.925  40.694  1.00  0.00    -0.197 N 
ATOM      4  H2  UNL     1       9.045  -9.779  41.456  1.00  0.00     0.205 HD
ENDROOT
BRANCH   1   5
HETATM    5  C2  UNL     1       7.799  -9.897  39.011  1.00  0.00     0.273 C 
HETATM    6  C1  UNL     1       7.035  -8.900  39.877  1.00  0.00     0.050 C 
BRANCH   5   7
HETATM    7  N1  UNL     1       7.091 -11.160  39.162  1.00  0.00    -0.067 N 
ATOM      8  H13 UNL     1       7.144 -11.551  40.102  1.00  0.00     0.275 HD
ATOM      9  H12 UNL     1       6.075 -11.068  39.128  1.00  0.00     0.275 HD
ATOM     10  H11 UNL     1       7.472 -11.771  38.440  1.00  0.00     0.275 HD
ENDBRANCH   5   7
ENDBRANCH   1   5
BRANCH   3  11
HETATM   11  N3  UNL     1      11.018 -10.033  40.986  1.00  0.00    -0.281 NA
BRANCH  11  12
HETATM   12  C4  UNL     1      12.308 -10.126  41.296  1.00  0.00     0.327 C 
HETATM   13  N4  UNL     1      13.061  -8.923  41.648  1.00  0.00    -0.040 NA
BRANCH  12  14
HETATM   14  O2  UNL     1      13.079 -11.194  41.317  1.00  0.00    -0.323 OA
ATOM     15  H2  UNL     1      13.624 -11.549  40.627  1.00  0.00     0.221 HD
ENDBRANCH  12  14
ENDBRANCH  11  12
ENDBRANCH   3  11
TORSDOF 5
ENDMDL
MODEL 3
REMARK VINA RESULT: -5.162286923      1.735      1.873
REMARK  5 active torsions:
REMARK  status: ('A' for Active; 'I' for Inactive)
REMARK    1  A    between atoms: C2_2  and  N1_3 
REMARK    2  A    between atoms: C2_2  and  C3_7 
REMARK       I    between atoms: C3_7  and  N2_9 
REMARK    3  A    between atoms: N2_9  and  N3_11 
REMARK    4  A    between atoms: N3_11  and  C4_12 
REMARK    5  A    between atoms: C4_12  and  O2_14 
ROOT
HETATM    1  C3  UNL     1       9.062  -9.579  39.565  1.00  0.00     0.276 C 
HETATM    2  O1  UNL     1       9.830  -9.951  38.656  1.00  0.00    -0.269 OA
HETATM    3  N2  UNL     1       9.628  -9.159  40.797  1.00  0.00    -0.197 N 
ATOM      4  H2  UNL     1       9.004  -8.851  41.543  1.00  0.00     0.205 HD
ENDROOT
BRANCH   1   5
HETATM    5  C2  UNL     1       7.629  -9.606  39.287  1.00  0.00     0.273 C 
HETATM    6  C1  UNL     1       6.809  -8.781  40.275  1.00  0.00     0.050 C 
BRANCH   5   7
HETATM    7  N1  UNL     1       7.076 -10.950  39.356  1.00  0.00    -0.067 N 
ATOM      8  H13 UNL     1       6.059 -10.973  39.427  1.00  0.00     0.275 HD
ATOM      9  H12 UNL     1       7.146 -11.468  38.480  1.00  0.00     0.275 HD
ATOM     10  H11 UNL     1       7.553 -11.399  40.137  1.00  0.00     0.275 HD
ENDBRANCH   5   7
ENDBRANCH   1   5
BRANCH   3  11
HETATM   11  N3  UNL     1      10.956  -9.151  41.020  1.00  0.00    -0.281 NA
BRANCH  11  12
HETATM   12  C4  UNL     1      12.271  -9.157  41.218  1.00  0.00     0.327 C 
HETATM   13  N4  UNL     1      12.980 -10.429  41.360  1.00  0.00    -0.040 NA
BRANCH  12  14
HETATM   14  O2  UNL     1      13.095  -8.137  41.340  1.00  0.00    -0.323 OA
ATOM     15  H2  UNL     1      14.032  -8.106  41.194  1.00  0.00     0.221 HD
ENDBRANCH  12  14
ENDBRANCH  11  12
ENDBRANCH   3  11
TORSDOF 5
ENDMDL
MODEL 4
REMARK VINA RESULT: -5.045043521      3.346      4.065
REMARK  5 active torsions:
REMARK  status: ('A' for Active; 'I' for Inactive)
REMARK    1  A    between atoms: C2_2  and  N1_3 
REMARK    2  A    between atoms: C2_2  and  C3_7 
REMARK       I    between atoms: C3_7  and  N2_9 
REMARK    3  A    between atoms: N2_9  and  N3_11 
REMARK    4  A    between atoms: N3_11  and  C4_12 
REMARK    5  A    between atoms: C4_12  and  O2_14 
ROOT
HETATM    1  C3  UNL     1       8.625  -8.882  41.922  1.00  0.00     0.276 C 
HETATM    2  O1  UNL     1       8.223 -10.061  41.968  1.00  0.00    -0.269 OA
HETATM    3  N2  UNL     1       9.941  -8.636  41.449  1.00  0.00    -0.197 N 
ATOM      4  H2  UNL     1      10.274  -7.673  41.407  1.00  0.00     0.205 HD
ENDROOT
BRANCH   1   5
HETATM    5  C2  UNL     1       7.703  -7.839  42.361  1.00  0.00     0.273 C 
HETATM    6  C1  UNL     1       7.581  -6.686  41.369  1.00  0.00     0.050 C 
BRANCH   5   7
HETATM    7  N1  UNL     1       8.117  -7.225  43.615  1.00  0.00    -0.067 N 
ATOM      8  H13 UNL     1       8.081  -7.858  44.413  1.00  0.00     0.275 HD
ATOM      9  H12 UNL     1       9.116  -7.026  43.665  1.00  0.00     0.275 HD
ATOM     10  H11 UNL     1       7.528  -6.399  43.718  1.00  0.00     0.275 HD
ENDBRANCH   5   7
ENDBRANCH   1   5
BRANCH   3  11
HETATM   11  N3  UNL     1      10.766  -9.625  41.055  1.00  0.00    -0.281 NA
BRANCH  11  12
HETATM   12  C4  UNL     1      11.591 -10.602  40.689  1.00  0.00     0.327 C 
HETATM   13  N4  UNL     1      12.986 -10.580  41.127  1.00  0.00    -0.040 NA
BRANCH  12  14
HETATM   14  O2  UNL     1      11.348 -11.647  39.926  1.00  0.00    -0.323 OA
ATOM     15  H2  UNL     1      10.551 -11.876  39.463  1.00  0.00     0.221 HD
ENDBRANCH  12  14
ENDBRANCH  11  12
ENDBRANCH   3  11
TORSDOF 5
ENDMDL
MODEL 5
REMARK VINA RESULT: -4.950959984      2.287      2.364
REMARK  5 active torsions:
REMARK  status: ('A' for Active; 'I' for Inactive)
REMARK    1  A    between atoms: C2_2  and  N1_3 
REMARK    2  A    between atoms: C2_2  and  C3_7 
REMARK       I    between atoms: C3_7  and  N2_9 
REMARK    3  A    between atoms: N2_9  and  N3_11 
REMARK    4  A    between atoms: N3_11  and  C4_12 
REMARK    5  A    between atoms: C4_12  and  O2_14 
ROOT
HETATM    1  C3  UNL     1       8.776  -9.713  40.299  1.00  0.00     0.276 C 
HETATM    2  O1  UNL     1       8.707 -10.287  41.403  1.00  0.00    -0.269 OA
HETATM    3  N2  UNL     1      10.060  -9.407  39.776  1.00  0.00    -0.197 N 
ATOM      4  H2  UNL     1      10.122  -8.939  38.872  1.00  0.00     0.205 HD
ENDROOT
BRANCH   1   5
HETATM    5  C2  UNL     1       7.520  -9.397  39.625  1.00  0.00     0.273 C 
HETATM    6  C1  UNL     1       6.749  -8.260  40.288  1.00  0.00     0.050 C 
BRANCH   5   7
HETATM    7  N1  UNL     1       6.601 -10.526  39.609  1.00  0.00    -0.067 N 
ATOM      8  H13 UNL     1       6.993 -11.369  39.188  1.00  0.00     0.275 HD
ATOM      9  H12 UNL     1       6.423 -10.925  40.531  1.00  0.00     0.275 HD
ATOM     10  H11 UNL     1       5.762 -10.185  39.140  1.00  0.00     0.275 HD
ENDBRANCH   5   7
ENDBRANCH   1   5
BRANCH   3  11
HETATM   11  N3  UNL     1      11.199  -9.710  40.428  1.00  0.00    -0.281 NA
BRANCH  11  12
HETATM   12  C4  UNL     1      12.318  -9.991  41.089  1.00  0.00     0.327 C 
HETATM   13  N4  UNL     1      13.078  -8.915  41.725  1.00  0.00    -0.040 NA
BRANCH  12  14
HETATM   14  O2  UNL     1      12.909 -11.156  41.257  1.00  0.00    -0.323 OA
ATOM     15  H2  UNL     1      13.098 -11.618  42.065  1.00  0.00     0.221 HD
ENDBRANCH  12  14
ENDBRANCH  11  12
ENDBRANCH   3  11
TORSDOF 5
ENDMDL
