MODEL 1
REMARK VINA RESULT: -6.675837523      0.000      0.000
REMARK  2 active torsions:
REMARK  status: ('A' for Active; 'I' for Inactive)
REMARK    1  A    between atoms: C4_8  and  C5_9 
REMARK       I    between atoms: C5_9  and  N2_11 
REMARK    2  A    between atoms: N2_11  and  N3_13 
ROOT
HETATM    1  C1  UNL     1       9.333 -11.991  38.396  1.00  0.00     0.071 C 
HETATM    2  C2  UNL     1       8.731 -10.741  38.928  1.00  0.00     0.051 A 
HETATM    3  N1  UNL     1       7.415 -10.379  38.752  1.00  0.00    -0.261 N 
ATOM      4  H1  UNL     1       6.718 -10.924  38.244  1.00  0.00     0.194 HD
HETATM    5  O1  UNL     1       7.198  -9.253  39.327  1.00  0.00    -0.194 OA
HETATM    6  C3  UNL     1       8.278  -8.793  39.896  1.00  0.00     0.322 A 
HETATM    7  O2  UNL     1       8.322  -7.707  40.522  1.00  0.00    -0.257 OA
HETATM    8  C4  UNL     1       9.286  -9.732  39.656  1.00  0.00     0.134 A 
ENDROOT
BRANCH   8   9
HETATM    9  C5  UNL     1      10.646  -9.595  40.125  1.00  0.00     0.277 C 
HETATM   10  O3  UNL     1      11.465 -10.566  39.859  1.00  0.00    -0.266 OA
HETATM   11  N2  UNL     1      11.219  -8.540  40.842  1.00  0.00    -0.272 N 
ATOM     12  H2  UNL     1      10.651  -7.732  41.097  1.00  0.00     0.189 HD
BRANCH  11  13
HETATM   13  N3  UNL     1      12.562  -8.586  41.211  1.00  0.00    -0.342 N 
ATOM     14  H32 UNL     1      12.961  -9.478  41.507  1.00  0.00     0.176 HD
ATOM     15  H31 UNL     1      13.134  -7.742  41.186  1.00  0.00     0.176 HD
ENDBRANCH  11  13
ENDBRANCH   8   9
TORSDOF 2
ENDMDL
MODEL 2
REMARK VINA RESULT: -6.663792819      2.406      3.789
REMARK  2 active torsions:
REMARK  status: ('A' for Active; 'I' for Inactive)
REMARK    1  A    between atoms: C4_8  and  C5_9 
REMARK       I    between atoms: C5_9  and  N2_11 
REMARK    2  A    between atoms: N2_11  and  N3_13 
ROOT
HETATM    1  C1  UNL     1       9.648 -11.221  39.288  1.00  0.00     0.071 C 
HETATM    2  C2  UNL     1      10.735 -10.807  40.214  1.00  0.00     0.051 A 
HETATM    3  N1  UNL     1      11.968 -11.414  40.281  1.00  0.00    -0.261 N 
ATOM      4  H1  UNL     1      12.267 -12.204  39.709  1.00  0.00     0.194 HD
HETATM    5  O1  UNL     1      12.685 -10.833  41.172  1.00  0.00    -0.194 OA
HETATM    6  C3  UNL     1      12.037  -9.855  41.741  1.00  0.00     0.322 A 
HETATM    7  O2  UNL     1      12.524  -9.135  42.645  1.00  0.00    -0.257 OA
HETATM    8  C4  UNL     1      10.774  -9.812  41.144  1.00  0.00     0.134 A 
ENDROOT
BRANCH   8   9
HETATM    9  C5  UNL     1       9.745  -8.861  41.497  1.00  0.00     0.277 C 
HETATM   10  O3  UNL     1       9.055  -9.105  42.569  1.00  0.00    -0.266 OA
HETATM   11  N2  UNL     1       9.377  -7.687  40.832  1.00  0.00    -0.272 N 
ATOM     12  H2  UNL     1       9.865  -7.414  39.979  1.00  0.00     0.189 HD
BRANCH  11  13
HETATM   13  N3  UNL     1       8.348  -6.889  41.329  1.00  0.00    -0.342 N 
ATOM     14  H32 UNL     1       7.436  -6.920  40.871  1.00  0.00     0.176 HD
ATOM     15  H31 UNL     1       8.506  -6.284  42.135  1.00  0.00     0.176 HD
ENDBRANCH  11  13
ENDBRANCH   8   9
TORSDOF 2
ENDMDL
MODEL 3
REMARK VINA RESULT: -6.612488219      2.367      3.821
REMARK  2 active torsions:
REMARK  status: ('A' for Active; 'I' for Inactive)
REMARK    1  A    between atoms: C4_8  and  C5_9 
REMARK       I    between atoms: C5_9  and  N2_11 
REMARK    2  A    between atoms: N2_11  and  N3_13 
ROOT
HETATM    1  C1  UNL     1       9.679 -11.221  39.273  1.00  0.00     0.071 C 
HETATM    2  C2  UNL     1      10.761 -10.803  40.203  1.00  0.00     0.051 A 
HETATM    3  N1  UNL     1      12.002 -11.396  40.264  1.00  0.00    -0.261 N 
ATOM      4  H1  UNL     1      12.310 -12.176  39.683  1.00  0.00     0.194 HD
HETATM    5  O1  UNL     1      12.711 -10.816  41.161  1.00  0.00    -0.194 OA
HETATM    6  C3  UNL     1      12.052  -9.852  41.741  1.00  0.00     0.322 A 
HETATM    7  O2  UNL     1      12.529  -9.136  42.653  1.00  0.00    -0.257 OA
HETATM    8  C4  UNL     1      10.787  -9.819  41.144  1.00  0.00     0.134 A 
ENDROOT
BRANCH   8   9
HETATM    9  C5  UNL     1       9.747  -8.884  41.507  1.00  0.00     0.277 C 
HETATM   10  O3  UNL     1       9.258  -8.144  40.560  1.00  0.00    -0.266 OA
HETATM   11  N2  UNL     1       9.179  -8.657  42.764  1.00  0.00    -0.272 N 
ATOM     12  H2  UNL     1       9.500  -9.192  43.570  1.00  0.00     0.189 HD
BRANCH  11  13
HETATM   13  N3  UNL     1       8.175  -7.702  42.922  1.00  0.00    -0.342 N 
ATOM     14  H32 UNL     1       7.303  -7.814  42.404  1.00  0.00     0.176 HD
ATOM     15  H31 UNL     1       8.313  -6.906  43.544  1.00  0.00     0.176 HD
ENDBRANCH  11  13
ENDBRANCH   8   9
TORSDOF 2
ENDMDL
MODEL 4
REMARK VINA RESULT: -6.509507243      1.314      2.378
REMARK  2 active torsions:
REMARK  status: ('A' for Active; 'I' for Inactive)
REMARK    1  A    between atoms: C4_8  and  C5_9 
REMARK       I    between atoms: C5_9  and  N2_11 
REMARK    2  A    between atoms: N2_11  and  N3_13 
ROOT
HETATM    1  C1  UNL     1       7.901  -7.746  40.938  1.00  0.00     0.071 C 
HETATM    2  C2  UNL     1       8.121  -8.896  40.023  1.00  0.00     0.051 A 
HETATM    3  N1  UNL     1       7.168  -9.396  39.165  1.00  0.00    -0.261 N 
ATOM      4  H1  UNL     1       6.219  -9.035  39.065  1.00  0.00     0.194 HD
HETATM    5  O1  UNL     1       7.657 -10.384  38.509  1.00  0.00    -0.194 OA
HETATM    6  C3  UNL     1       8.894 -10.617  38.850  1.00  0.00     0.322 A 
HETATM    7  O2  UNL     1       9.589 -11.533  38.350  1.00  0.00    -0.257 OA
HETATM    8  C4  UNL     1       9.223  -9.672  39.826  1.00  0.00     0.134 A 
ENDROOT
BRANCH   8   9
HETATM    9  C5  UNL     1      10.516  -9.590  40.468  1.00  0.00     0.277 C 
HETATM   10  O3  UNL     1      11.021 -10.694  40.926  1.00  0.00    -0.266 OA
HETATM   11  N2  UNL     1      11.318  -8.463  40.672  1.00  0.00    -0.272 N 
ATOM     12  H2  UNL     1      11.002  -7.550  40.345  1.00  0.00     0.189 HD
BRANCH  11  13
HETATM   13  N3  UNL     1      12.547  -8.581  41.319  1.00  0.00    -0.342 N 
ATOM     14  H32 UNL     1      12.816  -9.487  41.704  1.00  0.00     0.176 HD
ATOM     15  H31 UNL     1      13.165  -7.774  41.405  1.00  0.00     0.176 HD
ENDBRANCH  11  13
ENDBRANCH   8   9
TORSDOF 2
ENDMDL
MODEL 5
REMARK VINA RESULT: -6.242554283      1.697      4.365
REMARK  2 active torsions:
REMARK  status: ('A' for Active; 'I' for Inactive)
REMARK    1  A    between atoms: C4_8  and  C5_9 
REMARK       I    between atoms: C5_9  and  N2_11 
REMARK    2  A    between atoms: N2_11  and  N3_13 
ROOT
HETATM    1  C1  UNL     1       8.486  -7.397  41.019  1.00  0.00     0.071 C 
HETATM    2  C2  UNL     1       9.364  -8.521  40.598  1.00  0.00     0.051 A 
HETATM    3  N1  UNL     1      10.732  -8.532  40.746  1.00  0.00    -0.261 N 
ATOM      4  H1  UNL     1      11.286  -7.780  41.157  1.00  0.00     0.194 HD
HETATM    5  O1  UNL     1      11.204  -9.634  40.290  1.00  0.00    -0.194 OA
HETATM    6  C3  UNL     1      10.257 -10.402  39.826  1.00  0.00     0.322 A 
HETATM    7  O2  UNL     1      10.466 -11.533  39.325  1.00  0.00    -0.257 OA
HETATM    8  C4  UNL     1       9.056  -9.711  40.010  1.00  0.00     0.134 A 
ENDROOT
BRANCH   8   9
HETATM    9  C5  UNL     1       7.761 -10.224  39.625  1.00  0.00     0.277 C 
HETATM   10  O3  UNL     1       7.477 -10.223  38.359  1.00  0.00    -0.266 OA
HETATM   11  N2  UNL     1       6.746 -10.731  40.442  1.00  0.00    -0.272 N 
ATOM     12  H2  UNL     1       6.881 -10.771  41.452  1.00  0.00     0.189 HD
BRANCH  11  13
HETATM   13  N3  UNL     1       5.552 -11.184  39.883  1.00  0.00    -0.342 N 
ATOM     14  H32 UNL     1       5.588 -11.909  39.167  1.00  0.00     0.176 HD
ATOM     15  H31 UNL     1       4.660 -10.794  40.187  1.00  0.00     0.176 HD
ENDBRANCH  11  13
ENDBRANCH   8   9
TORSDOF 2
ENDMDL
