MODEL 1
REMARK VINA RESULT: -5.417918595      0.000      0.000
REMARK  3 active torsions:
REMARK  status: ('A' for Active; 'I' for Inactive)
REMARK       I    between atoms: N1_2  and  C2_4 
REMARK    1  A    between atoms: N3_6  and  O1_8 
REMARK    2  A    between atoms: O1_8  and  C3_9 
REMARK       I    between atoms: C3_9  and  N4_11 
REMARK    3  A    between atoms: N4_11  and  N5_13 
ROOT
HETATM    1  O1  UNL     1      10.538 -10.855  40.741  1.00  0.00    -0.177 OA
ENDROOT
BRANCH   1   2
HETATM    2  N3  UNL     1       9.678 -10.354  39.799  1.00  0.00    -0.228 N 
HETATM    3  C2  UNL     1       8.412 -10.403  40.062  1.00  0.00     0.208 C 
HETATM    4  N1  UNL     1       7.911 -10.946  41.264  1.00  0.00    -0.367 N 
HETATM    5  N2  UNL     1       7.563  -9.865  39.041  1.00  0.00    -0.062 NA
HETATM    6  C1  UNL     1       6.689 -10.485  41.885  1.00  0.00     0.148 C 
ATOM      7  H1  UNL     1       8.435 -11.696  41.714  1.00  0.00     0.161 HD
ATOM      8  H3  UNL     1      10.022  -9.957  38.924  1.00  0.00     0.198 HD
ENDBRANCH   1   2
BRANCH   1   9
HETATM    9  C3  UNL     1      11.709 -10.173  40.983  1.00  0.00     0.401 C 
HETATM   10  O2  UNL     1      12.758 -10.808  41.203  1.00  0.00    -0.235 OA
HETATM   11  N4  UNL     1      11.717  -8.763  40.981  1.00  0.00    -0.250 N 
ATOM     12  H4  UNL     1      10.859  -8.242  40.800  1.00  0.00     0.191 HD
BRANCH  11  13
HETATM   13  N5  UNL     1      12.926  -8.083  41.232  1.00  0.00    -0.341 N 
ATOM     14  H52 UNL     1      13.433  -8.263  42.099  1.00  0.00     0.177 HD
ATOM     15  H51 UNL     1      13.276  -7.420  40.539  1.00  0.00     0.177 HD
ENDBRANCH  11  13
ENDBRANCH   1   9
TORSDOF 3
ENDMDL
MODEL 2
REMARK VINA RESULT: -5.344919994      1.322      1.619
REMARK  3 active torsions:
REMARK  status: ('A' for Active; 'I' for Inactive)
REMARK       I    between atoms: N1_2  and  C2_4 
REMARK    1  A    between atoms: N3_6  and  O1_8 
REMARK    2  A    between atoms: O1_8  and  C3_9 
REMARK       I    between atoms: C3_9  and  N4_11 
REMARK    3  A    between atoms: N4_11  and  N5_13 
ROOT
HETATM    1  O1  UNL     1      10.843 -10.916  40.949  1.00  0.00    -0.177 OA
ENDROOT
BRANCH   1   2
HETATM    2  N3  UNL     1      10.695 -11.542  39.739  1.00  0.00    -0.228 N 
HETATM    3  C2  UNL     1       9.502 -11.593  39.238  1.00  0.00     0.208 C 
HETATM    4  N1  UNL     1       8.384 -11.033  39.890  1.00  0.00    -0.367 N 
HETATM    5  N2  UNL     1       9.409 -12.261  37.973  1.00  0.00    -0.062 NA
HETATM    6  C1  UNL     1       7.245 -10.499  39.177  1.00  0.00     0.148 C 
ATOM      7  H1  UNL     1       8.380 -11.004  40.909  1.00  0.00     0.161 HD
ATOM      8  H3  UNL     1      11.492 -11.953  39.253  1.00  0.00     0.198 HD
ENDBRANCH   1   2
BRANCH   1   9
HETATM    9  C3  UNL     1      11.953 -10.123  41.141  1.00  0.00     0.401 C 
HETATM   10  O2  UNL     1      13.048 -10.651  41.412  1.00  0.00    -0.235 OA
HETATM   11  N4  UNL     1      11.844  -8.721  41.030  1.00  0.00    -0.250 N 
ATOM     12  H4  UNL     1      10.948  -8.288  40.808  1.00  0.00     0.191 HD
BRANCH  11  13
HETATM   13  N5  UNL     1      12.992  -7.927  41.230  1.00  0.00    -0.341 N 
ATOM     14  H52 UNL     1      13.915  -8.327  41.063  1.00  0.00     0.177 HD
ATOM     15  H51 UNL     1      12.879  -6.962  41.541  1.00  0.00     0.177 HD
ENDBRANCH  11  13
ENDBRANCH   1   9
TORSDOF 3
ENDMDL
MODEL 3
REMARK VINA RESULT: -5.251594920      1.902      2.179
REMARK  3 active torsions:
REMARK  status: ('A' for Active; 'I' for Inactive)
REMARK       I    between atoms: N1_2  and  C2_4 
REMARK    1  A    between atoms: N3_6  and  O1_8 
REMARK    2  A    between atoms: O1_8  and  C3_9 
REMARK       I    between atoms: C3_9  and  N4_11 
REMARK    3  A    between atoms: N4_11  and  N5_13 
ROOT
HETATM    1  O1  UNL     1       8.326  -8.745  40.083  1.00  0.00    -0.177 OA
ENDROOT
BRANCH   1   2
HETATM    2  N3  UNL     1       7.445  -9.609  39.488  1.00  0.00    -0.228 N 
HETATM    3  C2  UNL     1       6.910 -10.522  40.235  1.00  0.00     0.208 C 
HETATM    4  N1  UNL     1       7.206 -10.642  41.608  1.00  0.00    -0.367 N 
HETATM    5  N2  UNL     1       5.999 -11.396  39.557  1.00  0.00    -0.062 NA
HETATM    6  C1  UNL     1       6.256 -11.145  42.575  1.00  0.00     0.148 C 
ATOM      7  H1  UNL     1       8.131 -10.362  41.933  1.00  0.00     0.161 HD
ATOM      8  H3  UNL     1       7.219  -9.537  38.496  1.00  0.00     0.198 HD
ENDBRANCH   1   2
BRANCH   1   9
HETATM    9  C3  UNL     1       9.673  -8.997  39.957  1.00  0.00     0.401 C 
HETATM   10  O2  UNL     1      10.087  -9.671  38.994  1.00  0.00    -0.235 OA
HETATM   11  N4  UNL     1      10.577  -8.494  40.916  1.00  0.00    -0.250 N 
ATOM     12  H4  UNL     1      10.239  -7.942  41.704  1.00  0.00     0.191 HD
BRANCH  11  13
HETATM   13  N5  UNL     1      11.953  -8.764  40.770  1.00  0.00    -0.341 N 
ATOM     14  H52 UNL     1      12.357  -8.824  39.835  1.00  0.00     0.177 HD
ATOM     15  H51 UNL     1      12.524  -8.897  41.605  1.00  0.00     0.177 HD
ENDBRANCH  11  13
ENDBRANCH   1   9
TORSDOF 3
ENDMDL
MODEL 4
REMARK VINA RESULT: -5.224664480      1.228      1.264
REMARK  3 active torsions:
REMARK  status: ('A' for Active; 'I' for Inactive)
REMARK       I    between atoms: N1_2  and  C2_4 
REMARK    1  A    between atoms: N3_6  and  O1_8 
REMARK    2  A    between atoms: O1_8  and  C3_9 
REMARK       I    between atoms: C3_9  and  N4_11 
REMARK    3  A    between atoms: N4_11  and  N5_13 
ROOT
HETATM    1  O1  UNL     1       9.967 -10.864  41.062  1.00  0.00    -0.177 OA
ENDROOT
BRANCH   1   2
HETATM    2  N3  UNL     1       9.146 -11.153  40.004  1.00  0.00    -0.228 N 
HETATM    3  C2  UNL     1       8.082 -10.429  39.860  1.00  0.00     0.208 C 
HETATM    4  N1  UNL     1       7.759  -9.379  40.744  1.00  0.00    -0.367 N 
HETATM    5  N2  UNL     1       7.263 -10.779  38.737  1.00  0.00    -0.062 NA
HETATM    6  C1  UNL     1       7.028  -8.202  40.331  1.00  0.00     0.148 C 
ATOM      7  H1  UNL     1       8.053  -9.454  41.717  1.00  0.00     0.161 HD
ATOM      8  H3  UNL     1       9.364 -11.909  39.354  1.00  0.00     0.198 HD
ENDBRANCH   1   2
BRANCH   1   9
HETATM    9  C3  UNL     1      11.158 -10.223  40.807  1.00  0.00     0.401 C 
HETATM   10  O2  UNL     1      11.964 -10.718  39.997  1.00  0.00    -0.235 OA
HETATM   11  N4  UNL     1      11.460  -9.011  41.463  1.00  0.00    -0.250 N 
ATOM     12  H4  UNL     1      10.801  -8.604  42.127  1.00  0.00     0.191 HD
BRANCH  11  13
HETATM   13  N5  UNL     1      12.685  -8.370  41.189  1.00  0.00    -0.341 N 
ATOM     14  H52 UNL     1      13.449  -8.438  41.862  1.00  0.00     0.177 HD
ATOM     15  H51 UNL     1      12.788  -7.846  40.320  1.00  0.00     0.177 HD
ENDBRANCH  11  13
ENDBRANCH   1   9
TORSDOF 3
ENDMDL
MODEL 5
REMARK VINA RESULT: -5.195045108      2.350      2.693
REMARK  3 active torsions:
REMARK  status: ('A' for Active; 'I' for Inactive)
REMARK       I    between atoms: N1_2  and  C2_4 
REMARK    1  A    between atoms: N3_6  and  O1_8 
REMARK    2  A    between atoms: O1_8  and  C3_9 
REMARK       I    between atoms: C3_9  and  N4_11 
REMARK    3  A    between atoms: N4_11  and  N5_13 
ROOT
HETATM    1  O1  UNL     1       8.185 -11.117  38.954  1.00  0.00    -0.177 OA
ENDROOT
BRANCH   1   2
HETATM    2  N3  UNL     1       7.329 -10.065  39.147  1.00  0.00    -0.228 N 
HETATM    3  C2  UNL     1       6.686 -10.018  40.270  1.00  0.00     0.208 C 
HETATM    4  N1  UNL     1       6.843 -10.999  41.271  1.00  0.00    -0.367 N 
HETATM    5  N2  UNL     1       5.806  -8.897  40.414  1.00  0.00    -0.062 NA
HETATM    6  C1  UNL     1       6.700 -10.712  42.681  1.00  0.00     0.148 C 
ATOM      7  H1  UNL     1       7.068 -11.952  40.988  1.00  0.00     0.161 HD
ATOM      8  H3  UNL     1       7.202  -9.346  38.434  1.00  0.00     0.198 HD
ENDBRANCH   1   2
BRANCH   1   9
HETATM    9  C3  UNL     1       9.529 -10.911  39.167  1.00  0.00     0.401 C 
HETATM   10  O2  UNL     1      10.177 -10.196  38.379  1.00  0.00    -0.235 OA
HETATM   11  N4  UNL     1      10.166 -11.509  40.274  1.00  0.00    -0.250 N 
ATOM     12  H4  UNL     1       9.638 -12.094  40.921  1.00  0.00     0.191 HD
BRANCH  11  13
HETATM   13  N5  UNL     1      11.544 -11.287  40.475  1.00  0.00    -0.341 N 
ATOM     14  H52 UNL     1      12.087 -10.814  39.753  1.00  0.00     0.177 HD
ATOM     15  H51 UNL     1      11.977 -11.605  41.343  1.00  0.00     0.177 HD
ENDBRANCH  11  13
ENDBRANCH   1   9
TORSDOF 3
ENDMDL
