MODEL 1
REMARK VINA RESULT: -6.255454085      0.000      0.000
REMARK  2 active torsions:
REMARK  status: ('A' for Active; 'I' for Inactive)
REMARK    1  A    between atoms: N1_1  and  N2_4 
REMARK       I    between atoms: N2_4  and  C1_6 
REMARK    2  A    between atoms: C1_6  and  C2_8 
ROOT
HETATM    1  C2  UNL     1      10.553 -10.342  40.184  1.00  0.00     0.195 A 
HETATM    2  N3  UNL     1      11.312 -11.398  40.496  1.00  0.00    -0.277 N 
ATOM      3  H3  UNL     1      11.112 -12.375  40.285  1.00  0.00     0.189 HD
HETATM    4  N4  UNL     1      12.372 -10.932  41.131  1.00  0.00    -0.250 N 
ATOM      5  H4  UNL     1      13.131 -11.509  41.493  1.00  0.00     0.192 HD
HETATM    6  C3  UNL     1      12.314  -9.595  41.234  1.00  0.00     0.340 A 
HETATM    7  O2  UNL     1      13.129  -8.795  41.766  1.00  0.00    -0.245 OA
HETATM    8  N5  UNL     1      11.164  -9.233  40.635  1.00  0.00    -0.288 N 
ATOM      9  H5  UNL     1      10.816  -8.279  40.540  1.00  0.00     0.172 HD
ENDROOT
BRANCH   1  10
HETATM   10  C1  UNL     1       9.284 -10.437  39.473  1.00  0.00     0.305 C 
HETATM   11  N2  UNL     1       8.151 -11.083  40.063  1.00  0.00    -0.270 N 
ATOM     12  H2  UNL     1       8.204 -11.492  40.996  1.00  0.00     0.189 HD
HETATM   13  O1  UNL     1       9.245  -9.928  38.330  1.00  0.00    -0.263 OA
BRANCH  11  14
HETATM   14  N1  UNL     1       6.973 -11.135  39.318  1.00  0.00    -0.342 N 
ATOM     15  H12 UNL     1       6.996 -11.416  38.338  1.00  0.00     0.176 HD
ATOM     16  H11 UNL     1       6.103 -10.882  39.789  1.00  0.00     0.176 HD
ENDBRANCH  11  14
ENDBRANCH   1  10
TORSDOF 2
ENDMDL
MODEL 2
REMARK VINA RESULT: -6.132442418      1.677      4.307
REMARK  2 active torsions:
REMARK  status: ('A' for Active; 'I' for Inactive)
REMARK    1  A    between atoms: N1_1  and  N2_4 
REMARK       I    between atoms: N2_4  and  C1_6 
REMARK    2  A    between atoms: C1_6  and  C2_8 
ROOT
HETATM    1  C2  UNL     1      10.385 -10.568  39.873  1.00  0.00     0.195 A 
HETATM    2  N3  UNL     1      10.157 -11.867  39.640  1.00  0.00    -0.277 N 
ATOM      3  H3  UNL     1      10.777 -12.643  39.869  1.00  0.00     0.189 HD
HETATM    4  N4  UNL     1       8.976 -11.948  39.057  1.00  0.00    -0.250 N 
ATOM      5  H4  UNL     1       8.535 -12.819  38.760  1.00  0.00     0.192 HD
HETATM    6  C3  UNL     1       8.434 -10.729  38.908  1.00  0.00     0.340 A 
HETATM    7  O2  UNL     1       7.329 -10.398  38.401  1.00  0.00    -0.245 OA
HETATM    8  N5  UNL     1       9.330  -9.867  39.424  1.00  0.00    -0.288 N 
ATOM      9  H5  UNL     1       9.225  -8.854  39.467  1.00  0.00     0.172 HD
ENDROOT
BRANCH   1  10
HETATM   10  C1  UNL     1      11.593 -10.058  40.507  1.00  0.00     0.305 C 
HETATM   11  N2  UNL     1      11.761  -8.660  40.765  1.00  0.00    -0.270 N 
ATOM     12  H2  UNL     1      11.039  -7.987  40.510  1.00  0.00     0.189 HD
HETATM   13  O1  UNL     1      12.465 -10.905  40.810  1.00  0.00    -0.263 OA
BRANCH  11  14
HETATM   14  N1  UNL     1      12.947  -8.251  41.375  1.00  0.00    -0.342 N 
ATOM     15  H12 UNL     1      13.061  -8.337  42.385  1.00  0.00     0.176 HD
ATOM     16  H11 UNL     1      13.681  -7.868  40.778  1.00  0.00     0.176 HD
ENDBRANCH  11  14
ENDBRANCH   1  10
TORSDOF 2
ENDMDL
MODEL 3
REMARK VINA RESULT: -6.093137521      1.982      4.658
REMARK  2 active torsions:
REMARK  status: ('A' for Active; 'I' for Inactive)
REMARK    1  A    between atoms: N1_1  and  N2_4 
REMARK       I    between atoms: N2_4  and  C1_6 
REMARK    2  A    between atoms: C1_6  and  C2_8 
ROOT
HETATM    1  C2  UNL     1       9.250  -9.932  39.935  1.00  0.00     0.195 A 
HETATM    2  N3  UNL     1       8.424  -8.889  39.788  1.00  0.00    -0.277 N 
ATOM      3  H3  UNL     1       8.668  -7.903  39.878  1.00  0.00     0.189 HD
HETATM    4  N4  UNL     1       7.232  -9.382  39.506  1.00  0.00    -0.250 N 
ATOM      5  H4  UNL     1       6.397  -8.821  39.341  1.00  0.00     0.192 HD
HETATM    6  C3  UNL     1       7.270 -10.723  39.466  1.00  0.00     0.340 A 
HETATM    7  O2  UNL     1       6.346 -11.546  39.230  1.00  0.00    -0.245 OA
HETATM    8  N5  UNL     1       8.545 -11.060  39.738  1.00  0.00    -0.288 N 
ATOM      9  H5  UNL     1       8.913 -12.010  39.786  1.00  0.00     0.172 HD
ENDROOT
BRANCH   1  10
HETATM   10  C1  UNL     1      10.665  -9.806  40.255  1.00  0.00     0.305 C 
HETATM   11  N2  UNL     1      11.176  -8.640  40.910  1.00  0.00    -0.270 N 
ATOM     12  H2  UNL     1      10.561  -7.869  41.169  1.00  0.00     0.189 HD
HETATM   13  O1  UNL     1      11.399 -10.766  39.927  1.00  0.00    -0.263 OA
BRANCH  11  14
HETATM   14  N1  UNL     1      12.543  -8.595  41.182  1.00  0.00    -0.342 N 
ATOM     15  H12 UNL     1      13.099  -9.450  41.165  1.00  0.00     0.176 HD
ATOM     16  H11 UNL     1      12.955  -7.686  41.395  1.00  0.00     0.176 HD
ENDBRANCH  11  14
ENDBRANCH   1  10
TORSDOF 2
ENDMDL
MODEL 4
REMARK VINA RESULT: -6.033027023      0.937      1.503
REMARK  2 active torsions:
REMARK  status: ('A' for Active; 'I' for Inactive)
REMARK    1  A    between atoms: N1_1  and  N2_4 
REMARK       I    between atoms: N2_4  and  C1_6 
REMARK    2  A    between atoms: C1_6  and  C2_8 
ROOT
HETATM    1  C2  UNL     1      10.281 -10.114  40.138  1.00  0.00     0.195 A 
HETATM    2  N3  UNL     1      10.407  -8.789  39.992  1.00  0.00    -0.277 N 
ATOM      3  H3  UNL     1       9.853  -8.189  39.382  1.00  0.00     0.189 HD
HETATM    4  N4  UNL     1      11.386  -8.408  40.793  1.00  0.00    -0.250 N 
ATOM      5  H4  UNL     1      11.710  -7.447  40.895  1.00  0.00     0.192 HD
HETATM    6  C3  UNL     1      11.895  -9.460  41.454  1.00  0.00     0.340 A 
HETATM    7  O2  UNL     1      12.830  -9.501  42.297  1.00  0.00    -0.245 OA
HETATM    8  N5  UNL     1      11.194 -10.529  41.033  1.00  0.00    -0.288 N 
ATOM      9  H5  UNL     1      11.331 -11.491  41.343  1.00  0.00     0.172 HD
ENDROOT
BRANCH   1  10
HETATM   10  C1  UNL     1       9.303 -10.919  39.418  1.00  0.00     0.305 C 
HETATM   11  N2  UNL     1       7.908 -10.841  39.729  1.00  0.00    -0.270 N 
ATOM     12  H2  UNL     1       7.564 -10.220  40.461  1.00  0.00     0.189 HD
HETATM   13  O1  UNL     1       9.750 -11.673  38.524  1.00  0.00    -0.263 OA
BRANCH  11  14
HETATM   14  N1  UNL     1       7.034 -11.645  38.995  1.00  0.00    -0.342 N 
ATOM     15  H12 UNL     1       7.295 -11.969  38.064  1.00  0.00     0.176 HD
ATOM     16  H11 UNL     1       6.141 -11.888  39.424  1.00  0.00     0.176 HD
ENDBRANCH  11  14
ENDBRANCH   1  10
TORSDOF 2
ENDMDL
MODEL 5
REMARK VINA RESULT: -5.901616907      1.269      1.692
REMARK  2 active torsions:
REMARK  status: ('A' for Active; 'I' for Inactive)
REMARK    1  A    between atoms: N1_1  and  N2_4 
REMARK       I    between atoms: N2_4  and  C1_6 
REMARK    2  A    between atoms: C1_6  and  C2_8 
ROOT
HETATM    1  C2  UNL     1       9.900  -9.629  40.396  1.00  0.00     0.195 A 
HETATM    2  N3  UNL     1      10.468  -8.438  40.624  1.00  0.00    -0.277 N 
ATOM      3  H3  UNL     1      10.026  -7.525  40.528  1.00  0.00     0.189 HD
HETATM    4  N4  UNL     1      11.713  -8.675  40.997  1.00  0.00    -0.250 N 
ATOM      5  H4  UNL     1      12.393  -7.953  41.237  1.00  0.00     0.192 HD
HETATM    6  C3  UNL     1      11.961  -9.994  41.016  1.00  0.00     0.340 A 
HETATM    7  O2  UNL     1      13.020 -10.607  41.315  1.00  0.00    -0.245 OA
HETATM    8  N5  UNL     1      10.813 -10.586  40.635  1.00  0.00    -0.288 N 
ATOM      9  H5  UNL     1      10.663 -11.590  40.544  1.00  0.00     0.172 HD
ENDROOT
BRANCH   1  10
HETATM   10  C1  UNL     1       8.520  -9.798  39.962  1.00  0.00     0.305 C 
HETATM   11  N2  UNL     1       7.957 -11.100  39.774  1.00  0.00    -0.270 N 
ATOM     12  H2  UNL     1       8.508 -11.942  39.939  1.00  0.00     0.189 HD
HETATM   13  O1  UNL     1       7.864  -8.749  39.766  1.00  0.00    -0.263 OA
BRANCH  11  14
HETATM   14  N1  UNL     1       6.628 -11.178  39.356  1.00  0.00    -0.342 N 
ATOM     15  H12 UNL     1       6.370 -10.900  38.409  1.00  0.00     0.176 HD
ATOM     16  H11 UNL     1       5.939 -11.519  40.027  1.00  0.00     0.176 HD
ENDBRANCH  11  14
ENDBRANCH   1  10
TORSDOF 2
ENDMDL
