MODEL 1
REMARK VINA RESULT: -5.091859488      0.000      0.000
REMARK  4 active torsions:
REMARK  status: ('A' for Active; 'I' for Inactive)
REMARK       I    between atoms: C2_2  and  N1_4 
REMARK    1  A    between atoms: N1_4  and  N2_6 
REMARK    2  A    between atoms: N2_6  and  C3_8 
REMARK    3  A    between atoms: C3_8  and  N3_10 
REMARK    4  A    between atoms: N3_10  and  N4_12 
ROOT
HETATM    1  N2  UNL     1      10.464  -9.266  39.513  1.00  0.00    -0.273 N 
ATOM      2  H2  UNL     1      10.621  -9.184  38.509  1.00  0.00     0.189 HD
ENDROOT
BRANCH   1   3
HETATM    3  N1  UNL     1       9.853  -8.236  40.211  1.00  0.00    -0.268 N 
HETATM    4  C2  UNL     1       8.454  -8.203  40.409  1.00  0.00     0.232 C 
HETATM    5  C1  UNL     1       7.881  -7.056  41.173  1.00  0.00     0.119 C 
HETATM    6  O1  UNL     1       7.764  -9.132  39.936  1.00  0.00    -0.272 OA
ATOM      7  H1  UNL     1      10.427  -7.484  40.591  1.00  0.00     0.190 HD
ENDBRANCH   1   3
BRANCH   1   8
HETATM    8  C3  UNL     1      10.868 -10.433  40.206  1.00  0.00     0.205 C 
HETATM    9  S1  UNL     1      12.361 -10.495  40.862  1.00  0.00    -0.038 SA
BRANCH   8  10
HETATM   10  N3  UNL     1      10.026 -11.563  40.358  1.00  0.00    -0.282 N 
ATOM     11  H3  UNL     1      10.012 -12.082  41.236  1.00  0.00     0.189 HD
BRANCH  10  12
HETATM   12  N4  UNL     1       9.221 -11.954  39.297  1.00  0.00    -0.343 N 
ATOM     13  H42 UNL     1       9.121 -11.339  38.489  1.00  0.00     0.176 HD
ATOM     14  H41 UNL     1       8.741 -12.853  39.342  1.00  0.00     0.176 HD
ENDBRANCH  10  12
ENDBRANCH   8  10
ENDBRANCH   1   8
TORSDOF 4
ENDMDL
MODEL 2
REMARK VINA RESULT: -4.856640894      2.743      4.183
REMARK  4 active torsions:
REMARK  status: ('A' for Active; 'I' for Inactive)
REMARK       I    between atoms: C2_2  and  N1_4 
REMARK    1  A    between atoms: N1_4  and  N2_6 
REMARK    2  A    between atoms: N2_6  and  C3_8 
REMARK    3  A    between atoms: C3_8  and  N3_10 
REMARK    4  A    between atoms: N3_10  and  N4_12 
ROOT
HETATM    1  N2  UNL     1      10.055  -8.027  40.205  1.00  0.00    -0.273 N 
ATOM      2  H2  UNL     1      10.286  -7.530  39.346  1.00  0.00     0.189 HD
ENDROOT
BRANCH   1   3
HETATM    3  N1  UNL     1      11.022  -8.769  40.864  1.00  0.00    -0.268 N 
HETATM    4  C2  UNL     1      11.404 -10.054  40.416  1.00  0.00     0.232 C 
HETATM    5  C1  UNL     1      12.453 -10.782  41.186  1.00  0.00     0.119 C 
HETATM    6  O1  UNL     1      10.844 -10.519  39.399  1.00  0.00    -0.272 OA
ATOM      7  H1  UNL     1      11.470  -8.378  41.693  1.00  0.00     0.190 HD
ENDBRANCH   1   3
BRANCH   1   8
HETATM    8  C3  UNL     1       8.744  -7.966  40.736  1.00  0.00     0.205 C 
HETATM    9  S1  UNL     1       7.563  -8.861  40.052  1.00  0.00    -0.038 SA
BRANCH   8  10
HETATM   10  N3  UNL     1       8.403  -7.153  41.846  1.00  0.00    -0.282 N 
ATOM     11  H3  UNL     1       8.263  -6.149  41.729  1.00  0.00     0.189 HD
BRANCH  10  12
HETATM   12  N4  UNL     1       8.264  -7.741  43.097  1.00  0.00    -0.343 N 
ATOM     13  H42 UNL     1       7.375  -8.171  43.353  1.00  0.00     0.176 HD
ATOM     14  H41 UNL     1       9.056  -7.734  43.740  1.00  0.00     0.176 HD
ENDBRANCH  10  12
ENDBRANCH   8  10
ENDBRANCH   1   8
TORSDOF 4
ENDMDL
MODEL 3
REMARK VINA RESULT: -4.835359788      2.835      3.355
REMARK  4 active torsions:
REMARK  status: ('A' for Active; 'I' for Inactive)
REMARK       I    between atoms: C2_2  and  N1_4 
REMARK    1  A    between atoms: N1_4  and  N2_6 
REMARK    2  A    between atoms: N2_6  and  C3_8 
REMARK    3  A    between atoms: C3_8  and  N3_10 
REMARK    4  A    between atoms: N3_10  and  N4_12 
ROOT
HETATM    1  N2  UNL     1       9.873  -9.581  38.943  1.00  0.00    -0.273 N 
ATOM      2  H2  UNL     1      10.208  -9.533  37.981  1.00  0.00     0.189 HD
ENDROOT
BRANCH   1   3
HETATM    3  N1  UNL     1      10.671  -9.131  39.983  1.00  0.00    -0.268 N 
HETATM    4  C2  UNL     1      11.656  -9.957  40.572  1.00  0.00     0.232 C 
HETATM    5  C1  UNL     1      12.470  -9.391  41.687  1.00  0.00     0.119 C 
HETATM    6  O1  UNL     1      11.798 -11.119  40.132  1.00  0.00    -0.272 OA
ATOM      7  H1  UNL     1      10.545  -8.181  40.332  1.00  0.00     0.190 HD
ENDBRANCH   1   3
BRANCH   1   8
HETATM    8  C3  UNL     1       8.590 -10.107  39.227  1.00  0.00     0.205 C 
HETATM    9  S1  UNL     1       7.451  -9.130  39.870  1.00  0.00    -0.038 SA
BRANCH   8  10
HETATM   10  N3  UNL     1       8.243 -11.458  38.976  1.00  0.00    -0.282 N 
ATOM     11  H3  UNL     1       7.269 -11.723  38.828  1.00  0.00     0.189 HD
BRANCH  10  12
HETATM   12  N4  UNL     1       9.247 -12.417  38.934  1.00  0.00    -0.343 N 
ATOM     13  H42 UNL     1      10.057 -12.323  39.548  1.00  0.00     0.176 HD
ATOM     14  H41 UNL     1       9.157 -13.202  38.289  1.00  0.00     0.176 HD
ENDBRANCH  10  12
ENDBRANCH   8  10
ENDBRANCH   1   8
TORSDOF 4
ENDMDL
MODEL 4
REMARK VINA RESULT: -4.711268000      1.603      1.814
REMARK  4 active torsions:
REMARK  status: ('A' for Active; 'I' for Inactive)
REMARK       I    between atoms: C2_2  and  N1_4 
REMARK    1  A    between atoms: N1_4  and  N2_6 
REMARK    2  A    between atoms: N2_6  and  C3_8 
REMARK    3  A    between atoms: C3_8  and  N3_10 
REMARK    4  A    between atoms: N3_10  and  N4_12 
ROOT
HETATM    1  N2  UNL     1      10.167  -9.289  39.234  1.00  0.00    -0.273 N 
ATOM      2  H2  UNL     1      10.460  -8.996  38.303  1.00  0.00     0.189 HD
ENDROOT
BRANCH   1   3
HETATM    3  N1  UNL     1       9.787  -8.346  40.176  1.00  0.00    -0.268 N 
HETATM    4  C2  UNL     1       8.427  -8.039  40.411  1.00  0.00     0.232 C 
HETATM    5  C1  UNL     1       8.109  -7.011  41.443  1.00  0.00     0.119 C 
HETATM    6  O1  UNL     1       7.558  -8.642  39.744  1.00  0.00    -0.272 OA
ATOM      7  H1  UNL     1      10.506  -7.861  40.713  1.00  0.00     0.190 HD
ENDBRANCH   1   3
BRANCH   1   8
HETATM    8  C3  UNL     1      10.145 -10.662  39.576  1.00  0.00     0.205 C 
HETATM    9  S1  UNL     1       9.376 -11.717  38.596  1.00  0.00    -0.038 SA
BRANCH   8  10
HETATM   10  N3  UNL     1      10.768 -11.171  40.744  1.00  0.00    -0.282 N 
ATOM     11  H3  UNL     1      10.205 -11.541  41.510  1.00  0.00     0.189 HD
BRANCH  10  12
HETATM   12  N4  UNL     1      12.154 -11.160  40.830  1.00  0.00    -0.343 N 
ATOM     13  H42 UNL     1      12.606 -11.485  41.685  1.00  0.00     0.176 HD
ATOM     14  H41 UNL     1      12.698 -10.825  40.035  1.00  0.00     0.176 HD
ENDBRANCH  10  12
ENDBRANCH   8  10
ENDBRANCH   1   8
TORSDOF 4
ENDMDL
MODEL 5
REMARK VINA RESULT: -4.666642540      2.688      3.667
REMARK  4 active torsions:
REMARK  status: ('A' for Active; 'I' for Inactive)
REMARK       I    between atoms: C2_2  and  N1_4 
REMARK    1  A    between atoms: N1_4  and  N2_6 
REMARK    2  A    between atoms: N2_6  and  C3_8 
REMARK    3  A    between atoms: C3_8  and  N3_10 
REMARK    4  A    between atoms: N3_10  and  N4_12 
ROOT
HETATM    1  N2  UNL     1       9.945  -8.022  40.199  1.00  0.00    -0.273 N 
ATOM      2  H2  UNL     1      10.201  -7.363  39.464  1.00  0.00     0.189 HD
ENDROOT
BRANCH   1   3
HETATM    3  N1  UNL     1      10.921  -8.766  40.842  1.00  0.00    -0.268 N 
HETATM    4  C2  UNL     1      11.312 -10.040  40.372  1.00  0.00     0.232 C 
HETATM    5  C1  UNL     1      12.371 -10.772  41.126  1.00  0.00     0.119 C 
HETATM    6  O1  UNL     1      10.752 -10.494  39.349  1.00  0.00    -0.272 OA
ATOM      7  H1  UNL     1      11.369  -8.384  41.675  1.00  0.00     0.190 HD
ENDBRANCH   1   3
BRANCH   1   8
HETATM    8  C3  UNL     1       8.588  -8.184  40.571  1.00  0.00     0.205 C 
HETATM    9  S1  UNL     1       7.836  -6.988  41.388  1.00  0.00    -0.038 SA
BRANCH   8  10
HETATM   10  N3  UNL     1       7.843  -9.350  40.262  1.00  0.00    -0.282 N 
ATOM     11  H3  UNL     1       7.387  -9.883  41.002  1.00  0.00     0.189 HD
BRANCH  10  12
HETATM   12  N4  UNL     1       7.744  -9.757  38.938  1.00  0.00    -0.343 N 
ATOM     13  H42 UNL     1       8.446  -9.451  38.264  1.00  0.00     0.176 HD
ATOM     14  H41 UNL     1       6.967 -10.358  38.660  1.00  0.00     0.176 HD
ENDBRANCH  10  12
ENDBRANCH   8  10
ENDBRANCH   1   8
TORSDOF 4
ENDMDL
