MODEL 1
REMARK VINA RESULT: -4.981863866      0.000      0.000
REMARK  4 active torsions:
REMARK  status: ('A' for Active; 'I' for Inactive)
REMARK    1  A    between atoms: N1_1  and  N2_4 
REMARK       I    between atoms: N2_4  and  C1_6 
REMARK    2  A    between atoms: C1_6  and  O2_8 
REMARK    3  A    between atoms: O2_8  and  N3_9 
REMARK    4  A    between atoms: N3_9  and  C2_11 
ROOT
HETATM    1  N2  UNL     1      11.998  -8.996  40.641  1.00  0.00    -0.250 N 
ATOM      2  H2  UNL     1      11.243  -8.525  40.144  1.00  0.00     0.191 HD
HETATM    3  C1  UNL     1      12.097 -10.414  40.615  1.00  0.00     0.401 C 
HETATM    4  O1  UNL     1      13.029 -10.992  41.227  1.00  0.00    -0.235 OA
ENDROOT
BRANCH   3   5
HETATM    5  O2  UNL     1      11.197 -11.197  39.931  1.00  0.00    -0.178 OA
BRANCH   5   6
HETATM    6  N3  UNL     1       9.864 -11.304  40.248  1.00  0.00    -0.233 N 
ATOM      7  H3  UNL     1       9.565 -12.048  40.878  1.00  0.00     0.197 HD
BRANCH   6   8
HETATM    8  C2  UNL     1       8.895 -10.416  39.732  1.00  0.00     0.205 C 
HETATM    9  N4  UNL     1       8.999  -9.020  39.907  1.00  0.00    -0.068 NA
HETATM   10  S1  UNL     1       7.637 -11.042  38.917  1.00  0.00    -0.043 SA
ENDBRANCH   6   8
ENDBRANCH   5   6
ENDBRANCH   3   5
BRANCH   1  11
HETATM   11  N1  UNL     1      12.945  -8.252  41.354  1.00  0.00    -0.341 N 
ATOM     12  H12 UNL     1      13.572  -8.732  42.000  1.00  0.00     0.177 HD
ATOM     13  H11 UNL     1      12.996  -7.243  41.218  1.00  0.00     0.177 HD
ENDBRANCH   1  11
TORSDOF 4
ENDMDL
MODEL 2
REMARK VINA RESULT: -4.818194794      1.761      1.843
REMARK  4 active torsions:
REMARK  status: ('A' for Active; 'I' for Inactive)
REMARK    1  A    between atoms: N1_1  and  N2_4 
REMARK       I    between atoms: N2_4  and  C1_6 
REMARK    2  A    between atoms: C1_6  and  O2_8 
REMARK    3  A    between atoms: O2_8  and  N3_9 
REMARK    4  A    between atoms: N3_9  and  C2_11 
ROOT
HETATM    1  N2  UNL     1      11.237  -9.013  41.364  1.00  0.00    -0.250 N 
ATOM      2  H2  UNL     1      10.554  -8.530  41.947  1.00  0.00     0.191 HD
HETATM    3  C1  UNL     1      10.904 -10.250  40.747  1.00  0.00     0.401 C 
HETATM    4  O1  UNL     1      11.747 -10.842  40.028  1.00  0.00    -0.235 OA
ENDROOT
BRANCH   3   5
HETATM    5  O2  UNL     1       9.672 -10.839  40.907  1.00  0.00    -0.178 OA
BRANCH   5   6
HETATM    6  N3  UNL     1       8.792 -11.087  39.880  1.00  0.00    -0.233 N 
ATOM      7  H3  UNL     1       9.064 -11.738  39.144  1.00  0.00     0.197 HD
BRANCH   6   8
HETATM    8  C2  UNL     1       7.524 -10.469  39.812  1.00  0.00     0.205 C 
HETATM    9  N4  UNL     1       6.353 -11.207  39.539  1.00  0.00    -0.068 NA
HETATM   10  S1  UNL     1       7.436  -8.866  40.057  1.00  0.00    -0.043 SA
ENDBRANCH   6   8
ENDBRANCH   5   6
ENDBRANCH   3   5
BRANCH   1  11
HETATM   11  N1  UNL     1      12.507  -8.462  41.163  1.00  0.00    -0.341 N 
ATOM     12  H12 UNL     1      13.037  -8.722  40.332  1.00  0.00     0.177 HD
ATOM     13  H11 UNL     1      12.885  -7.810  41.850  1.00  0.00     0.177 HD
ENDBRANCH   1  11
TORSDOF 4
ENDMDL
MODEL 3
REMARK VINA RESULT: -4.735647806      2.906      4.674
REMARK  4 active torsions:
REMARK  status: ('A' for Active; 'I' for Inactive)
REMARK    1  A    between atoms: N1_1  and  N2_4 
REMARK       I    between atoms: N2_4  and  C1_6 
REMARK    2  A    between atoms: C1_6  and  O2_8 
REMARK    3  A    between atoms: O2_8  and  N3_9 
REMARK    4  A    between atoms: N3_9  and  C2_11 
ROOT
HETATM    1  N2  UNL     1       7.181  -8.789  39.789  1.00  0.00    -0.250 N 
ATOM      2  H2  UNL     1       7.249  -9.616  39.196  1.00  0.00     0.191 HD
HETATM    3  C1  UNL     1       8.358  -8.170  40.292  1.00  0.00     0.401 C 
HETATM    4  O1  UNL     1       8.271  -7.151  41.021  1.00  0.00    -0.235 OA
ENDROOT
BRANCH   3   5
HETATM    5  O2  UNL     1       9.615  -8.649  40.006  1.00  0.00    -0.178 OA
BRANCH   5   6
HETATM    6  N3  UNL     1      10.741  -8.357  40.739  1.00  0.00    -0.233 N 
ATOM      7  H3  UNL     1      10.888  -7.399  41.056  1.00  0.00     0.197 HD
BRANCH   6   8
HETATM    8  C2  UNL     1      11.700  -9.340  41.067  1.00  0.00     0.205 C 
HETATM    9  N4  UNL     1      12.812  -9.048  41.885  1.00  0.00    -0.068 NA
HETATM   10  S1  UNL     1      11.496 -10.839  40.476  1.00  0.00    -0.043 SA
ENDBRANCH   6   8
ENDBRANCH   5   6
ENDBRANCH   3   5
BRANCH   1  11
HETATM   11  N1  UNL     1       5.929  -8.256  40.113  1.00  0.00    -0.341 N 
ATOM     12  H12 UNL     1       5.874  -7.314  40.501  1.00  0.00     0.177 HD
ATOM     13  H11 UNL     1       5.090  -8.814  39.958  1.00  0.00     0.177 HD
ENDBRANCH   1  11
TORSDOF 4
ENDMDL
MODEL 4
REMARK VINA RESULT: -4.730956189      2.272      2.791
REMARK  4 active torsions:
REMARK  status: ('A' for Active; 'I' for Inactive)
REMARK    1  A    between atoms: N1_1  and  N2_4 
REMARK       I    between atoms: N2_4  and  C1_6 
REMARK    2  A    between atoms: C1_6  and  O2_8 
REMARK    3  A    between atoms: O2_8  and  N3_9 
REMARK    4  A    between atoms: N3_9  and  C2_11 
ROOT
HETATM    1  N2  UNL     1      10.274  -8.612  40.281  1.00  0.00    -0.250 N 
ATOM      2  H2  UNL     1       9.638  -7.826  40.412  1.00  0.00     0.191 HD
HETATM    3  C1  UNL     1       9.892  -9.715  39.470  1.00  0.00     0.401 C 
HETATM    4  O1  UNL     1      10.678 -10.681  39.309  1.00  0.00    -0.235 OA
ENDROOT
BRANCH   3   5
HETATM    5  O2  UNL     1       8.672  -9.769  38.838  1.00  0.00    -0.178 OA
BRANCH   5   6
HETATM    6  N3  UNL     1       7.472  -9.477  39.442  1.00  0.00    -0.233 N 
ATOM      7  H3  UNL     1       7.058  -8.557  39.296  1.00  0.00     0.197 HD
BRANCH   6   8
HETATM    8  C2  UNL     1       6.794 -10.410  40.258  1.00  0.00     0.205 C 
HETATM    9  N4  UNL     1       5.911 -11.366  39.715  1.00  0.00    -0.068 NA
HETATM   10  S1  UNL     1       7.055 -10.360  41.860  1.00  0.00    -0.043 SA
ENDBRANCH   6   8
ENDBRANCH   5   6
ENDBRANCH   3   5
BRANCH   1  11
HETATM   11  N1  UNL     1      11.530  -8.613  40.898  1.00  0.00    -0.341 N 
ATOM     12  H12 UNL     1      11.637  -8.168  41.809  1.00  0.00     0.177 HD
ATOM     13  H11 UNL     1      12.319  -9.058  40.430  1.00  0.00     0.177 HD
ENDBRANCH   1  11
TORSDOF 4
ENDMDL
MODEL 5
REMARK VINA RESULT: -4.727282997      2.029      2.109
REMARK  4 active torsions:
REMARK  status: ('A' for Active; 'I' for Inactive)
REMARK    1  A    between atoms: N1_1  and  N2_4 
REMARK       I    between atoms: N2_4  and  C1_6 
REMARK    2  A    between atoms: C1_6  and  O2_8 
REMARK    3  A    between atoms: O2_8  and  N3_9 
REMARK    4  A    between atoms: N3_9  and  C2_11 
ROOT
HETATM    1  N2  UNL     1      11.201  -8.762  40.976  1.00  0.00    -0.250 N 
ATOM      2  H2  UNL     1      10.502  -8.077  41.264  1.00  0.00     0.191 HD
HETATM    3  C1  UNL     1      10.798  -9.983  40.371  1.00  0.00     0.401 C 
HETATM    4  O1  UNL     1      11.661 -10.824  40.016  1.00  0.00    -0.235 OA
ENDROOT
BRANCH   3   5
HETATM    5  O2  UNL     1       9.476 -10.289  40.151  1.00  0.00    -0.178 OA
BRANCH   5   6
HETATM    6  N3  UNL     1       8.664 -10.920  41.063  1.00  0.00    -0.233 N 
ATOM      7  H3  UNL     1       8.609 -11.938  41.054  1.00  0.00     0.197 HD
BRANCH   6   8
HETATM    8  C2  UNL     1       7.902 -10.204  42.013  1.00  0.00     0.205 C 
HETATM    9  N4  UNL     1       8.396  -9.036  42.631  1.00  0.00    -0.068 NA
HETATM   10  S1  UNL     1       6.422 -10.759  42.387  1.00  0.00    -0.043 SA
ENDBRANCH   6   8
ENDBRANCH   5   6
ENDBRANCH   3   5
BRANCH   1  11
HETATM   11  N1  UNL     1      12.562  -8.506  41.174  1.00  0.00    -0.341 N 
ATOM     12  H12 UNL     1      12.984  -8.725  42.076  1.00  0.00     0.177 HD
ATOM     13  H11 UNL     1      13.113  -8.104  40.415  1.00  0.00     0.177 HD
ENDBRANCH   1  11
TORSDOF 4
ENDMDL
