MODEL 1
REMARK VINA RESULT: -7.573885344      0.000      0.000
REMARK  12 active torsions:
REMARK  status: ('A' for Active; 'I' for Inactive)
REMARK    1  A    between atoms: C2_2  and  C3_3 
REMARK    2  A    between atoms: C3_3  and  N1_4 
REMARK    3  A    between atoms: N2_7  and  C6_8 
REMARK    4  A    between atoms: C8_10  and  O1_11 
REMARK    5  A    between atoms: C10_13  and  N3_14 
REMARK    6  A    between atoms: N3_14  and  C11_16 
REMARK    7  A    between atoms: C12_19  and  N5_20 
REMARK    8  A    between atoms: N5_20  and  C13_22 
REMARK    9  A    between atoms: C16_25  and  N6_26 
REMARK   10  A    between atoms: N7_29  and  C19_30 
REMARK   11  A    between atoms: C23_34  and  N8_35 
REMARK   12  A    between atoms: C29_46  and  O2_47 
ROOT
HETATM    1  C11 UNL     1      47.552   7.951  -2.248  1.00  0.00     0.144 A 
HETATM    2  N4  UNL     1      48.665   7.728  -1.543  1.00  0.00    -0.175 N 
ATOM      3  H4  UNL     1      48.673   7.948  -0.546  1.00  0.00     0.186 HD
HETATM    4  C12 UNL     1      49.790   7.215  -2.119  1.00  0.00     0.684 A 
HETATM    5  N10 UNL     1      49.817   6.914  -3.426  1.00  0.00    -0.200 N 
ATOM      6  H10 UNL     1      50.665   6.531  -3.845  1.00  0.00     0.183 HD
HETATM    7  C27 UNL     1      48.724   7.115  -4.186  1.00  0.00     0.133 A 
HETATM    8  C28 UNL     1      47.570   7.644  -3.589  1.00  0.00     0.094 A 
HETATM    9 CL1  UNL     1      46.178   7.893  -4.596  1.00  0.00    -0.079 Cl
ENDROOT
BRANCH   1  10
HETATM   10  N3  UNL     1      46.522   8.423  -1.715  1.00  0.00    -0.336 N 
ATOM     11  H3  UNL     1      45.647   7.962  -1.965  1.00  0.00     0.168 HD
BRANCH  10  12
HETATM   12  C10 UNL     1      46.405   9.500  -0.821  1.00  0.00     0.101 A 
HETATM   13  C8  UNL     1      46.019  10.758  -1.236  1.00  0.00     0.100 A 
HETATM   14  C7  UNL     1      45.906  11.818  -0.360  1.00  0.00     0.068 A 
HETATM   15  C6  UNL     1      46.178  11.655   0.996  1.00  0.00     0.036 A 
HETATM   16  C31 UNL     1      46.560  10.416   1.420  1.00  0.00     0.068 A 
HETATM   17  C29 UNL     1      46.675   9.341   0.521  1.00  0.00     0.100 A 
BRANCH  13  18
HETATM   18  O1  UNL     1      45.745  10.929  -2.588  1.00  0.00    -0.353 OA
HETATM   19  C9  UNL     1      44.406  11.130  -3.004  1.00  0.00     0.210 C 
ENDBRANCH  13  18
BRANCH  15  20
HETATM   20  N2  UNL     1      46.053  12.778   1.895  1.00  0.00    -0.371 N 
HETATM   21  C5  UNL     1      45.222  13.887   1.502  1.00  0.00     0.168 C 
HETATM   22  C4  UNL     1      45.167  14.991   2.477  1.00  0.00     0.083 C 
HETATM   23  N1  UNL     1      46.315  15.195   3.267  1.00  0.00    -0.371 N 
HETATM   24  C33 UNL     1      46.909  14.055   3.834  1.00  0.00     0.083 C 
HETATM   25  C32 UNL     1      46.745  12.765   3.128  1.00  0.00     0.168 C 
BRANCH  23  26
HETATM   26  C3  UNL     1      47.160  16.287   2.957  1.00  0.00     0.127 C 
BRANCH  26  27
HETATM   27  C2  UNL     1      48.347  16.474   3.841  1.00  0.00     0.016 C 
HETATM   28  C1  UNL     1      47.919  17.412   4.980  1.00  0.00     0.006 C 
ENDBRANCH  26  27
ENDBRANCH  23  26
ENDBRANCH  15  20
BRANCH  17  29
HETATM   29  O2  UNL     1      47.063   8.102   0.979  1.00  0.00    -0.353 OA
HETATM   30  C30 UNL     1      48.026   7.986   2.014  1.00  0.00     0.210 C 
ENDBRANCH  17  29
ENDBRANCH  10  12
ENDBRANCH   1  10
BRANCH   4  31
HETATM   31  N5  UNL     1      50.853   7.022  -1.378  1.00  0.00    -0.192 N 
ATOM     32  H5  UNL     1      51.730   7.450  -1.673  1.00  0.00     0.184 HD
BRANCH  31  33
HETATM   33  C13 UNL     1      50.848   6.253  -0.190  1.00  0.00     0.051 A 
HETATM   34  C14 UNL     1      50.050   5.146  -0.010  1.00  0.00     0.032 A 
HETATM   35  C15 UNL     1      50.046   4.405   1.143  1.00  0.00     0.034 A 
HETATM   36  C16 UNL     1      50.877   4.760   2.211  1.00  0.00     0.057 A 
HETATM   37  C23 UNL     1      51.678   5.852   2.062  1.00  0.00     0.062 A 
HETATM   38  C26 UNL     1      51.666   6.590   0.879  1.00  0.00     0.061 A 
BRANCH  36  39
HETATM   39  N6  UNL     1      50.839   3.957   3.395  1.00  0.00    -0.376 N 
HETATM   40  C17 UNL     1      49.800   4.169   4.363  1.00  0.00     0.153 C 
HETATM   41  C18 UNL     1      49.807   2.982   5.335  1.00  0.00     0.292 C 
HETATM   42  N7  UNL     1      51.088   2.841   5.960  1.00  0.00     0.091 N 
HETATM   43  C21 UNL     1      52.196   2.776   5.063  1.00  0.00     0.292 C 
HETATM   44  C22 UNL     1      51.826   2.945   3.610  1.00  0.00     0.153 C 
BRANCH  42  45
HETATM   45  C19 UNL     1      51.040   1.752   6.899  1.00  0.00     0.268 C 
HETATM   46  C20 UNL     1      49.659   1.140   6.852  1.00  0.00     0.037 C 
ENDBRANCH  42  45
ENDBRANCH  36  39
BRANCH  37  47
HETATM   47  N8  UNL     1      52.538   6.234   3.134  1.00  0.00    -0.347 N 
HETATM   48  C24 UNL     1      52.162   7.120   3.995  1.00  0.00     0.089 C 
HETATM   49  C25 UNL     1      50.841   7.800   3.947  1.00  0.00     0.085 C 
HETATM   50  N9  UNL     1      53.042   7.468   5.041  1.00  0.00    -0.088 NA
ATOM     51  H8  UNL     1      53.458   5.803   3.222  1.00  0.00     0.167 HD
ENDBRANCH  37  47
ENDBRANCH  31  33
ENDBRANCH   4  31
TORSDOF 12
ENDMDL
MODEL 2
REMARK VINA RESULT: -7.559382147      0.085      1.888
REMARK  12 active torsions:
REMARK  status: ('A' for Active; 'I' for Inactive)
REMARK    1  A    between atoms: C2_2  and  C3_3 
REMARK    2  A    between atoms: C3_3  and  N1_4 
REMARK    3  A    between atoms: N2_7  and  C6_8 
REMARK    4  A    between atoms: C8_10  and  O1_11 
REMARK    5  A    between atoms: C10_13  and  N3_14 
REMARK    6  A    between atoms: N3_14  and  C11_16 
REMARK    7  A    between atoms: C12_19  and  N5_20 
REMARK    8  A    between atoms: N5_20  and  C13_22 
REMARK    9  A    between atoms: C16_25  and  N6_26 
REMARK   10  A    between atoms: N7_29  and  C19_30 
REMARK   11  A    between atoms: C23_34  and  N8_35 
REMARK   12  A    between atoms: C29_46  and  O2_47 
ROOT
HETATM    1  C11 UNL     1      47.474   7.964  -2.192  1.00  0.00     0.144 A 
HETATM    2  N4  UNL     1      48.594   7.735  -1.500  1.00  0.00    -0.175 N 
ATOM      3  H4  UNL     1      48.614   7.948  -0.502  1.00  0.00     0.186 HD
HETATM    4  C12 UNL     1      49.712   7.223  -2.092  1.00  0.00     0.684 A 
HETATM    5  N10 UNL     1      49.723   6.931  -3.402  1.00  0.00    -0.200 N 
ATOM      6  H10 UNL     1      50.566   6.550  -3.833  1.00  0.00     0.183 HD
HETATM    7  C27 UNL     1      48.622   7.140  -4.148  1.00  0.00     0.133 A 
HETATM    8  C28 UNL     1      47.476   7.667  -3.534  1.00  0.00     0.094 A 
HETATM    9 CL1  UNL     1      46.073   7.925  -4.523  1.00  0.00    -0.079 Cl
ENDROOT
BRANCH   1  10
HETATM   10  N3  UNL     1      46.451   8.435  -1.644  1.00  0.00    -0.336 N 
ATOM     11  H3  UNL     1      45.576   7.961  -1.865  1.00  0.00     0.168 HD
BRANCH  10  12
HETATM   12  C10 UNL     1      46.342   9.526  -0.765  1.00  0.00     0.101 A 
HETATM   13  C8  UNL     1      46.657   9.422   0.574  1.00  0.00     0.100 A 
HETATM   14  C7  UNL     1      46.549  10.491   1.439  1.00  0.00     0.068 A 
HETATM   15  C6  UNL     1      46.114  11.734   0.987  1.00  0.00     0.036 A 
HETATM   16  C31 UNL     1      45.800  11.851  -0.336  1.00  0.00     0.068 A 
HETATM   17  C29 UNL     1      45.911  10.757  -1.211  1.00  0.00     0.100 A 
BRANCH  13  18
HETATM   18  O1  UNL     1      47.093   8.185   1.034  1.00  0.00    -0.353 OA
HETATM   19  C9  UNL     1      48.012   8.129   2.111  1.00  0.00     0.210 C 
ENDBRANCH  13  18
BRANCH  15  20
HETATM   20  N2  UNL     1      46.009  12.839   1.910  1.00  0.00    -0.371 N 
HETATM   21  C5  UNL     1      45.163  13.952   1.563  1.00  0.00     0.168 C 
HETATM   22  C4  UNL     1      45.132  15.037   2.560  1.00  0.00     0.083 C 
HETATM   23  N1  UNL     1      46.300  15.230   3.322  1.00  0.00    -0.371 N 
HETATM   24  C33 UNL     1      46.914  14.081   3.850  1.00  0.00     0.083 C 
HETATM   25  C32 UNL     1      46.735  12.804   3.123  1.00  0.00     0.168 C 
BRANCH  23  26
HETATM   26  C3  UNL     1      47.132  16.331   3.010  1.00  0.00     0.127 C 
BRANCH  26  27
HETATM   27  C2  UNL     1      48.344  16.504   3.863  1.00  0.00     0.016 C 
HETATM   28  C1  UNL     1      47.972  17.487   4.982  1.00  0.00     0.006 C 
ENDBRANCH  26  27
ENDBRANCH  23  26
ENDBRANCH  15  20
BRANCH  17  29
HETATM   29  O2  UNL     1      45.586  10.905  -2.540  1.00  0.00    -0.353 OA
HETATM   30  C30 UNL     1      44.237  11.090  -2.936  1.00  0.00     0.210 C 
ENDBRANCH  17  29
ENDBRANCH  10  12
ENDBRANCH   1  10
BRANCH   4  31
HETATM   31  N5  UNL     1      50.782   7.024  -1.365  1.00  0.00    -0.192 N 
ATOM     32  H5  UNL     1      51.659   7.446  -1.671  1.00  0.00     0.184 HD
BRANCH  31  33
HETATM   33  C13 UNL     1      50.788   6.253  -0.178  1.00  0.00     0.051 A 
HETATM   34  C14 UNL     1      49.984   5.153   0.013  1.00  0.00     0.032 A 
HETATM   35  C15 UNL     1      49.989   4.411   1.165  1.00  0.00     0.034 A 
HETATM   36  C16 UNL     1      50.838   4.759   2.222  1.00  0.00     0.057 A 
HETATM   37  C23 UNL     1      51.645   5.845   2.062  1.00  0.00     0.062 A 
HETATM   38  C26 UNL     1      51.623   6.584   0.881  1.00  0.00     0.061 A 
BRANCH  36  39
HETATM   39  N6  UNL     1      50.809   3.956   3.406  1.00  0.00    -0.376 N 
HETATM   40  C17 UNL     1      49.790   4.181   4.392  1.00  0.00     0.153 C 
HETATM   41  C18 UNL     1      49.798   2.994   5.364  1.00  0.00     0.292 C 
HETATM   42  N7  UNL     1      51.088   2.834   5.966  1.00  0.00     0.091 N 
HETATM   43  C21 UNL     1      52.179   2.754   5.049  1.00  0.00     0.292 C 
HETATM   44  C22 UNL     1      51.786   2.930   3.603  1.00  0.00     0.153 C 
BRANCH  42  45
HETATM   45  C19 UNL     1      51.041   1.744   6.904  1.00  0.00     0.268 C 
HETATM   46  C20 UNL     1      49.664   1.123   6.848  1.00  0.00     0.037 C 
ENDBRANCH  42  45
ENDBRANCH  36  39
BRANCH  37  47
HETATM   47  N8  UNL     1      52.522   6.219   3.124  1.00  0.00    -0.347 N 
HETATM   48  C24 UNL     1      52.160   7.100   3.996  1.00  0.00     0.089 C 
HETATM   49  C25 UNL     1      50.840   7.781   3.974  1.00  0.00     0.085 C 
HETATM   50  N9  UNL     1      53.058   7.441   5.030  1.00  0.00    -0.088 NA
ATOM     51  H8  UNL     1      53.444   5.788   3.193  1.00  0.00     0.167 HD
ENDBRANCH  37  47
ENDBRANCH  31  33
ENDBRANCH   4  31
TORSDOF 12
ENDMDL
MODEL 3
REMARK VINA RESULT: -7.167843030      1.161      1.327
REMARK  12 active torsions:
REMARK  status: ('A' for Active; 'I' for Inactive)
REMARK    1  A    between atoms: C2_2  and  C3_3 
REMARK    2  A    between atoms: C3_3  and  N1_4 
REMARK    3  A    between atoms: N2_7  and  C6_8 
REMARK    4  A    between atoms: C8_10  and  O1_11 
REMARK    5  A    between atoms: C10_13  and  N3_14 
REMARK    6  A    between atoms: N3_14  and  C11_16 
REMARK    7  A    between atoms: C12_19  and  N5_20 
REMARK    8  A    between atoms: N5_20  and  C13_22 
REMARK    9  A    between atoms: C16_25  and  N6_26 
REMARK   10  A    between atoms: N7_29  and  C19_30 
REMARK   11  A    between atoms: C23_34  and  N8_35 
REMARK   12  A    between atoms: C29_46  and  O2_47 
ROOT
HETATM    1  C11 UNL     1      46.737   8.587  -2.207  1.00  0.00     0.144 A 
HETATM    2  N4  UNL     1      47.837   8.512  -1.451  1.00  0.00    -0.175 N 
ATOM      3  H4  UNL     1      47.795   8.827  -0.481  1.00  0.00     0.186 HD
HETATM    4  C12 UNL     1      49.013   8.024  -1.941  1.00  0.00     0.684 A 
HETATM    5  N10 UNL     1      49.106   7.600  -3.211  1.00  0.00    -0.200 N 
ATOM      6  H10 UNL     1      49.992   7.239  -3.565  1.00  0.00     0.183 HD
HETATM    7  C27 UNL     1      48.030   7.652  -4.018  1.00  0.00     0.133 A 
HETATM    8  C28 UNL     1      46.823   8.155  -3.510  1.00  0.00     0.094 A 
HETATM    9 CL1  UNL     1      45.454   8.208  -4.576  1.00  0.00    -0.079 Cl
ENDROOT
BRANCH   1  10
HETATM   10  N3  UNL     1      45.660   9.036  -1.753  1.00  0.00    -0.336 N 
ATOM     11  H3  UNL     1      44.846   8.436  -1.879  1.00  0.00     0.168 HD
BRANCH  10  12
HETATM   12  C10 UNL     1      45.419  10.254  -1.095  1.00  0.00     0.101 A 
HETATM   13  C8  UNL     1      44.905  11.353  -1.753  1.00  0.00     0.100 A 
HETATM   14  C7  UNL     1      44.669  12.550  -1.109  1.00  0.00     0.068 A 
HETATM   15  C6  UNL     1      44.942  12.696   0.249  1.00  0.00     0.036 A 
HETATM   16  C31 UNL     1      45.450  11.617   0.911  1.00  0.00     0.068 A 
HETATM   17  C29 UNL     1      45.689  10.401   0.248  1.00  0.00     0.100 A 
BRANCH  13  18
HETATM   18  O1  UNL     1      44.629  11.215  -3.108  1.00  0.00    -0.353 OA
HETATM   19  C9  UNL     1      43.285  11.063  -3.531  1.00  0.00     0.210 C 
ENDBRANCH  13  18
BRANCH  15  20
HETATM   20  N2  UNL     1      44.687  13.959   0.902  1.00  0.00    -0.371 N 
HETATM   21  C5  UNL     1      44.603  15.149   0.095  1.00  0.00     0.168 C 
HETATM   22  C4  UNL     1      44.354  16.389   0.852  1.00  0.00     0.083 C 
HETATM   23  N1  UNL     1      44.861  16.442   2.165  1.00  0.00    -0.371 N 
HETATM   24  C33 UNL     1      44.655  15.312   2.974  1.00  0.00     0.083 C 
HETATM   25  C32 UNL     1      44.529  13.996   2.307  1.00  0.00     0.168 C 
BRANCH  23  26
HETATM   26  C3  UNL     1      46.020  17.217   2.407  1.00  0.00     0.127 C 
BRANCH  26  27
HETATM   27  C2  UNL     1      46.634  17.080   3.760  1.00  0.00     0.016 C 
HETATM   28  C1  UNL     1      48.007  16.421   3.568  1.00  0.00     0.006 C 
ENDBRANCH  26  27
ENDBRANCH  23  26
ENDBRANCH  15  20
BRANCH  17  29
HETATM   29  O2  UNL     1      46.202   9.330   0.944  1.00  0.00    -0.353 OA
HETATM   30  C30 UNL     1      47.381   9.472   1.719  1.00  0.00     0.210 C 
ENDBRANCH  17  29
ENDBRANCH  10  12
ENDBRANCH   1  10
BRANCH   4  31
HETATM   31  N5  UNL     1      50.059   7.978  -1.155  1.00  0.00    -0.192 N 
ATOM     32  H5  UNL     1      50.808   8.653  -1.308  1.00  0.00     0.184 HD
BRANCH  31  33
HETATM   33  C13 UNL     1      50.206   7.042  -0.104  1.00  0.00     0.051 A 
HETATM   34  C14 UNL     1      49.469   5.882  -0.016  1.00  0.00     0.032 A 
HETATM   35  C15 UNL     1      49.611   4.979   1.005  1.00  0.00     0.034 A 
HETATM   36  C16 UNL     1      50.538   5.213   2.028  1.00  0.00     0.057 A 
HETATM   37  C23 UNL     1      51.281   6.354   1.968  1.00  0.00     0.062 A 
HETATM   38  C26 UNL     1      51.120   7.257   0.919  1.00  0.00     0.061 A 
BRANCH  36  39
HETATM   39  N6  UNL     1      50.651   4.243   3.074  1.00  0.00    -0.376 N 
HETATM   40  C17 UNL     1      49.789   4.330   4.218  1.00  0.00     0.153 C 
HETATM   41  C18 UNL     1      49.897   3.010   4.995  1.00  0.00     0.292 C 
HETATM   42  N7  UNL     1      51.253   2.751   5.375  1.00  0.00     0.091 N 
HETATM   43  C21 UNL     1      52.201   2.797   4.309  1.00  0.00     0.292 C 
HETATM   44  C22 UNL     1      51.614   3.190   2.977  1.00  0.00     0.153 C 
BRANCH  42  45
HETATM   45  C19 UNL     1      51.305   1.534   6.142  1.00  0.00     0.268 C 
HETATM   46  C20 UNL     1      50.033   1.423   6.950  1.00  0.00     0.037 C 
ENDBRANCH  42  45
ENDBRANCH  36  39
BRANCH  37  47
HETATM   47  N8  UNL     1      52.235   6.615   2.996  1.00  0.00    -0.347 N 
HETATM   48  C24 UNL     1      51.934   7.376   3.995  1.00  0.00     0.089 C 
HETATM   49  C25 UNL     1      50.608   8.027   4.159  1.00  0.00     0.085 C 
HETATM   50  N9  UNL     1      52.906   7.607   4.991  1.00  0.00    -0.088 NA
ATOM     51  H8  UNL     1      53.164   6.197   2.942  1.00  0.00     0.167 HD
ENDBRANCH  37  47
ENDBRANCH  31  33
ENDBRANCH   4  31
TORSDOF 12
ENDMDL
MODEL 4
REMARK VINA RESULT: -7.088501118      1.032      2.760
REMARK  12 active torsions:
REMARK  status: ('A' for Active; 'I' for Inactive)
REMARK    1  A    between atoms: C2_2  and  C3_3 
REMARK    2  A    between atoms: C3_3  and  N1_4 
REMARK    3  A    between atoms: N2_7  and  C6_8 
REMARK    4  A    between atoms: C8_10  and  O1_11 
REMARK    5  A    between atoms: C10_13  and  N3_14 
REMARK    6  A    between atoms: N3_14  and  C11_16 
REMARK    7  A    between atoms: C12_19  and  N5_20 
REMARK    8  A    between atoms: N5_20  and  C13_22 
REMARK    9  A    between atoms: C16_25  and  N6_26 
REMARK   10  A    between atoms: N7_29  and  C19_30 
REMARK   11  A    between atoms: C23_34  and  N8_35 
REMARK   12  A    between atoms: C29_46  and  O2_47 
ROOT
HETATM    1  C11 UNL     1      47.560   7.971  -2.285  1.00  0.00     0.144 A 
HETATM    2  N4  UNL     1      48.747   7.771  -1.703  1.00  0.00    -0.175 N 
ATOM      3  H4  UNL     1      48.840   7.924  -0.699  1.00  0.00     0.186 HD
HETATM    4  C12 UNL     1      49.837   7.366  -2.417  1.00  0.00     0.684 A 
HETATM    5  N10 UNL     1      49.754   7.155  -3.739  1.00  0.00    -0.200 N 
ATOM      6  H10 UNL     1      50.578   6.855  -4.261  1.00  0.00     0.183 HD
HETATM    7  C27 UNL     1      48.584   7.340  -4.378  1.00  0.00     0.133 A 
HETATM    8  C28 UNL     1      47.466   7.757  -3.640  1.00  0.00     0.094 A 
HETATM    9 CL1  UNL     1      45.971   7.987  -4.493  1.00  0.00    -0.079 Cl
ENDROOT
BRANCH   1  10
HETATM   10  N3  UNL     1      46.563   8.343  -1.626  1.00  0.00    -0.336 N 
ATOM     11  H3  UNL     1      45.726   7.770  -1.734  1.00  0.00     0.168 HD
BRANCH  10  12
HETATM   12  C10 UNL     1      46.436   9.441  -0.759  1.00  0.00     0.101 A 
HETATM   13  C8  UNL     1      46.825   9.378   0.564  1.00  0.00     0.100 A 
HETATM   14  C7  UNL     1      46.699  10.454   1.418  1.00  0.00     0.068 A 
HETATM   15  C6  UNL     1      46.170  11.662   0.971  1.00  0.00     0.036 A 
HETATM   16  C31 UNL     1      45.782  11.738  -0.335  1.00  0.00     0.068 A 
HETATM   17  C29 UNL     1      45.912  10.637  -1.199  1.00  0.00     0.100 A 
BRANCH  13  18
HETATM   18  O1  UNL     1      47.354   8.176   1.018  1.00  0.00    -0.353 OA
HETATM   19  C9  UNL     1      48.030   8.141   2.262  1.00  0.00     0.210 C 
ENDBRANCH  13  18
BRANCH  15  20
HETATM   20  N2  UNL     1      46.048  12.775   1.883  1.00  0.00    -0.371 N 
HETATM   21  C5  UNL     1      45.211  13.886   1.510  1.00  0.00     0.168 C 
HETATM   22  C4  UNL     1      45.162  14.979   2.497  1.00  0.00     0.083 C 
HETATM   23  N1  UNL     1      46.315  15.176   3.281  1.00  0.00    -0.371 N 
HETATM   24  C33 UNL     1      46.917  14.032   3.830  1.00  0.00     0.083 C 
HETATM   25  C32 UNL     1      46.751  12.749   3.111  1.00  0.00     0.168 C 
BRANCH  23  26
HETATM   26  C3  UNL     1      47.155  16.274   2.976  1.00  0.00     0.127 C 
BRANCH  26  27
HETATM   27  C2  UNL     1      48.363  16.439   3.836  1.00  0.00     0.016 C 
HETATM   28  C1  UNL     1      47.983  17.405   4.968  1.00  0.00     0.006 C 
ENDBRANCH  26  27
ENDBRANCH  23  26
ENDBRANCH  15  20
BRANCH  17  29
HETATM   29  O2  UNL     1      45.512  10.744  -2.512  1.00  0.00    -0.353 OA
HETATM   30  C30 UNL     1      44.134  10.814  -2.842  1.00  0.00     0.210 C 
ENDBRANCH  17  29
ENDBRANCH  10  12
ENDBRANCH   1  10
BRANCH   4  31
HETATM   31  N5  UNL     1      50.975   7.190  -1.794  1.00  0.00    -0.192 N 
ATOM     32  H5  UNL     1      51.834   7.464  -2.270  1.00  0.00     0.184 HD
BRANCH  31  33
HETATM   33  C13 UNL     1      51.077   6.641  -0.493  1.00  0.00     0.051 A 
HETATM   34  C14 UNL     1      51.435   7.377   0.613  1.00  0.00     0.032 A 
HETATM   35  C15 UNL     1      51.536   6.841   1.870  1.00  0.00     0.034 A 
HETATM   36  C16 UNL     1      51.272   5.483   2.079  1.00  0.00     0.057 A 
HETATM   37  C23 UNL     1      50.917   4.728   1.002  1.00  0.00     0.062 A 
HETATM   38  C26 UNL     1      50.819   5.295  -0.267  1.00  0.00     0.061 A 
BRANCH  36  39
HETATM   39  N6  UNL     1      51.391   4.967   3.409  1.00  0.00    -0.376 N 
HETATM   40  C17 UNL     1      50.283   5.079   4.315  1.00  0.00     0.153 C 
HETATM   41  C18 UNL     1      50.562   4.172   5.521  1.00  0.00     0.292 C 
HETATM   42  N7  UNL     1      51.797   4.527   6.153  1.00  0.00     0.091 N 
HETATM   43  C21 UNL     1      52.928   4.587   5.283  1.00  0.00     0.292 C 
HETATM   44  C22 UNL     1      52.605   4.339   3.831  1.00  0.00     0.153 C 
BRANCH  42  45
HETATM   45  C19 UNL     1      51.999   3.689   7.305  1.00  0.00     0.268 C 
HETATM   46  C20 UNL     1      51.252   2.393   7.089  1.00  0.00     0.037 C 
ENDBRANCH  42  45
ENDBRANCH  36  39
BRANCH  37  47
HETATM   47  N8  UNL     1      50.639   3.341   1.189  1.00  0.00    -0.347 N 
HETATM   48  C24 UNL     1      49.426   2.928   1.344  1.00  0.00     0.089 C 
HETATM   49  C25 UNL     1      48.246   3.832   1.342  1.00  0.00     0.085 C 
HETATM   50  N9  UNL     1      49.195   1.548   1.525  1.00  0.00    -0.088 NA
ATOM     51  H8  UNL     1      51.407   2.669   1.200  1.00  0.00     0.167 HD
ENDBRANCH  37  47
ENDBRANCH  31  33
ENDBRANCH   4  31
TORSDOF 12
ENDMDL
MODEL 5
REMARK VINA RESULT: -7.077175010      1.042      2.021
REMARK  12 active torsions:
REMARK  status: ('A' for Active; 'I' for Inactive)
REMARK    1  A    between atoms: C2_2  and  C3_3 
REMARK    2  A    between atoms: C3_3  and  N1_4 
REMARK    3  A    between atoms: N2_7  and  C6_8 
REMARK    4  A    between atoms: C8_10  and  O1_11 
REMARK    5  A    between atoms: C10_13  and  N3_14 
REMARK    6  A    between atoms: N3_14  and  C11_16 
REMARK    7  A    between atoms: C12_19  and  N5_20 
REMARK    8  A    between atoms: N5_20  and  C13_22 
REMARK    9  A    between atoms: C16_25  and  N6_26 
REMARK   10  A    between atoms: N7_29  and  C19_30 
REMARK   11  A    between atoms: C23_34  and  N8_35 
REMARK   12  A    between atoms: C29_46  and  O2_47 
ROOT
HETATM    1  C11 UNL     1      47.583   8.002  -2.297  1.00  0.00     0.144 A 
HETATM    2  N4  UNL     1      48.769   7.804  -1.713  1.00  0.00    -0.175 N 
ATOM      3  H4  UNL     1      48.858   7.954  -0.708  1.00  0.00     0.186 HD
HETATM    4  C12 UNL     1      49.863   7.407  -2.426  1.00  0.00     0.684 A 
HETATM    5  N10 UNL     1      49.784   7.201  -3.749  1.00  0.00    -0.200 N 
ATOM      6  H10 UNL     1      50.610   6.906  -4.270  1.00  0.00     0.183 HD
HETATM    7  C27 UNL     1      48.614   7.384  -4.390  1.00  0.00     0.133 A 
HETATM    8  C28 UNL     1      47.492   7.792  -3.654  1.00  0.00     0.094 A 
HETATM    9 CL1  UNL     1      45.999   8.019  -4.509  1.00  0.00    -0.079 Cl
ENDROOT
BRANCH   1  10
HETATM   10  N3  UNL     1      46.582   8.367  -1.640  1.00  0.00    -0.336 N 
ATOM     11  H3  UNL     1      45.744   7.799  -1.762  1.00  0.00     0.168 HD
BRANCH  10  12
HETATM   12  C10 UNL     1      46.453   9.452  -0.756  1.00  0.00     0.101 A 
HETATM   13  C8  UNL     1      45.933  10.666  -1.157  1.00  0.00     0.100 A 
HETATM   14  C7  UNL     1      45.808  11.733  -0.292  1.00  0.00     0.068 A 
HETATM   15  C6  UNL     1      46.206  11.623   1.038  1.00  0.00     0.036 A 
HETATM   16  C31 UNL     1      46.720  10.428   1.448  1.00  0.00     0.068 A 
HETATM   17  C29 UNL     1      46.846   9.346   0.560  1.00  0.00     0.100 A 
BRANCH  13  18
HETATM   18  O1  UNL     1      45.534  10.783  -2.483  1.00  0.00    -0.353 OA
HETATM   19  C9  UNL     1      44.153  10.870  -2.787  1.00  0.00     0.210 C 
ENDBRANCH  13  18
BRANCH  15  20
HETATM   20  N2  UNL     1      46.065  12.754   1.926  1.00  0.00    -0.371 N 
HETATM   21  C5  UNL     1      45.227  13.852   1.519  1.00  0.00     0.168 C 
HETATM   22  C4  UNL     1      45.158  14.964   2.483  1.00  0.00     0.083 C 
HETATM   23  N1  UNL     1      46.298  15.184   3.279  1.00  0.00    -0.371 N 
HETATM   24  C33 UNL     1      46.899  14.055   3.860  1.00  0.00     0.083 C 
HETATM   25  C32 UNL     1      46.750  12.757   3.164  1.00  0.00     0.168 C 
BRANCH  23  26
HETATM   26  C3  UNL     1      47.136  16.280   2.964  1.00  0.00     0.127 C 
BRANCH  26  27
HETATM   27  C2  UNL     1      48.342  16.457   3.825  1.00  0.00     0.016 C 
HETATM   28  C1  UNL     1      47.954  17.423   4.953  1.00  0.00     0.006 C 
ENDBRANCH  26  27
ENDBRANCH  23  26
ENDBRANCH  15  20
BRANCH  17  29
HETATM   29  O2  UNL     1      47.370   8.152   1.003  1.00  0.00    -0.353 OA
HETATM   30  C30 UNL     1      48.063   8.084   2.239  1.00  0.00     0.210 C 
ENDBRANCH  17  29
ENDBRANCH  10  12
ENDBRANCH   1  10
BRANCH   4  31
HETATM   31  N5  UNL     1      51.000   7.234  -1.801  1.00  0.00    -0.192 N 
ATOM     32  H5  UNL     1      51.859   7.513  -2.274  1.00  0.00     0.184 HD
BRANCH  31  33
HETATM   33  C13 UNL     1      51.101   6.679  -0.502  1.00  0.00     0.051 A 
HETATM   34  C14 UNL     1      51.465   7.410   0.605  1.00  0.00     0.032 A 
HETATM   35  C15 UNL     1      51.565   6.869   1.861  1.00  0.00     0.034 A 
HETATM   36  C16 UNL     1      51.294   5.512   2.066  1.00  0.00     0.057 A 
HETATM   37  C23 UNL     1      50.932   4.762   0.987  1.00  0.00     0.062 A 
HETATM   38  C26 UNL     1      50.836   5.334  -0.280  1.00  0.00     0.061 A 
BRANCH  36  39
HETATM   39  N6  UNL     1      51.412   4.991   3.394  1.00  0.00    -0.376 N 
HETATM   40  C17 UNL     1      50.305   5.102   4.301  1.00  0.00     0.153 C 
HETATM   41  C18 UNL     1      50.583   4.190   5.503  1.00  0.00     0.292 C 
HETATM   42  N7  UNL     1      51.819   4.540   6.136  1.00  0.00     0.091 N 
HETATM   43  C21 UNL     1      52.949   4.600   5.266  1.00  0.00     0.292 C 
HETATM   44  C22 UNL     1      52.624   4.358   3.813  1.00  0.00     0.153 C 
BRANCH  42  45
HETATM   45  C19 UNL     1      52.019   3.697   7.285  1.00  0.00     0.268 C 
HETATM   46  C20 UNL     1      51.476   2.322   6.969  1.00  0.00     0.037 C 
ENDBRANCH  42  45
ENDBRANCH  36  39
BRANCH  37  47
HETATM   47  N8  UNL     1      50.647   3.376   1.170  1.00  0.00    -0.347 N 
HETATM   48  C24 UNL     1      49.431   2.970   1.325  1.00  0.00     0.089 C 
HETATM   49  C25 UNL     1      48.257   3.880   1.327  1.00  0.00     0.085 C 
HETATM   50  N9  UNL     1      49.193   1.590   1.502  1.00  0.00    -0.088 NA
ATOM     51  H8  UNL     1      51.411   2.700   1.178  1.00  0.00     0.167 HD
ENDBRANCH  37  47
ENDBRANCH  31  33
ENDBRANCH   4  31
TORSDOF 12
ENDMDL
