MODEL 1
REMARK VINA RESULT: -7.841218146      0.000      0.000
REMARK  15 active torsions:
REMARK  status: ('A' for Active; 'I' for Inactive)
REMARK    1  A    between atoms: C2_2  and  O1_3 
REMARK    2  A    between atoms: O1_3  and  C3_4 
REMARK    3  A    between atoms: C3_4  and  C4_5 
REMARK    4  A    between atoms: C5_7  and  O3_8 
REMARK    5  A    between atoms: O3_8  and  C6_9 
REMARK    6  A    between atoms: C6_9  and  C7_10 
REMARK    7  A    between atoms: C7_10  and  C8_11 
REMARK    8  A    between atoms: C8_11  and  C9_12 
REMARK    9  A    between atoms: C17_21  and  C18_22 
REMARK   10  A    between atoms: C21_26  and  O5_27 
REMARK   11  A    between atoms: O5_27  and  C22_28 
REMARK   12  A    between atoms: C22_28  and  C23_30 
REMARK   13  A    between atoms: C32_39  and  O7_40 
REMARK   14  A    between atoms: C33_42  and  O8_43 
REMARK   15  A    between atoms: C34_45  and  O9_46 
ROOT
HETATM    1  C6  UNL     1      47.969   9.312   0.041  1.00  0.00     0.120 C 
HETATM    2  C15 UNL     1      48.743   8.269   0.318  1.00  0.00    -0.029 C 
HETATM    3  C16 UNL     1      49.314   7.519  -0.875  1.00  0.00     0.070 C 
HETATM    4  C17 UNL     1      50.736   7.103  -0.630  1.00  0.00     0.126 C 
HETATM    5  O4  UNL     1      51.128   6.829   0.659  1.00  0.00    -0.377 OA
HETATM    6  C20 UNL     1      50.685   7.809   1.472  1.00  0.00     0.160 C 
HETATM    7  C21 UNL     1      51.085   7.916   2.885  1.00  0.00     0.166 C 
HETATM    8  C26 UNL     1      49.974   7.640   3.796  1.00  0.00     0.031 A 
HETATM    9  C27 UNL     1      48.752   7.848   2.874  1.00  0.00     0.012 A 
HETATM   10  C28 UNL     1      49.165   7.632   1.519  1.00  0.00     0.055 C 
HETATM   11  C29 UNL     1      48.990   6.586   3.789  1.00  0.00    -0.036 A 
HETATM   12  C30 UNL     1      49.002   5.281   3.105  1.00  0.00     0.015 C 
HETATM   13  C31 UNL     1      48.006   6.562   4.981  1.00  0.00     0.015 C 
ENDROOT
BRANCH   1  14
HETATM   14  O3  UNL     1      47.825   9.500  -1.359  1.00  0.00    -0.309 OA
BRANCH  14  15
HETATM   15  C5  UNL     1      46.625   9.634  -2.000  1.00  0.00     0.299 C 
HETATM   16  O2  UNL     1      45.788   8.531  -1.660  1.00  0.00    -0.348 OA
HETATM   17  C4  UNL     1      44.515   8.860  -2.224  1.00  0.00     0.179 C 
HETATM   18  C34 UNL     1      44.508   8.547  -3.662  1.00  0.00     0.180 C 
HETATM   19  C33 UNL     1      45.937   8.765  -4.202  1.00  0.00     0.183 C 
HETATM   20  C32 UNL     1      46.573   9.884  -3.448  1.00  0.00     0.205 C 
BRANCH  17  21
HETATM   21  C3  UNL     1      43.466   8.219  -1.390  1.00  0.00     0.202 C 
BRANCH  21  22
HETATM   22  O1  UNL     1      42.276   7.940  -1.911  1.00  0.00    -0.389 OA
BRANCH  22  23
HETATM   23  C2  UNL     1      41.397   8.692  -2.528  1.00  0.00     0.163 C 
HETATM   24  C1  UNL     1      40.722   8.138  -3.770  1.00  0.00     0.033 C 
ENDBRANCH  22  23
ENDBRANCH  21  22
ENDBRANCH  17  21
BRANCH  18  25
HETATM   25  O9  UNL     1      44.249   7.219  -3.992  1.00  0.00    -0.390 OA
ATOM     26  H9  UNL     1      43.897   7.070  -4.861  1.00  0.00     0.210 HD
ENDBRANCH  18  25
BRANCH  19  27
HETATM   27  O8  UNL     1      46.623   7.586  -4.012  1.00  0.00    -0.390 OA
ATOM     28  H8  UNL     1      47.558   7.714  -4.122  1.00  0.00     0.210 HD
ENDBRANCH  19  27
BRANCH  20  29
HETATM   29  O7  UNL     1      45.934  11.115  -3.758  1.00  0.00    -0.388 OA
ATOM     30  H7  UNL     1      45.111  10.987  -4.215  1.00  0.00     0.210 HD
ENDBRANCH  20  29
ENDBRANCH  14  15
ENDBRANCH   1  14
BRANCH   1  31
HETATM   31  C7  UNL     1      47.376  10.155   0.981  1.00  0.00    -0.091 C 
BRANCH  31  32
HETATM   32  C8  UNL     1      46.835  10.922   1.839  1.00  0.00     0.069 C 
BRANCH  32  33
HETATM   33  C9  UNL     1      46.324  12.268   1.844  1.00  0.00    -0.029 A 
HETATM   34  C10 UNL     1      45.240  12.716   1.172  1.00  0.00     0.013 A 
HETATM   35  C11 UNL     1      44.769  14.047   1.244  1.00  0.00     0.024 A 
HETATM   36  C12 UNL     1      45.438  14.952   2.037  1.00  0.00     0.034 A 
HETATM   37 CL1  UNL     1      44.892  16.618   2.158  1.00  0.00    -0.084 Cl
HETATM   38  C13 UNL     1      46.539  14.507   2.721  1.00  0.00     0.024 A 
HETATM   39  C14 UNL     1      46.985  13.197   2.636  1.00  0.00     0.013 A 
ENDBRANCH  32  33
ENDBRANCH  31  32
ENDBRANCH   1  31
BRANCH   4  40
HETATM   40  C18 UNL     1      51.252   6.103  -1.635  1.00  0.00     0.028 C 
HETATM   41  C19 UNL     1      50.596   4.765  -1.557  1.00  0.00     0.007 C 
ENDBRANCH   4  40
BRANCH   7  42
HETATM   42  O5  UNL     1      52.340   7.447   3.217  1.00  0.00    -0.313 OA
BRANCH  42  43
HETATM   43  C22 UNL     1      52.685   6.775   4.315  1.00  0.00     0.263 C 
HETATM   44  O6  UNL     1      53.135   7.494   5.235  1.00  0.00    -0.265 OA
BRANCH  43  45
HETATM   45  C23 UNL     1      52.609   5.322   4.576  1.00  0.00     0.085 A 
HETATM   46  C24 UNL     1      53.505   4.540   3.590  1.00  0.00     0.015 A 
HETATM   47  C25 UNL     1      53.850   4.585   5.029  1.00  0.00     0.015 A 
ENDBRANCH  43  45
ENDBRANCH  42  43
ENDBRANCH   7  42
TORSDOF 15
ENDMDL
MODEL 2
REMARK VINA RESULT: -7.617187278      1.686      8.355
REMARK  15 active torsions:
REMARK  status: ('A' for Active; 'I' for Inactive)
REMARK    1  A    between atoms: C2_2  and  O1_3 
REMARK    2  A    between atoms: O1_3  and  C3_4 
REMARK    3  A    between atoms: C3_4  and  C4_5 
REMARK    4  A    between atoms: C5_7  and  O3_8 
REMARK    5  A    between atoms: O3_8  and  C6_9 
REMARK    6  A    between atoms: C6_9  and  C7_10 
REMARK    7  A    between atoms: C7_10  and  C8_11 
REMARK    8  A    between atoms: C8_11  and  C9_12 
REMARK    9  A    between atoms: C17_21  and  C18_22 
REMARK   10  A    between atoms: C21_26  and  O5_27 
REMARK   11  A    between atoms: O5_27  and  C22_28 
REMARK   12  A    between atoms: C22_28  and  C23_30 
REMARK   13  A    between atoms: C32_39  and  O7_40 
REMARK   14  A    between atoms: C33_42  and  O8_43 
REMARK   15  A    between atoms: C34_45  and  O9_46 
ROOT
HETATM    1  C6  UNL     1      48.036   9.558   0.425  1.00  0.00     0.120 C 
HETATM    2  C15 UNL     1      47.639   9.459  -0.838  1.00  0.00    -0.029 C 
HETATM    3  C16 UNL     1      48.397   8.467  -1.706  1.00  0.00     0.070 C 
HETATM    4  C17 UNL     1      47.471   7.724  -2.625  1.00  0.00     0.126 C 
HETATM    5  O4  UNL     1      46.335   8.359  -3.067  1.00  0.00    -0.377 OA
HETATM    6  C20 UNL     1      45.726   8.952  -2.020  1.00  0.00     0.160 C 
HETATM    7  C21 UNL     1      44.390   9.563  -2.116  1.00  0.00     0.166 C 
HETATM    8  C26 UNL     1      44.440  11.020  -1.992  1.00  0.00     0.031 A 
HETATM    9  C27 UNL     1      45.813  11.232  -1.318  1.00  0.00     0.012 A 
HETATM   10  C28 UNL     1      46.648  10.109  -1.626  1.00  0.00     0.055 C 
HETATM   11  C29 UNL     1      45.314  11.988  -2.609  1.00  0.00    -0.036 A 
HETATM   12  C30 UNL     1      46.170  11.870  -3.803  1.00  0.00     0.015 C 
HETATM   13  C31 UNL     1      45.008  13.474  -2.308  1.00  0.00     0.015 C 
ENDROOT
BRANCH   1  14
HETATM   14  O3  UNL     1      49.129   8.696   0.700  1.00  0.00    -0.309 OA
BRANCH  14  15
HETATM   15  C5  UNL     1      49.263   7.960   1.845  1.00  0.00     0.299 C 
HETATM   16  O2  UNL     1      50.594   7.456   1.924  1.00  0.00    -0.348 OA
HETATM   17  C4  UNL     1      50.678   6.869   3.227  1.00  0.00     0.179 C 
HETATM   18  C34 UNL     1      50.068   5.530   3.213  1.00  0.00     0.180 C 
HETATM   19  C33 UNL     1      48.918   5.543   2.184  1.00  0.00     0.183 C 
HETATM   20  C32 UNL     1      48.297   6.900   2.169  1.00  0.00     0.205 C 
BRANCH  17  21
HETATM   21  C3  UNL     1      52.089   6.962   3.680  1.00  0.00     0.202 C 
BRANCH  21  22
HETATM   22  O1  UNL     1      52.561   6.104   4.579  1.00  0.00    -0.389 OA
BRANCH  22  23
HETATM   23  C2  UNL     1      53.572   5.271   4.540  1.00  0.00     0.163 C 
HETATM   24  C1  UNL     1      53.522   4.037   5.424  1.00  0.00     0.033 C 
ENDBRANCH  22  23
ENDBRANCH  21  22
ENDBRANCH  17  21
BRANCH  18  25
HETATM   25  O9  UNL     1      50.883   4.498   2.755  1.00  0.00    -0.390 OA
ATOM     26  H9  UNL     1      51.617   4.271   3.315  1.00  0.00     0.210 HD
ENDBRANCH  18  25
BRANCH  19  27
HETATM   27  O8  UNL     1      49.468   5.237   0.960  1.00  0.00    -0.390 OA
ATOM     28  H8  UNL     1      49.166   4.391   0.651  1.00  0.00     0.210 HD
ENDBRANCH  19  27
BRANCH  20  29
HETATM   29  O7  UNL     1      47.620   7.147   3.395  1.00  0.00    -0.388 OA
ATOM     30  H7  UNL     1      46.886   6.557   3.525  1.00  0.00     0.210 HD
ENDBRANCH  20  29
ENDBRANCH  14  15
ENDBRANCH   1  14
BRANCH   1  31
HETATM   31  C7  UNL     1      47.457  10.376   1.396  1.00  0.00    -0.091 C 
BRANCH  31  32
HETATM   32  C8  UNL     1      46.931  11.123   2.281  1.00  0.00     0.069 C 
BRANCH  32  33
HETATM   33  C9  UNL     1      46.506  12.497   2.353  1.00  0.00    -0.029 A 
HETATM   34  C10 UNL     1      47.104  13.484   3.056  1.00  0.00     0.013 A 
HETATM   35  C11 UNL     1      46.655  14.824   3.060  1.00  0.00     0.024 A 
HETATM   36  C12 UNL     1      45.550  15.162   2.313  1.00  0.00     0.034 A 
HETATM   37 CL1  UNL     1      44.952  16.815   2.286  1.00  0.00    -0.084 Cl
HETATM   38  C13 UNL     1      44.935  14.167   1.597  1.00  0.00     0.024 A 
HETATM   39  C14 UNL     1      45.391  12.858   1.608  1.00  0.00     0.013 A 
ENDBRANCH  32  33
ENDBRANCH  31  32
ENDBRANCH   1  31
BRANCH   4  40
HETATM   40  C18 UNL     1      48.187   6.959  -3.710  1.00  0.00     0.028 C 
HETATM   41  C19 UNL     1      48.951   5.774  -3.221  1.00  0.00     0.007 C 
ENDBRANCH   4  40
BRANCH   7  42
HETATM   42  O5  UNL     1      43.512   9.010  -3.025  1.00  0.00    -0.313 OA
BRANCH  42  43
HETATM   43  C22 UNL     1      42.453   8.244  -2.761  1.00  0.00     0.263 C 
HETATM   44  O6  UNL     1      42.626   7.438  -1.820  1.00  0.00    -0.265 OA
BRANCH  43  45
HETATM   45  C23 UNL     1      41.133   8.225  -3.427  1.00  0.00     0.085 A 
HETATM   46  C24 UNL     1      40.195   9.289  -2.815  1.00  0.00     0.015 A 
HETATM   47  C25 UNL     1      40.679   9.440  -4.206  1.00  0.00     0.015 A 
ENDBRANCH  43  45
ENDBRANCH  42  43
ENDBRANCH   7  42
TORSDOF 15
ENDMDL
MODEL 3
REMARK VINA RESULT: -7.415216341      2.117      2.746
REMARK  15 active torsions:
REMARK  status: ('A' for Active; 'I' for Inactive)
REMARK    1  A    between atoms: C2_2  and  O1_3 
REMARK    2  A    between atoms: O1_3  and  C3_4 
REMARK    3  A    between atoms: C3_4  and  C4_5 
REMARK    4  A    between atoms: C5_7  and  O3_8 
REMARK    5  A    between atoms: O3_8  and  C6_9 
REMARK    6  A    between atoms: C6_9  and  C7_10 
REMARK    7  A    between atoms: C7_10  and  C8_11 
REMARK    8  A    between atoms: C8_11  and  C9_12 
REMARK    9  A    between atoms: C17_21  and  C18_22 
REMARK   10  A    between atoms: C21_26  and  O5_27 
REMARK   11  A    between atoms: O5_27  and  C22_28 
REMARK   12  A    between atoms: C22_28  and  C23_30 
REMARK   13  A    between atoms: C32_39  and  O7_40 
REMARK   14  A    between atoms: C33_42  and  O8_43 
REMARK   15  A    between atoms: C34_45  and  O9_46 
ROOT
HETATM    1  C6  UNL     1      47.663   9.470   0.362  1.00  0.00     0.120 C 
HETATM    2  C15 UNL     1      48.374   8.366   0.562  1.00  0.00    -0.029 C 
HETATM    3  C16 UNL     1      48.756   7.578  -0.680  1.00  0.00     0.070 C 
HETATM    4  C17 UNL     1      50.157   7.046  -0.582  1.00  0.00     0.126 C 
HETATM    5  O4  UNL     1      50.656   6.735   0.661  1.00  0.00    -0.377 OA
HETATM    6  C20 UNL     1      50.380   7.744   1.512  1.00  0.00     0.160 C 
HETATM    7  C21 UNL     1      50.931   7.811   2.875  1.00  0.00     0.166 C 
HETATM    8  C26 UNL     1      49.901   7.622   3.897  1.00  0.00     0.031 A 
HETATM    9  C27 UNL     1      48.612   7.933   3.105  1.00  0.00     0.012 A 
HETATM   10  C28 UNL     1      48.863   7.691   1.715  1.00  0.00     0.055 C 
HETATM   11  C29 UNL     1      48.838   6.652   3.995  1.00  0.00    -0.036 A 
HETATM   12  C30 UNL     1      48.673   5.353   3.318  1.00  0.00     0.015 C 
HETATM   13  C31 UNL     1      47.983   6.702   5.282  1.00  0.00     0.015 C 
ENDROOT
BRANCH   1  14
HETATM   14  O3  UNL     1      47.393   9.677  -1.016  1.00  0.00    -0.309 OA
BRANCH  14  15
HETATM   15  C5  UNL     1      47.252  10.906  -1.598  1.00  0.00     0.299 C 
HETATM   16  O2  UNL     1      45.877  11.125  -1.902  1.00  0.00    -0.348 OA
HETATM   17  C4  UNL     1      45.817  12.490  -2.328  1.00  0.00     0.179 C 
HETATM   18  C34 UNL     1      46.244  12.595  -3.732  1.00  0.00     0.180 C 
HETATM   19  C33 UNL     1      47.304  11.504  -3.990  1.00  0.00     0.183 C 
HETATM   20  C32 UNL     1      48.093  11.293  -2.741  1.00  0.00     0.205 C 
BRANCH  17  21
HETATM   21  C3  UNL     1      44.468  13.014  -1.993  1.00  0.00     0.202 C 
BRANCH  21  22
HETATM   22  O1  UNL     1      43.937  13.999  -2.709  1.00  0.00    -0.389 OA
BRANCH  22  23
HETATM   23  C2  UNL     1      43.304  15.091  -2.354  1.00  0.00     0.163 C 
HETATM   24  C1  UNL     1      44.013  16.066  -1.430  1.00  0.00     0.033 C 
ENDBRANCH  22  23
ENDBRANCH  21  22
ENDBRANCH  17  21
BRANCH  18  25
HETATM   25  O9  UNL     1      45.268  12.313  -4.685  1.00  0.00    -0.390 OA
ATOM     26  H9  UNL     1      45.333  11.462  -5.104  1.00  0.00     0.210 HD
ENDBRANCH  18  25
BRANCH  19  27
HETATM   27  O8  UNL     1      46.626  10.360  -4.347  1.00  0.00    -0.390 OA
ATOM     28  H8  UNL     1      46.240   9.940  -3.587  1.00  0.00     0.210 HD
ENDBRANCH  19  27
BRANCH  20  29
HETATM   29  O7  UNL     1      48.888  12.438  -2.459  1.00  0.00    -0.388 OA
ATOM     30  H7  UNL     1      48.821  13.098  -3.139  1.00  0.00     0.210 HD
ENDBRANCH  20  29
ENDBRANCH  14  15
ENDBRANCH   1  14
BRANCH   1  31
HETATM   31  C7  UNL     1      47.241  10.355   1.355  1.00  0.00    -0.091 C 
BRANCH  31  32
HETATM   32  C8  UNL     1      46.857  11.159   2.262  1.00  0.00     0.069 C 
BRANCH  32  33
HETATM   33  C9  UNL     1      46.455  12.541   2.314  1.00  0.00    -0.029 A 
HETATM   34  C10 UNL     1      47.096  13.538   2.964  1.00  0.00     0.013 A 
HETATM   35  C11 UNL     1      46.666  14.885   2.950  1.00  0.00     0.024 A 
HETATM   36  C12 UNL     1      45.536  15.219   2.241  1.00  0.00     0.034 A 
HETATM   37 CL1  UNL     1      44.961  16.880   2.194  1.00  0.00    -0.084 Cl
HETATM   38  C13 UNL     1      44.878  14.215   1.579  1.00  0.00     0.024 A 
HETATM   39  C14 UNL     1      45.315  12.900   1.606  1.00  0.00     0.013 A 
ENDBRANCH  32  33
ENDBRANCH  31  32
ENDBRANCH   1  31
BRANCH   4  40
HETATM   40  C18 UNL     1      50.483   6.013  -1.631  1.00  0.00     0.028 C 
HETATM   41  C19 UNL     1      49.598   4.812  -1.601  1.00  0.00     0.007 C 
ENDBRANCH   4  40
BRANCH   7  42
HETATM   42  O5  UNL     1      52.171   7.239   3.078  1.00  0.00    -0.313 OA
BRANCH  42  43
HETATM   43  C22 UNL     1      52.687   6.821   4.234  1.00  0.00     0.263 C 
HETATM   44  O6  UNL     1      52.998   7.744   5.020  1.00  0.00    -0.265 OA
BRANCH  43  45
HETATM   45  C23 UNL     1      52.935   5.437   4.693  1.00  0.00     0.085 A 
HETATM   46  C24 UNL     1      51.697   4.871   5.423  1.00  0.00     0.015 A 
HETATM   47  C25 UNL     1      52.109   4.307   4.118  1.00  0.00     0.015 A 
ENDBRANCH  43  45
ENDBRANCH  42  43
ENDBRANCH   7  42
TORSDOF 15
ENDMDL
MODEL 4
REMARK VINA RESULT: -7.261734779      1.068      1.819
REMARK  15 active torsions:
REMARK  status: ('A' for Active; 'I' for Inactive)
REMARK    1  A    between atoms: C2_2  and  O1_3 
REMARK    2  A    between atoms: O1_3  and  C3_4 
REMARK    3  A    between atoms: C3_4  and  C4_5 
REMARK    4  A    between atoms: C5_7  and  O3_8 
REMARK    5  A    between atoms: O3_8  and  C6_9 
REMARK    6  A    between atoms: C6_9  and  C7_10 
REMARK    7  A    between atoms: C7_10  and  C8_11 
REMARK    8  A    between atoms: C8_11  and  C9_12 
REMARK    9  A    between atoms: C17_21  and  C18_22 
REMARK   10  A    between atoms: C21_26  and  O5_27 
REMARK   11  A    between atoms: O5_27  and  C22_28 
REMARK   12  A    between atoms: C22_28  and  C23_30 
REMARK   13  A    between atoms: C32_39  and  O7_40 
REMARK   14  A    between atoms: C33_42  and  O8_43 
REMARK   15  A    between atoms: C34_45  and  O9_46 
ROOT
HETATM    1  C6  UNL     1      47.553   9.110   0.222  1.00  0.00     0.120 C 
HETATM    2  C15 UNL     1      48.322   8.064   0.501  1.00  0.00    -0.029 C 
HETATM    3  C16 UNL     1      48.729   7.195  -0.678  1.00  0.00     0.070 C 
HETATM    4  C17 UNL     1      50.157   6.745  -0.559  1.00  0.00     0.126 C 
HETATM    5  O4  UNL     1      50.687   6.565   0.696  1.00  0.00    -0.377 OA
HETATM    6  C20 UNL     1      50.370   7.626   1.465  1.00  0.00     0.160 C 
HETATM    7  C21 UNL     1      50.933   7.835   2.809  1.00  0.00     0.166 C 
HETATM    8  C26 UNL     1      49.927   7.681   3.860  1.00  0.00     0.031 A 
HETATM    9  C27 UNL     1      48.614   7.858   3.066  1.00  0.00     0.012 A 
HETATM   10  C28 UNL     1      48.861   7.514   1.698  1.00  0.00     0.055 C 
HETATM   11  C29 UNL     1      48.918   6.669   4.056  1.00  0.00    -0.036 A 
HETATM   12  C30 UNL     1      48.812   5.312   3.492  1.00  0.00     0.015 C 
HETATM   13  C31 UNL     1      48.078   6.783   5.349  1.00  0.00     0.015 C 
ENDROOT
BRANCH   1  14
HETATM   14  O3  UNL     1      47.254   9.186  -1.163  1.00  0.00    -0.309 OA
BRANCH  14  15
HETATM   15  C5  UNL     1      46.030   8.907  -1.705  1.00  0.00     0.299 C 
HETATM   16  O2  UNL     1      46.046   9.238  -3.092  1.00  0.00    -0.348 OA
HETATM   17  C4  UNL     1      44.801   8.741  -3.593  1.00  0.00     0.179 C 
HETATM   18  C34 UNL     1      43.721   9.689  -3.280  1.00  0.00     0.180 C 
HETATM   19  C33 UNL     1      44.066  10.378  -1.943  1.00  0.00     0.183 C 
HETATM   20  C32 UNL     1      44.801   9.411  -1.076  1.00  0.00     0.205 C 
BRANCH  17  21
HETATM   21  C3  UNL     1      44.994   8.386  -5.023  1.00  0.00     0.202 C 
BRANCH  21  22
HETATM   22  O1  UNL     1      43.941   8.215  -5.816  1.00  0.00    -0.389 OA
BRANCH  22  23
HETATM   23  C2  UNL     1      43.167   7.178  -6.024  1.00  0.00     0.163 C 
HETATM   24  C1  UNL     1      41.865   7.085  -5.249  1.00  0.00     0.033 C 
ENDBRANCH  22  23
ENDBRANCH  21  22
ENDBRANCH  17  21
BRANCH  18  25
HETATM   25  O9  UNL     1      43.582  10.761  -4.157  1.00  0.00    -0.390 OA
ATOM     26  H9  UNL     1      42.951  10.645  -4.857  1.00  0.00     0.210 HD
ENDBRANCH  18  25
BRANCH  19  27
HETATM   27  O8  UNL     1      44.852  11.469  -2.244  1.00  0.00    -0.390 OA
ATOM     28  H8  UNL     1      44.320  12.242  -2.394  1.00  0.00     0.210 HD
ENDBRANCH  19  27
BRANCH  20  29
HETATM   29  O7  UNL     1      43.936   8.359  -0.667  1.00  0.00    -0.388 OA
ATOM     30  H7  UNL     1      43.744   7.756  -1.377  1.00  0.00     0.210 HD
ENDBRANCH  20  29
ENDBRANCH  14  15
ENDBRANCH   1  14
BRANCH   1  31
HETATM   31  C7  UNL     1      47.098  10.052   1.146  1.00  0.00    -0.091 C 
BRANCH  31  32
HETATM   32  C8  UNL     1      46.681  10.911   1.985  1.00  0.00     0.069 C 
BRANCH  32  33
HETATM   33  C9  UNL     1      46.213  12.272   1.924  1.00  0.00    -0.029 A 
HETATM   34  C10 UNL     1      45.159  12.725   1.210  1.00  0.00     0.013 A 
HETATM   35  C11 UNL     1      44.729  14.072   1.217  1.00  0.00     0.024 A 
HETATM   36  C12 UNL     1      45.407  14.987   1.989  1.00  0.00     0.034 A 
HETATM   37 CL1  UNL     1      44.912  16.673   2.031  1.00  0.00    -0.084 Cl
HETATM   38  C13 UNL     1      46.479  14.537   2.717  1.00  0.00     0.024 A 
HETATM   39  C14 UNL     1      46.885  13.212   2.694  1.00  0.00     0.013 A 
ENDBRANCH  32  33
ENDBRANCH  31  32
ENDBRANCH   1  31
BRANCH   4  40
HETATM   40  C18 UNL     1      50.523   5.645  -1.524  1.00  0.00     0.028 C 
HETATM   41  C19 UNL     1      49.354   5.009  -2.199  1.00  0.00     0.007 C 
ENDBRANCH   4  40
BRANCH   7  42
HETATM   42  O5  UNL     1      52.204   7.346   3.038  1.00  0.00    -0.313 OA
BRANCH  42  43
HETATM   43  C22 UNL     1      52.629   6.674   4.108  1.00  0.00     0.263 C 
HETATM   44  O6  UNL     1      53.074   7.400   5.025  1.00  0.00    -0.265 OA
BRANCH  43  45
HETATM   45  C23 UNL     1      52.644   5.214   4.341  1.00  0.00     0.085 A 
HETATM   46  C24 UNL     1      53.807   4.549   3.573  1.00  0.00     0.015 A 
HETATM   47  C25 UNL     1      53.825   4.591   5.053  1.00  0.00     0.015 A 
ENDBRANCH  43  45
ENDBRANCH  42  43
ENDBRANCH   7  42
TORSDOF 15
ENDMDL
MODEL 5
REMARK VINA RESULT: -7.201835001      2.373      8.598
REMARK  15 active torsions:
REMARK  status: ('A' for Active; 'I' for Inactive)
REMARK    1  A    between atoms: C2_2  and  O1_3 
REMARK    2  A    between atoms: O1_3  and  C3_4 
REMARK    3  A    between atoms: C3_4  and  C4_5 
REMARK    4  A    between atoms: C5_7  and  O3_8 
REMARK    5  A    between atoms: O3_8  and  C6_9 
REMARK    6  A    between atoms: C6_9  and  C7_10 
REMARK    7  A    between atoms: C7_10  and  C8_11 
REMARK    8  A    between atoms: C8_11  and  C9_12 
REMARK    9  A    between atoms: C17_21  and  C18_22 
REMARK   10  A    between atoms: C21_26  and  O5_27 
REMARK   11  A    between atoms: O5_27  and  C22_28 
REMARK   12  A    between atoms: C22_28  and  C23_30 
REMARK   13  A    between atoms: C32_39  and  O7_40 
REMARK   14  A    between atoms: C33_42  and  O8_43 
REMARK   15  A    between atoms: C34_45  and  O9_46 
ROOT
HETATM    1  C6  UNL     1      46.163   9.899  -0.349  1.00  0.00     0.120 C 
HETATM    2  C15 UNL     1      45.948  10.070  -1.648  1.00  0.00    -0.029 C 
HETATM    3  C16 UNL     1      46.452   8.967  -2.565  1.00  0.00     0.070 C 
HETATM    4  C17 UNL     1      45.478   8.687  -3.673  1.00  0.00     0.126 C 
HETATM    5  O4  UNL     1      44.696   9.719  -4.136  1.00  0.00    -0.377 OA
HETATM    6  C20 UNL     1      44.171  10.381  -3.085  1.00  0.00     0.160 C 
HETATM    7  C21 UNL     1      43.145  11.425  -3.231  1.00  0.00     0.166 C 
HETATM    8  C26 UNL     1      43.657  12.754  -2.896  1.00  0.00     0.031 A 
HETATM    9  C27 UNL     1      44.908  12.406  -2.058  1.00  0.00     0.012 A 
HETATM   10  C28 UNL     1      45.357  11.099  -2.434  1.00  0.00     0.055 C 
HETATM   11  C29 UNL     1      44.885  13.412  -3.272  1.00  0.00    -0.036 A 
HETATM   12  C30 UNL     1      45.819  13.122  -4.374  1.00  0.00     0.015 C 
HETATM   13  C31 UNL     1      45.049  14.874  -2.795  1.00  0.00     0.015 C 
ENDROOT
BRANCH   1  14
HETATM   14  O3  UNL     1      46.854   8.688  -0.088  1.00  0.00    -0.309 OA
BRANCH  14  15
HETATM   15  C5  UNL     1      47.969   8.590   0.698  1.00  0.00     0.299 C 
HETATM   16  O2  UNL     1      49.019   7.982  -0.052  1.00  0.00    -0.348 OA
HETATM   17  C4  UNL     1      50.172   8.097   0.787  1.00  0.00     0.179 C 
HETATM   18  C34 UNL     1      50.156   7.037   1.808  1.00  0.00     0.180 C 
HETATM   19  C33 UNL     1      48.684   6.732   2.153  1.00  0.00     0.183 C 
HETATM   20  C32 UNL     1      47.890   7.991   2.039  1.00  0.00     0.205 C 
BRANCH  17  21
HETATM   21  C3  UNL     1      51.369   8.172  -0.089  1.00  0.00     0.202 C 
BRANCH  21  22
HETATM   22  O1  UNL     1      51.996   9.330  -0.266  1.00  0.00    -0.389 OA
BRANCH  22  23
HETATM   23  C2  UNL     1      51.894  10.240  -1.203  1.00  0.00     0.163 C 
HETATM   24  C1  UNL     1      50.608  11.043  -1.291  1.00  0.00     0.033 C 
ENDBRANCH  22  23
ENDBRANCH  21  22
ENDBRANCH  17  21
BRANCH  18  25
HETATM   25  O9  UNL     1      50.644   5.798   1.401  1.00  0.00    -0.390 OA
ATOM     26  H9  UNL     1      51.587   5.693   1.435  1.00  0.00     0.210 HD
ENDBRANCH  18  25
BRANCH  19  27
HETATM   27  O8  UNL     1      48.246   5.787   1.253  1.00  0.00    -0.390 OA
ATOM     28  H8  UNL     1      48.878   5.660   0.556  1.00  0.00     0.210 HD
ENDBRANCH  19  27
BRANCH  20  29
HETATM   29  O7  UNL     1      48.265   8.907   3.060  1.00  0.00    -0.388 OA
ATOM     30  H7  UNL     1      48.450   8.470   3.883  1.00  0.00     0.210 HD
ENDBRANCH  20  29
ENDBRANCH  14  15
ENDBRANCH   1  14
BRANCH   1  31
HETATM   31  C7  UNL     1      45.752  10.768   0.663  1.00  0.00    -0.091 C 
BRANCH  31  32
HETATM   32  C8  UNL     1      45.380  11.560   1.584  1.00  0.00     0.069 C 
BRANCH  32  33
HETATM   33  C9  UNL     1      45.755  12.878   2.027  1.00  0.00    -0.029 A 
HETATM   34  C10 UNL     1      46.836  13.194   2.774  1.00  0.00     0.013 A 
HETATM   35  C11 UNL     1      47.169  14.516   3.150  1.00  0.00     0.024 A 
HETATM   36  C12 UNL     1      46.360  15.551   2.743  1.00  0.00     0.034 A 
HETATM   37 CL1  UNL     1      46.730  17.212   3.187  1.00  0.00    -0.084 Cl
HETATM   38  C13 UNL     1      45.260  15.241   1.986  1.00  0.00     0.024 A 
HETATM   39  C14 UNL     1      44.951  13.937   1.629  1.00  0.00     0.013 A 
ENDBRANCH  32  33
ENDBRANCH  31  32
ENDBRANCH   1  31
BRANCH   4  40
HETATM   40  C18 UNL     1      46.050   7.832  -4.776  1.00  0.00     0.028 C 
HETATM   41  C19 UNL     1      47.485   7.468  -4.585  1.00  0.00     0.007 C 
ENDBRANCH   4  40
BRANCH   7  42
HETATM   42  O5  UNL     1      42.277  11.305  -4.298  1.00  0.00    -0.313 OA
BRANCH  42  43
HETATM   43  C22 UNL     1      40.972  11.036  -4.250  1.00  0.00     0.263 C 
HETATM   44  O6  UNL     1      40.240  12.050  -4.251  1.00  0.00    -0.265 OA
BRANCH  43  45
HETATM   45  C23 UNL     1      40.298   9.721  -4.194  1.00  0.00     0.085 A 
HETATM   46  C24 UNL     1      40.592   9.011  -2.854  1.00  0.00     0.015 A 
HETATM   47  C25 UNL     1      39.222   9.485  -3.156  1.00  0.00     0.015 A 
ENDBRANCH  43  45
ENDBRANCH  42  43
ENDBRANCH   7  42
TORSDOF 15
ENDMDL
