MODEL 1
REMARK VINA RESULT: -7.811852352      0.000      0.000
REMARK  12 active torsions:
REMARK  status: ('A' for Active; 'I' for Inactive)
REMARK    1  A    between atoms: C2_2  and  N1_5 
REMARK    2  A    between atoms: N1_5  and  C5_8 
REMARK    3  A    between atoms: C5_8  and  C6_9 
REMARK    4  A    between atoms: C6_9  and  C9_12 
REMARK    5  A    between atoms: C9_12  and  C12_15 
REMARK    6  A    between atoms: C12_15  and  O1_16 
REMARK    7  A    between atoms: O1_16  and  C13_17 
REMARK    8  A    between atoms: C16_21  and  C17_22 
REMARK    9  A    between atoms: C17_22  and  C18_23 
REMARK   10  A    between atoms: C19_26  and  C20_27 
REMARK   11  A    between atoms: C20_27  and  C21_28 
REMARK   12  A    between atoms: C21_28  and  O5_29 
ROOT
HETATM    1  C13 UNL     1      47.506   8.301   0.292  1.00  0.00     0.263 C 
HETATM    2  C14 UNL     1      49.055   8.523   0.229  1.00  0.00     0.095 C 
HETATM    3  C15 UNL     1      49.451   7.424   1.220  1.00  0.00     0.159 C 
HETATM    4  O2  UNL     1      50.608   7.754   1.852  1.00  0.00    -0.376 OA
HETATM    5  C16 UNL     1      51.307   6.719   2.428  1.00  0.00     0.140 C 
HETATM    6  C19 UNL     1      50.704   6.343   3.800  1.00  0.00     0.043 C 
HETATM    7  C29 UNL     1      49.761   7.380   4.201  1.00  0.00    -0.021 C 
HETATM    8  C30 UNL     1      48.735   7.828   3.496  1.00  0.00     0.004 C 
HETATM    9  C31 UNL     1      48.241   7.430   2.127  1.00  0.00     0.176 C 
HETATM   10  O8  UNL     1      47.376   8.406   1.689  1.00  0.00    -0.350 OA
ENDROOT
BRANCH   1  11
HETATM   11  O1  UNL     1      46.863   9.240  -0.396  1.00  0.00    -0.360 OA
BRANCH  11  12
HETATM   12  C12 UNL     1      46.225  10.227   0.251  1.00  0.00     0.180 C 
BRANCH  12  13
HETATM   13  C9  UNL     1      46.591  11.646   0.112  1.00  0.00    -0.018 C 
HETATM   14  C10 UNL     1      48.009  11.959   0.511  1.00  0.00     0.018 C 
HETATM   15  C11 UNL     1      46.509  12.096  -1.355  1.00  0.00     0.018 C 
BRANCH  13  16
HETATM   16  C6  UNL     1      45.618  12.495   0.916  1.00  0.00    -0.015 C 
HETATM   17  C7  UNL     1      44.589  11.571   1.586  1.00  0.00     0.017 C 
HETATM   18  C8  UNL     1      44.818  13.425   0.044  1.00  0.00     0.017 C 
BRANCH  16  19
HETATM   19  C5  UNL     1      46.361  13.225   1.996  1.00  0.00     0.242 C 
BRANCH  19  20
HETATM   20  N1  UNL     1      45.893  14.613   2.124  1.00  0.00    -0.067 N 
ATOM     21  H12 UNL     1      44.881  14.702   2.032  1.00  0.00     0.278 HD
ATOM     22  H11 UNL     1      46.151  15.196   1.328  1.00  0.00     0.278 HD
BRANCH  20  23
HETATM   23  C2  UNL     1      46.404  15.132   3.411  1.00  0.00     0.115 C 
HETATM   24  C1  UNL     1      45.223  15.744   4.127  1.00  0.00     0.045 C 
HETATM   25  C3  UNL     1      47.035  14.022   4.216  1.00  0.00     0.045 C 
HETATM   26  C4  UNL     1      47.426  16.201   3.101  1.00  0.00     0.045 C 
ENDBRANCH  20  23
ENDBRANCH  19  20
ENDBRANCH  16  19
ENDBRANCH  13  16
ENDBRANCH  12  13
ENDBRANCH  11  12
ENDBRANCH   1  11
BRANCH   5  27
HETATM   27  C17 UNL     1      51.336   5.459   1.616  1.00  0.00     0.145 C 
BRANCH  27  28
HETATM   28  C18 UNL     1      52.707   5.017   1.288  1.00  0.00     0.175 C 
HETATM   29  O3  UNL     1      53.527   5.889   0.901  1.00  0.00    -0.648 OA
HETATM   30  O4  UNL     1      53.101   3.709   1.394  1.00  0.00    -0.648 OA
ENDBRANCH  27  28
ENDBRANCH   5  27
BRANCH   6  31
HETATM   31  C20 UNL     1      51.843   6.055   4.688  1.00  0.00     0.088 C 
BRANCH  31  32
HETATM   32  C21 UNL     1      51.920   4.756   5.374  1.00  0.00     0.235 C 
HETATM   33  O6  UNL     1      50.957   3.813   4.936  1.00  0.00    -0.305 OA
HETATM   34  C22 UNL     1      51.533   2.536   5.017  1.00  0.00     0.087 A 
HETATM   35  C23 UNL     1      50.984   1.279   5.111  1.00  0.00     0.039 A 
HETATM   36  C27 UNL     1      52.917   2.656   4.992  1.00  0.00     0.050 A 
HETATM   37  C24 UNL     1      51.799   0.150   5.178  1.00  0.00     0.022 A 
HETATM   38  C25 UNL     1      53.173   0.248   5.155  1.00  0.00     0.012 A 
HETATM   39 BR1  UNL     1      54.231  -1.334   5.251  1.00  0.00    -0.051 Br
HETATM   40  C26 UNL     1      53.708   1.516   5.061  1.00  0.00     0.037 A 
HETATM   41  C28 UNL     1      53.182   4.081   4.891  1.00  0.00     0.224 C 
HETATM   42  O7  UNL     1      54.247   4.580   4.482  1.00  0.00    -0.286 OA
BRANCH  32  43
HETATM   43  O5  UNL     1      52.037   4.784   6.751  1.00  0.00    -0.359 OA
ATOM     44  H5  UNL     1      51.544   4.133   7.237  1.00  0.00     0.213 HD
ENDBRANCH  32  43
ENDBRANCH  31  32
ENDBRANCH   6  31
TORSDOF 12
ENDMDL
MODEL 2
REMARK VINA RESULT: -7.754025726      1.535      2.157
REMARK  12 active torsions:
REMARK  status: ('A' for Active; 'I' for Inactive)
REMARK    1  A    between atoms: C2_2  and  N1_5 
REMARK    2  A    between atoms: N1_5  and  C5_8 
REMARK    3  A    between atoms: C5_8  and  C6_9 
REMARK    4  A    between atoms: C6_9  and  C9_12 
REMARK    5  A    between atoms: C9_12  and  C12_15 
REMARK    6  A    between atoms: C12_15  and  O1_16 
REMARK    7  A    between atoms: O1_16  and  C13_17 
REMARK    8  A    between atoms: C16_21  and  C17_22 
REMARK    9  A    between atoms: C17_22  and  C18_23 
REMARK   10  A    between atoms: C19_26  and  C20_27 
REMARK   11  A    between atoms: C20_27  and  C21_28 
REMARK   12  A    between atoms: C21_28  and  O5_29 
ROOT
HETATM    1  C13 UNL     1      47.789   8.473   0.369  1.00  0.00     0.263 C 
HETATM    2  C14 UNL     1      48.036   8.932   1.846  1.00  0.00     0.095 C 
HETATM    3  C15 UNL     1      49.133   7.919   2.186  1.00  0.00     0.159 C 
HETATM    4  O2  UNL     1      49.115   7.633   3.515  1.00  0.00    -0.376 OA
HETATM    5  C16 UNL     1      50.268   7.100   4.042  1.00  0.00     0.140 C 
HETATM    6  C19 UNL     1      50.359   5.585   3.750  1.00  0.00     0.043 C 
HETATM    7  C29 UNL     1      49.066   5.122   3.260  1.00  0.00    -0.021 C 
HETATM    8  C30 UNL     1      48.386   5.618   2.240  1.00  0.00     0.004 C 
HETATM    9  C31 UNL     1      48.713   6.760   1.310  1.00  0.00     0.176 C 
HETATM   10  O8  UNL     1      47.558   7.113   0.651  1.00  0.00    -0.350 OA
ENDROOT
BRANCH   1  11
HETATM   11  O1  UNL     1      46.752   9.112  -0.161  1.00  0.00    -0.360 OA
BRANCH  11  12
HETATM   12  C12 UNL     1      46.223  10.171   0.469  1.00  0.00     0.180 C 
BRANCH  12  13
HETATM   13  C9  UNL     1      46.507  11.562   0.080  1.00  0.00    -0.018 C 
HETATM   14  C10 UNL     1      47.954  11.957   0.213  1.00  0.00     0.018 C 
HETATM   15  C11 UNL     1      46.193  11.795  -1.406  1.00  0.00     0.018 C 
BRANCH  13  16
HETATM   16  C6  UNL     1      45.629  12.500   0.895  1.00  0.00    -0.015 C 
HETATM   17  C7  UNL     1      44.585  11.667   1.655  1.00  0.00     0.017 C 
HETATM   18  C8  UNL     1      44.840  13.442   0.026  1.00  0.00     0.017 C 
BRANCH  16  19
HETATM   19  C5  UNL     1      46.469  13.225   1.904  1.00  0.00     0.242 C 
BRANCH  19  20
HETATM   20  N1  UNL     1      45.968  14.587   2.140  1.00  0.00    -0.067 N 
ATOM     21  H12 UNL     1      44.954  14.659   2.055  1.00  0.00     0.278 HD
ATOM     22  H11 UNL     1      46.209  15.236   1.391  1.00  0.00     0.278 HD
BRANCH  20  23
HETATM   23  C2  UNL     1      46.469  15.018   3.462  1.00  0.00     0.115 C 
HETATM   24  C1  UNL     1      47.587  15.999   3.199  1.00  0.00     0.045 C 
HETATM   25  C3  UNL     1      45.357  15.638   4.273  1.00  0.00     0.045 C 
HETATM   26  C4  UNL     1      47.013  13.797   4.166  1.00  0.00     0.045 C 
ENDBRANCH  20  23
ENDBRANCH  19  20
ENDBRANCH  16  19
ENDBRANCH  13  16
ENDBRANCH  12  13
ENDBRANCH  11  12
ENDBRANCH   1  11
BRANCH   5  27
HETATM   27  C17 UNL     1      51.533   7.710   3.517  1.00  0.00     0.145 C 
BRANCH  27  28
HETATM   28  C18 UNL     1      52.437   8.173   4.590  1.00  0.00     0.175 C 
HETATM   29  O3  UNL     1      52.438   9.400   4.867  1.00  0.00    -0.648 OA
HETATM   30  O4  UNL     1      53.255   7.317   5.279  1.00  0.00    -0.648 OA
ENDBRANCH  27  28
ENDBRANCH   5  27
BRANCH   6  31
HETATM   31  C20 UNL     1      50.906   4.962   4.967  1.00  0.00     0.088 C 
BRANCH  31  32
HETATM   32  C21 UNL     1      51.229   3.526   4.966  1.00  0.00     0.235 C 
HETATM   33  O6  UNL     1      51.850   3.074   3.774  1.00  0.00    -0.305 OA
HETATM   34  C22 UNL     1      52.747   2.050   4.115  1.00  0.00     0.087 A 
HETATM   35  C23 UNL     1      53.294   1.021   3.386  1.00  0.00     0.039 A 
HETATM   36  C27 UNL     1      53.094   2.173   5.454  1.00  0.00     0.050 A 
HETATM   37  C24 UNL     1      54.178   0.120   3.978  1.00  0.00     0.022 A 
HETATM   38  C25 UNL     1      54.535   0.226   5.306  1.00  0.00     0.012 A 
HETATM   39 BR1  UNL     1      55.750  -1.037   6.055  1.00  0.00    -0.051 Br
HETATM   40  C26 UNL     1      53.978   1.263   6.023  1.00  0.00     0.037 A 
HETATM   41  C28 UNL     1      52.367   3.333   5.941  1.00  0.00     0.224 C 
HETATM   42  O7  UNL     1      52.668   3.990   6.954  1.00  0.00    -0.286 OA
BRANCH  32  43
HETATM   43  O5  UNL     1      50.239   2.664   5.399  1.00  0.00    -0.359 OA
ATOM     44  H5  UNL     1      49.359   2.826   5.082  1.00  0.00     0.213 HD
ENDBRANCH  32  43
ENDBRANCH  31  32
ENDBRANCH   6  31
TORSDOF 12
ENDMDL
MODEL 3
REMARK VINA RESULT: -7.528055087      2.083      2.864
REMARK  12 active torsions:
REMARK  status: ('A' for Active; 'I' for Inactive)
REMARK    1  A    between atoms: C2_2  and  N1_5 
REMARK    2  A    between atoms: N1_5  and  C5_8 
REMARK    3  A    between atoms: C5_8  and  C6_9 
REMARK    4  A    between atoms: C6_9  and  C9_12 
REMARK    5  A    between atoms: C9_12  and  C12_15 
REMARK    6  A    between atoms: C12_15  and  O1_16 
REMARK    7  A    between atoms: O1_16  and  C13_17 
REMARK    8  A    between atoms: C16_21  and  C17_22 
REMARK    9  A    between atoms: C17_22  and  C18_23 
REMARK   10  A    between atoms: C19_26  and  C20_27 
REMARK   11  A    between atoms: C20_27  and  C21_28 
REMARK   12  A    between atoms: C21_28  and  O5_29 
ROOT
HETATM    1  C13 UNL     1      47.747   8.380   0.614  1.00  0.00     0.263 C 
HETATM    2  C14 UNL     1      48.051   8.538   2.141  1.00  0.00     0.095 C 
HETATM    3  C15 UNL     1      49.246   7.583   2.205  1.00  0.00     0.159 C 
HETATM    4  O2  UNL     1      49.337   7.022   3.440  1.00  0.00    -0.376 OA
HETATM    5  C16 UNL     1      50.561   6.499   3.786  1.00  0.00     0.140 C 
HETATM    6  C19 UNL     1      50.753   5.094   3.171  1.00  0.00     0.043 C 
HETATM    7  C29 UNL     1      49.473   4.628   2.653  1.00  0.00    -0.021 C 
HETATM    8  C30 UNL     1      48.690   5.263   1.796  1.00  0.00     0.004 C 
HETATM    9  C31 UNL     1      48.864   6.600   1.120  1.00  0.00     0.176 C 
HETATM   10  O8  UNL     1      47.644   6.976   0.607  1.00  0.00    -0.350 OA
ENDROOT
BRANCH   1  11
HETATM   11  O1  UNL     1      46.630   9.018   0.282  1.00  0.00    -0.360 OA
BRANCH  11  12
HETATM   12  C12 UNL     1      46.299  10.160   0.905  1.00  0.00     0.180 C 
BRANCH  12  13
HETATM   13  C9  UNL     1      46.541  11.490   0.324  1.00  0.00    -0.018 C 
HETATM   14  C10 UNL     1      47.975  11.942   0.390  1.00  0.00     0.018 C 
HETATM   15  C11 UNL     1      46.216  11.504  -1.178  1.00  0.00     0.018 C 
BRANCH  13  16
HETATM   16  C6  UNL     1      45.636  12.507   1.005  1.00  0.00    -0.015 C 
HETATM   17  C7  UNL     1      44.520  11.757   1.749  1.00  0.00     0.017 C 
HETATM   18  C8  UNL     1      44.936  13.400   0.018  1.00  0.00     0.017 C 
BRANCH  16  19
HETATM   19  C5  UNL     1      46.427  13.285   2.016  1.00  0.00     0.242 C 
BRANCH  19  20
HETATM   20  N1  UNL     1      45.980  14.683   2.085  1.00  0.00    -0.067 N 
ATOM     21  H12 UNL     1      44.982  14.792   1.903  1.00  0.00     0.278 HD
ATOM     22  H11 UNL     1      46.318  15.250   1.307  1.00  0.00     0.278 HD
BRANCH  20  23
HETATM   23  C2  UNL     1      46.387  15.211   3.404  1.00  0.00     0.115 C 
HETATM   24  C1  UNL     1      47.459  16.242   3.142  1.00  0.00     0.045 C 
HETATM   25  C3  UNL     1      45.202  15.804   4.126  1.00  0.00     0.045 C 
HETATM   26  C4  UNL     1      46.964  14.063   4.199  1.00  0.00     0.045 C 
ENDBRANCH  20  23
ENDBRANCH  19  20
ENDBRANCH  16  19
ENDBRANCH  13  16
ENDBRANCH  12  13
ENDBRANCH  11  12
ENDBRANCH   1  11
BRANCH   5  27
HETATM   27  C17 UNL     1      51.736   7.320   3.346  1.00  0.00     0.145 C 
BRANCH  27  28
HETATM   28  C18 UNL     1      52.424   7.988   4.470  1.00  0.00     0.175 C 
HETATM   29  O3  UNL     1      53.122   7.276   5.237  1.00  0.00    -0.648 OA
HETATM   30  O4  UNL     1      52.324   9.336   4.693  1.00  0.00    -0.648 OA
ENDBRANCH  27  28
ENDBRANCH   5  27
BRANCH   6  31
HETATM   31  C20 UNL     1      51.427   4.282   4.198  1.00  0.00     0.088 C 
BRANCH  31  32
HETATM   32  C21 UNL     1      52.330   3.196   3.788  1.00  0.00     0.235 C 
HETATM   33  O6  UNL     1      52.383   2.985   2.387  1.00  0.00    -0.305 OA
HETATM   34  C22 UNL     1      53.682   2.570   2.060  1.00  0.00     0.087 A 
HETATM   35  C23 UNL     1      54.187   1.870   0.990  1.00  0.00     0.039 A 
HETATM   36  C27 UNL     1      54.559   2.984   3.055  1.00  0.00     0.050 A 
HETATM   37  C24 UNL     1      55.549   1.583   0.905  1.00  0.00     0.022 A 
HETATM   38  C25 UNL     1      56.434   1.985   1.882  1.00  0.00     0.012 A 
HETATM   39 BR1  UNL     1      58.283   1.561   1.707  1.00  0.00    -0.051 Br
HETATM   40  C26 UNL     1      55.913   2.686   2.949  1.00  0.00     0.037 A 
HETATM   41  C28 UNL     1      53.740   3.684   4.030  1.00  0.00     0.224 C 
HETATM   42  O7  UNL     1      54.167   4.504   4.863  1.00  0.00    -0.286 OA
BRANCH  32  43
HETATM   43  O5  UNL     1      52.240   2.010   4.493  1.00  0.00    -0.359 OA
ATOM     44  H5  UNL     1      53.029   1.706   4.925  1.00  0.00     0.213 HD
ENDBRANCH  32  43
ENDBRANCH  31  32
ENDBRANCH   6  31
TORSDOF 12
ENDMDL
MODEL 4
REMARK VINA RESULT: -7.332415178      1.927      2.970
REMARK  12 active torsions:
REMARK  status: ('A' for Active; 'I' for Inactive)
REMARK    1  A    between atoms: C2_2  and  N1_5 
REMARK    2  A    between atoms: N1_5  and  C5_8 
REMARK    3  A    between atoms: C5_8  and  C6_9 
REMARK    4  A    between atoms: C6_9  and  C9_12 
REMARK    5  A    between atoms: C9_12  and  C12_15 
REMARK    6  A    between atoms: C12_15  and  O1_16 
REMARK    7  A    between atoms: O1_16  and  C13_17 
REMARK    8  A    between atoms: C16_21  and  C17_22 
REMARK    9  A    between atoms: C17_22  and  C18_23 
REMARK   10  A    between atoms: C19_26  and  C20_27 
REMARK   11  A    between atoms: C20_27  and  C21_28 
REMARK   12  A    between atoms: C21_28  and  O5_29 
ROOT
HETATM    1  C13 UNL     1      48.733   7.943  -0.566  1.00  0.00     0.263 C 
HETATM    2  C14 UNL     1      48.765   8.587   0.860  1.00  0.00     0.095 C 
HETATM    3  C15 UNL     1      49.639   7.527   1.536  1.00  0.00     0.159 C 
HETATM    4  O2  UNL     1      49.341   7.444   2.860  1.00  0.00    -0.376 OA
HETATM    5  C16 UNL     1      50.298   6.877   3.668  1.00  0.00     0.140 C 
HETATM    6  C19 UNL     1      50.240   5.334   3.593  1.00  0.00     0.043 C 
HETATM    7  C29 UNL     1      49.009   4.942   2.917  1.00  0.00    -0.021 C 
HETATM    8  C30 UNL     1      48.598   5.351   1.728  1.00  0.00     0.004 C 
HETATM    9  C31 UNL     1      49.237   6.301   0.746  1.00  0.00     0.176 C 
HETATM   10  O8  UNL     1      48.278   6.672  -0.168  1.00  0.00    -0.350 OA
ENDROOT
BRANCH   1  11
HETATM   11  O1  UNL     1      47.904   8.602  -1.368  1.00  0.00    -0.360 OA
BRANCH  11  12
HETATM   12  C12 UNL     1      46.913   9.342  -0.848  1.00  0.00     0.180 C 
BRANCH  12  13
HETATM   13  C9  UNL     1      45.577   9.436  -1.457  1.00  0.00    -0.018 C 
HETATM   14  C10 UNL     1      45.391   8.571  -2.675  1.00  0.00     0.018 C 
HETATM   15  C11 UNL     1      44.491   8.948  -0.485  1.00  0.00     0.018 C 
BRANCH  13  16
HETATM   16  C6  UNL     1      45.282  10.891  -1.794  1.00  0.00    -0.015 C 
HETATM   17  C7  UNL     1      44.177  10.938  -2.861  1.00  0.00     0.017 C 
HETATM   18  C8  UNL     1      46.467  11.586  -2.407  1.00  0.00     0.017 C 
BRANCH  16  19
HETATM   19  C5  UNL     1      44.777  11.597  -0.571  1.00  0.00     0.242 C 
BRANCH  19  20
HETATM   20  N1  UNL     1      45.653  12.718  -0.199  1.00  0.00    -0.067 N 
ATOM     21  H12 UNL     1      45.320  13.616  -0.549  1.00  0.00     0.278 HD
ATOM     22  H11 UNL     1      46.546  12.706  -0.691  1.00  0.00     0.278 HD
BRANCH  20  23
HETATM   23  C2  UNL     1      45.803  12.690   1.272  1.00  0.00     0.115 C 
HETATM   24  C1  UNL     1      47.221  12.251   1.551  1.00  0.00     0.045 C 
HETATM   25  C3  UNL     1      45.509  14.049   1.859  1.00  0.00     0.045 C 
HETATM   26  C4  UNL     1      44.833  11.665   1.812  1.00  0.00     0.045 C 
ENDBRANCH  20  23
ENDBRANCH  19  20
ENDBRANCH  16  19
ENDBRANCH  13  16
ENDBRANCH  12  13
ENDBRANCH  11  12
ENDBRANCH   1  11
BRANCH   5  27
HETATM   27  C17 UNL     1      51.707   7.266   3.333  1.00  0.00     0.145 C 
BRANCH  27  28
HETATM   28  C18 UNL     1      52.392   7.959   4.444  1.00  0.00     0.175 C 
HETATM   29  O3  UNL     1      53.090   7.266   5.226  1.00  0.00    -0.648 OA
HETATM   30  O4  UNL     1      52.289   9.312   4.637  1.00  0.00    -0.648 OA
ENDBRANCH  27  28
ENDBRANCH   5  27
BRANCH   6  31
HETATM   31  C20 UNL     1      50.470   4.844   4.962  1.00  0.00     0.088 C 
BRANCH  31  32
HETATM   32  C21 UNL     1      50.861   3.442   5.176  1.00  0.00     0.235 C 
HETATM   33  O6  UNL     1      51.230   2.758   3.991  1.00  0.00    -0.305 OA
HETATM   34  C22 UNL     1      52.232   1.832   4.319  1.00  0.00     0.087 A 
HETATM   35  C23 UNL     1      52.661   0.678   3.708  1.00  0.00     0.039 A 
HETATM   36  C27 UNL     1      52.857   2.233   5.494  1.00  0.00     0.050 A 
HETATM   37  C24 UNL     1      53.701  -0.073   4.254  1.00  0.00     0.022 A 
HETATM   38  C25 UNL     1      54.333   0.308   5.418  1.00  0.00     0.012 A 
HETATM   39 BR1  UNL     1      55.748  -0.763   6.113  1.00  0.00    -0.051 Br
HETATM   40  C26 UNL     1      53.892   1.467   6.020  1.00  0.00     0.037 A 
HETATM   41  C28 UNL     1      52.193   3.463   5.889  1.00  0.00     0.224 C 
HETATM   42  O7  UNL     1      52.673   4.318   6.656  1.00  0.00    -0.286 OA
BRANCH  32  43
HETATM   43  O5  UNL     1      50.037   2.681   5.985  1.00  0.00    -0.359 OA
ATOM     44  H5  UNL     1      50.454   2.005   6.506  1.00  0.00     0.213 HD
ENDBRANCH  32  43
ENDBRANCH  31  32
ENDBRANCH   6  31
TORSDOF 12
ENDMDL
MODEL 5
REMARK VINA RESULT: -7.306005763      2.400      3.655
REMARK  12 active torsions:
REMARK  status: ('A' for Active; 'I' for Inactive)
REMARK    1  A    between atoms: C2_2  and  N1_5 
REMARK    2  A    between atoms: N1_5  and  C5_8 
REMARK    3  A    between atoms: C5_8  and  C6_9 
REMARK    4  A    between atoms: C6_9  and  C9_12 
REMARK    5  A    between atoms: C9_12  and  C12_15 
REMARK    6  A    between atoms: C12_15  and  O1_16 
REMARK    7  A    between atoms: O1_16  and  C13_17 
REMARK    8  A    between atoms: C16_21  and  C17_22 
REMARK    9  A    between atoms: C17_22  and  C18_23 
REMARK   10  A    between atoms: C19_26  and  C20_27 
REMARK   11  A    between atoms: C20_27  and  C21_28 
REMARK   12  A    between atoms: C21_28  and  O5_29 
ROOT
HETATM    1  C13 UNL     1      48.171   8.436   1.632  1.00  0.00     0.263 C 
HETATM    2  C14 UNL     1      48.487   7.808   3.031  1.00  0.00     0.095 C 
HETATM    3  C15 UNL     1      49.675   6.945   2.596  1.00  0.00     0.159 C 
HETATM    4  O2  UNL     1      49.771   5.842   3.383  1.00  0.00    -0.376 OA
HETATM    5  C16 UNL     1      50.993   5.212   3.409  1.00  0.00     0.140 C 
HETATM    6  C19 UNL     1      51.171   4.303   2.172  1.00  0.00     0.043 C 
HETATM    7  C29 UNL     1      49.884   4.162   1.502  1.00  0.00    -0.021 C 
HETATM    8  C30 UNL     1      49.100   5.144   1.086  1.00  0.00     0.004 C 
HETATM    9  C31 UNL     1      49.278   6.639   1.169  1.00  0.00     0.176 C 
HETATM   10  O8  UNL     1      48.058   7.225   0.924  1.00  0.00    -0.350 OA
ENDROOT
BRANCH   1  11
HETATM   11  O1  UNL     1      47.057   9.158   1.675  1.00  0.00    -0.360 OA
BRANCH  11  12
HETATM   12  C12 UNL     1      47.124  10.498   1.653  1.00  0.00     0.180 C 
BRANCH  12  13
HETATM   13  C9  UNL     1      46.663  11.306   0.512  1.00  0.00    -0.018 C 
HETATM   14  C10 UNL     1      47.773  11.890  -0.320  1.00  0.00     0.018 C 
HETATM   15  C11 UNL     1      45.863  10.451  -0.483  1.00  0.00     0.018 C 
BRANCH  13  16
HETATM   16  C6  UNL     1      45.747  12.411   1.018  1.00  0.00    -0.015 C 
HETATM   17  C7  UNL     1      44.500  11.771   1.649  1.00  0.00     0.017 C 
HETATM   18  C8  UNL     1      45.235  13.283  -0.096  1.00  0.00     0.017 C 
BRANCH  16  19
HETATM   19  C5  UNL     1      46.452  13.200   2.081  1.00  0.00     0.242 C 
BRANCH  19  20
HETATM   20  N1  UNL     1      45.895  14.555   2.201  1.00  0.00    -0.067 N 
ATOM     21  H12 UNL     1      44.876  14.572   2.165  1.00  0.00     0.278 HD
ATOM     22  H11 UNL     1      46.066  15.132   1.377  1.00  0.00     0.278 HD
BRANCH  20  23
HETATM   23  C2  UNL     1      46.438  15.146   3.443  1.00  0.00     0.115 C 
HETATM   24  C1  UNL     1      47.052  14.011   4.226  1.00  0.00     0.045 C 
HETATM   25  C3  UNL     1      47.450  16.218   3.120  1.00  0.00     0.045 C 
HETATM   26  C4  UNL     1      45.280  15.734   4.215  1.00  0.00     0.045 C 
ENDBRANCH  20  23
ENDBRANCH  19  20
ENDBRANCH  16  19
ENDBRANCH  13  16
ENDBRANCH  12  13
ENDBRANCH  11  12
ENDBRANCH   1  11
BRANCH   5  27
HETATM   27  C17 UNL     1      52.171   6.139   3.428  1.00  0.00     0.145 C 
BRANCH  27  28
HETATM   28  C18 UNL     1      52.643   6.442   4.795  1.00  0.00     0.175 C 
HETATM   29  O3  UNL     1      53.067   7.603   5.026  1.00  0.00    -0.648 OA
HETATM   30  O4  UNL     1      52.630   5.508   5.798  1.00  0.00    -0.648 OA
ENDBRANCH  27  28
ENDBRANCH   5  27
BRANCH   6  31
HETATM   31  C20 UNL     1      51.845   3.084   2.648  1.00  0.00     0.088 C 
BRANCH  31  32
HETATM   32  C21 UNL     1      53.126   2.681   2.047  1.00  0.00     0.235 C 
HETATM   33  O6  UNL     1      53.565   3.527   0.998  1.00  0.00    -0.305 OA
HETATM   34  C22 UNL     1      54.967   3.568   1.032  1.00  0.00     0.087 A 
HETATM   35  C23 UNL     1      55.906   3.873   0.076  1.00  0.00     0.039 A 
HETATM   36  C27 UNL     1      55.404   3.224   2.305  1.00  0.00     0.050 A 
HETATM   37  C24 UNL     1      57.267   3.837   0.377  1.00  0.00     0.022 A 
HETATM   38  C25 UNL     1      57.720   3.498   1.634  1.00  0.00     0.012 A 
HETATM   39 BR1  UNL     1      59.593   3.468   1.981  1.00  0.00    -0.051 Br
HETATM   40  C26 UNL     1      56.766   3.195   2.582  1.00  0.00     0.037 A 
HETATM   41  C28 UNL     1      54.199   2.963   3.073  1.00  0.00     0.224 C 
HETATM   42  O7  UNL     1      54.127   2.983   4.316  1.00  0.00    -0.286 OA
BRANCH  32  43
HETATM   43  O5  UNL     1      53.276   1.342   1.736  1.00  0.00    -0.359 OA
ATOM     44  H5  UNL     1      53.804   0.820   2.329  1.00  0.00     0.213 HD
ENDBRANCH  32  43
ENDBRANCH  31  32
ENDBRANCH   6  31
TORSDOF 12
ENDMDL
