MODEL 1
REMARK VINA RESULT: -7.717656171      0.000      0.000
REMARK  4 active torsions:
REMARK  status: ('A' for Active; 'I' for Inactive)
REMARK    1  A    between atoms: C2_2  and  C5_5 
REMARK       I    between atoms: C5_5  and  N1_7 
REMARK    2  A    between atoms: N2_12  and  C10_13 
REMARK    3  A    between atoms: C12_17  and  C13_18 
REMARK    4  A    between atoms: C13_18  and  O2_19 
ROOT
HETATM    1  C5  UNL     1      31.360 -34.708   3.246  1.00  0.00     0.227 C 
HETATM    2  O1  UNL     1      32.224 -34.230   4.061  1.00  0.00    -0.273 OA
HETATM    3  N1  UNL     1      30.925 -33.870   2.208  1.00  0.00    -0.351 N 
HETATM    4  C6  UNL     1      29.958 -34.296   1.223  1.00  0.00     0.126 C 
HETATM    5  C7  UNL     1      29.659 -33.055   0.369  1.00  0.00     0.026 C 
HETATM    6  C8  UNL     1      30.941 -32.697  -0.334  1.00  0.00     0.012 C 
HETATM    7  C9  UNL     1      30.737 -31.549  -1.309  1.00  0.00     0.129 C 
HETATM    8  N2  UNL     1      31.885 -30.662  -0.956  1.00  0.00    -0.364 N 
HETATM    9  C16 UNL     1      31.803 -30.676   0.462  1.00  0.00     0.131 C 
HETATM   10  C17 UNL     1      31.913 -32.188   0.719  1.00  0.00     0.027 C 
HETATM   11  C18 UNL     1      31.462 -32.526   2.110  1.00  0.00     0.132 C 
ENDROOT
BRANCH   8  12
HETATM   12  C10 UNL     1      32.685 -30.088  -1.937  1.00  0.00     0.142 A 
HETATM   13  N3  UNL     1      32.146 -29.290  -2.903  1.00  0.00    -0.349 N 
HETATM   14  C11 UNL     1      32.868 -28.709  -3.873  1.00  0.00     0.099 A 
ATOM     15  H3  UNL     1      31.139 -29.126  -2.887  1.00  0.00     0.167 HD
HETATM   16  C12 UNL     1      34.236 -28.899  -3.938  1.00  0.00    -0.016 A 
HETATM   17  C14 UNL     1      34.829 -29.697  -2.983  1.00  0.00     0.057 A 
HETATM   18  C15 UNL     1      34.031 -30.271  -2.007  1.00  0.00     0.160 A 
HETATM   19  F1  UNL     1      34.647 -31.045  -1.092  1.00  0.00    -0.202 F 
BRANCH  16  20
HETATM   20  C13 UNL     1      35.039 -28.266  -4.997  1.00  0.00     0.204 C 
BRANCH  20  21
HETATM   21  O2  UNL     1      36.341 -28.758  -4.945  1.00  0.00    -0.396 OA
ATOM     22  H2  UNL     1      36.319 -29.708  -4.956  1.00  0.00     0.209 HD
ENDBRANCH  20  21
ENDBRANCH  16  20
ENDBRANCH   8  12
BRANCH   1  23
HETATM   23  C2  UNL     1      30.912 -36.096   3.488  1.00  0.00     0.030 C 
HETATM   24  C1  UNL     1      29.427 -36.265   3.209  1.00  0.00     0.025 C 
HETATM   25  C3  UNL     1      31.101 -36.428   4.949  1.00  0.00     0.025 C 
HETATM   26  C4  UNL     1      31.735 -37.018   2.604  1.00  0.00     0.025 C 
ENDBRANCH   1  23
TORSDOF 4
ENDMDL
MODEL 2
REMARK VINA RESULT: -7.403813958      1.104      1.345
REMARK  4 active torsions:
REMARK  status: ('A' for Active; 'I' for Inactive)
REMARK    1  A    between atoms: C2_2  and  C5_5 
REMARK       I    between atoms: C5_5  and  N1_7 
REMARK    2  A    between atoms: N2_12  and  C10_13 
REMARK    3  A    between atoms: C12_17  and  C13_18 
REMARK    4  A    between atoms: C13_18  and  O2_19 
ROOT
HETATM    1  C5  UNL     1      31.492 -34.748   3.285  1.00  0.00     0.227 C 
HETATM    2  O1  UNL     1      32.373 -34.277   4.085  1.00  0.00    -0.273 OA
HETATM    3  N1  UNL     1      31.052 -33.910   2.249  1.00  0.00    -0.351 N 
HETATM    4  C6  UNL     1      30.066 -34.329   1.280  1.00  0.00     0.126 C 
HETATM    5  C7  UNL     1      29.770 -33.088   0.424  1.00  0.00     0.026 C 
HETATM    6  C8  UNL     1      31.045 -32.749  -0.299  1.00  0.00     0.012 C 
HETATM    7  C9  UNL     1      30.841 -31.603  -1.276  1.00  0.00     0.129 C 
HETATM    8  N2  UNL     1      32.004 -30.728  -0.943  1.00  0.00    -0.364 N 
HETATM    9  C16 UNL     1      31.942 -30.734   0.476  1.00  0.00     0.131 C 
HETATM   10  C17 UNL     1      32.038 -32.246   0.739  1.00  0.00     0.027 C 
HETATM   11  C18 UNL     1      31.603 -32.572   2.137  1.00  0.00     0.132 C 
ENDROOT
BRANCH   8  12
HETATM   12  C10 UNL     1      32.796 -30.168  -1.938  1.00  0.00     0.142 A 
HETATM   13  N3  UNL     1      34.153 -30.306  -1.915  1.00  0.00    -0.349 N 
HETATM   14  C11 UNL     1      34.967 -29.789  -2.848  1.00  0.00     0.099 A 
ATOM     15  H3  UNL     1      34.571 -30.830  -1.147  1.00  0.00     0.167 HD
HETATM   16  C12 UNL     1      34.449 -29.070  -3.910  1.00  0.00    -0.016 A 
HETATM   17  C14 UNL     1      33.083 -28.903  -3.979  1.00  0.00     0.057 A 
HETATM   18  C15 UNL     1      32.294 -29.460  -2.986  1.00  0.00     0.160 A 
HETATM   19  F1  UNL     1      30.963 -29.275  -3.087  1.00  0.00    -0.202 F 
BRANCH  16  20
HETATM   20  C13 UNL     1      35.332 -28.498  -4.940  1.00  0.00     0.204 C 
BRANCH  20  21
HETATM   21  O2  UNL     1      36.556 -29.163  -4.918  1.00  0.00    -0.396 OA
ATOM     22  H2  UNL     1      36.876 -29.202  -4.024  1.00  0.00     0.209 HD
ENDBRANCH  20  21
ENDBRANCH  16  20
ENDBRANCH   8  12
BRANCH   1  23
HETATM   23  C2  UNL     1      31.031 -36.129   3.540  1.00  0.00     0.030 C 
HETATM   24  C1  UNL     1      29.530 -36.266   3.348  1.00  0.00     0.025 C 
HETATM   25  C3  UNL     1      31.299 -36.481   4.984  1.00  0.00     0.025 C 
HETATM   26  C4  UNL     1      31.782 -37.058   2.600  1.00  0.00     0.025 C 
ENDBRANCH   1  23
TORSDOF 4
ENDMDL
MODEL 3
REMARK VINA RESULT: -7.150167572      2.478      3.311
REMARK  4 active torsions:
REMARK  status: ('A' for Active; 'I' for Inactive)
REMARK    1  A    between atoms: C2_2  and  C5_5 
REMARK       I    between atoms: C5_5  and  N1_7 
REMARK    2  A    between atoms: N2_12  and  C10_13 
REMARK    3  A    between atoms: C12_17  and  C13_18 
REMARK    4  A    between atoms: C13_18  and  O2_19 
ROOT
HETATM    1  C5  UNL     1      28.815 -32.164   2.404  1.00  0.00     0.227 C 
HETATM    2  O1  UNL     1      27.834 -32.269   1.588  1.00  0.00    -0.273 OA
HETATM    3  N1  UNL     1      30.109 -32.202   1.861  1.00  0.00    -0.351 N 
HETATM    4  C6  UNL     1      31.295 -32.087   2.678  1.00  0.00     0.126 C 
HETATM    5  C7  UNL     1      32.479 -32.316   1.726  1.00  0.00     0.026 C 
HETATM    6  C8  UNL     1      32.461 -31.183   0.736  1.00  0.00     0.012 C 
HETATM    7  C9  UNL     1      33.666 -31.235  -0.188  1.00  0.00     0.129 C 
HETATM    8  N2  UNL     1      33.017 -31.049  -1.520  1.00  0.00    -0.364 N 
HETATM    9  C16 UNL     1      31.919 -31.943  -1.406  1.00  0.00     0.131 C 
HETATM   10  C17 UNL     1      31.240 -31.370  -0.152  1.00  0.00     0.027 C 
HETATM   11  C18 UNL     1      30.271 -32.359   0.427  1.00  0.00     0.132 C 
ENDROOT
BRANCH   8  12
HETATM   12  C10 UNL     1      33.538 -30.170  -2.462  1.00  0.00     0.142 A 
HETATM   13  N3  UNL     1      34.824 -30.290  -2.898  1.00  0.00    -0.349 N 
HETATM   14  C11 UNL     1      35.380 -29.473  -3.806  1.00  0.00     0.099 A 
ATOM     15  H3  UNL     1      35.395 -31.043  -2.514  1.00  0.00     0.167 HD
HETATM   16  C12 UNL     1      34.648 -28.437  -4.357  1.00  0.00    -0.016 A 
HETATM   17  C14 UNL     1      33.341 -28.273  -3.949  1.00  0.00     0.057 A 
HETATM   18  C15 UNL     1      32.824 -29.149  -3.009  1.00  0.00     0.160 A 
HETATM   19  F1  UNL     1      31.543 -28.957  -2.634  1.00  0.00    -0.202 F 
BRANCH  16  20
HETATM   20  C13 UNL     1      35.246 -27.534  -5.355  1.00  0.00     0.204 C 
BRANCH  20  21
HETATM   21  O2  UNL     1      36.004 -26.566  -4.703  1.00  0.00    -0.396 OA
ATOM     22  H2  UNL     1      35.953 -25.748  -5.185  1.00  0.00     0.209 HD
ENDBRANCH  20  21
ENDBRANCH  16  20
ENDBRANCH   8  12
BRANCH   1  23
HETATM   23  C2  UNL     1      28.477 -32.015   3.835  1.00  0.00     0.030 C 
HETATM   24  C1  UNL     1      28.848 -33.254   4.633  1.00  0.00     0.025 C 
HETATM   25  C3  UNL     1      26.982 -31.860   3.977  1.00  0.00     0.025 C 
HETATM   26  C4  UNL     1      29.209 -30.792   4.366  1.00  0.00     0.025 C 
ENDBRANCH   1  23
TORSDOF 4
ENDMDL
MODEL 4
REMARK VINA RESULT: -6.982414516      1.282      1.425
REMARK  4 active torsions:
REMARK  status: ('A' for Active; 'I' for Inactive)
REMARK    1  A    between atoms: C2_2  and  C5_5 
REMARK       I    between atoms: C5_5  and  N1_7 
REMARK    2  A    between atoms: N2_12  and  C10_13 
REMARK    3  A    between atoms: C12_17  and  C13_18 
REMARK    4  A    between atoms: C13_18  and  O2_19 
ROOT
HETATM    1  C5  UNL     1      30.639 -32.861   3.994  1.00  0.00     0.227 C 
HETATM    2  O1  UNL     1      30.668 -31.759   4.647  1.00  0.00    -0.273 OA
HETATM    3  N1  UNL     1      30.521 -32.776   2.598  1.00  0.00    -0.351 N 
HETATM    4  C6  UNL     1      30.483 -33.947   1.753  1.00  0.00     0.126 C 
HETATM    5  C7  UNL     1      30.209 -33.427   0.334  1.00  0.00     0.026 C 
HETATM    6  C8  UNL     1      31.396 -32.588  -0.055  1.00  0.00     0.012 C 
HETATM    7  C9  UNL     1      31.293 -32.115  -1.495  1.00  0.00     0.129 C 
HETATM    8  N2  UNL     1      31.614 -30.664  -1.347  1.00  0.00    -0.364 N 
HETATM    9  C16 UNL     1      30.813 -30.330  -0.222  1.00  0.00     0.131 C 
HETATM   10  C17 UNL     1      31.368 -31.332   0.804  1.00  0.00     0.027 C 
HETATM   11  C18 UNL     1      30.435 -31.470   1.972  1.00  0.00     0.132 C 
ENDROOT
BRANCH   8  12
HETATM   12  C10 UNL     1      32.498 -30.027  -2.208  1.00  0.00     0.142 A 
HETATM   13  N3  UNL     1      32.043 -29.233  -3.220  1.00  0.00    -0.349 N 
HETATM   14  C11 UNL     1      32.849 -28.592  -4.080  1.00  0.00     0.099 A 
ATOM     15  H3  UNL     1      31.035 -29.120  -3.328  1.00  0.00     0.167 HD
HETATM   16  C12 UNL     1      34.223 -28.712  -3.976  1.00  0.00    -0.016 A 
HETATM   17  C14 UNL     1      34.733 -29.503  -2.969  1.00  0.00     0.057 A 
HETATM   18  C15 UNL     1      33.851 -30.139  -2.112  1.00  0.00     0.160 A 
HETATM   19  F1  UNL     1      34.387 -30.904  -1.140  1.00  0.00    -0.202 F 
BRANCH  16  20
HETATM   20  C13 UNL     1      35.118 -28.013  -4.913  1.00  0.00     0.204 C 
BRANCH  20  21
HETATM   21  O2  UNL     1      36.343 -28.672  -4.959  1.00  0.00    -0.396 OA
ATOM     22  H2  UNL     1      37.031 -28.044  -5.146  1.00  0.00     0.209 HD
ENDBRANCH  20  21
ENDBRANCH  16  20
ENDBRANCH   8  12
BRANCH   1  23
HETATM   23  C2  UNL     1      30.732 -34.106   4.785  1.00  0.00     0.030 C 
HETATM   24  C1  UNL     1      29.522 -34.999   4.573  1.00  0.00     0.025 C 
HETATM   25  C3  UNL     1      30.741 -33.758   6.254  1.00  0.00     0.025 C 
HETATM   26  C4  UNL     1      32.010 -34.824   4.383  1.00  0.00     0.025 C 
ENDBRANCH   1  23
TORSDOF 4
ENDMDL
MODEL 5
REMARK VINA RESULT: -6.912061628      1.040      1.328
REMARK  4 active torsions:
REMARK  status: ('A' for Active; 'I' for Inactive)
REMARK    1  A    between atoms: C2_2  and  C5_5 
REMARK       I    between atoms: C5_5  and  N1_7 
REMARK    2  A    between atoms: N2_12  and  C10_13 
REMARK    3  A    between atoms: C12_17  and  C13_18 
REMARK    4  A    between atoms: C13_18  and  O2_19 
ROOT
HETATM    1  C5  UNL     1      31.481 -35.319   3.848  1.00  0.00     0.227 C 
HETATM    2  O1  UNL     1      32.280 -34.747   4.669  1.00  0.00    -0.273 OA
HETATM    3  N1  UNL     1      30.930 -34.525   2.830  1.00  0.00    -0.351 N 
HETATM    4  C6  UNL     1      30.021 -35.056   1.841  1.00  0.00     0.126 C 
HETATM    5  C7  UNL     1      29.553 -33.847   1.016  1.00  0.00     0.026 C 
HETATM    6  C8  UNL     1      30.770 -33.307   0.314  1.00  0.00     0.012 C 
HETATM    7  C9  UNL     1      30.407 -32.177  -0.634  1.00  0.00     0.129 C 
HETATM    8  N2  UNL     1      31.430 -31.153  -0.268  1.00  0.00    -0.364 N 
HETATM    9  C16 UNL     1      31.362 -31.206   1.150  1.00  0.00     0.131 C 
HETATM   10  C17 UNL     1      31.674 -32.695   1.374  1.00  0.00     0.027 C 
HETATM   11  C18 UNL     1      31.283 -33.119   2.759  1.00  0.00     0.132 C 
ENDROOT
BRANCH   8  12
HETATM   12  C10 UNL     1      32.138 -30.457  -1.240  1.00  0.00     0.142 A 
HETATM   13  N3  UNL     1      31.490 -29.726  -2.192  1.00  0.00    -0.349 N 
HETATM   14  C11 UNL     1      32.121 -29.034  -3.153  1.00  0.00     0.099 A 
ATOM     15  H3  UNL     1      30.471 -29.704  -2.172  1.00  0.00     0.167 HD
HETATM   16  C12 UNL     1      33.502 -29.031  -3.224  1.00  0.00    -0.016 A 
HETATM   17  C14 UNL     1      34.204 -29.755  -2.283  1.00  0.00     0.057 A 
HETATM   18  C15 UNL     1      33.497 -30.449  -1.316  1.00  0.00     0.160 A 
HETATM   19  F1  UNL     1      34.218 -31.146  -0.414  1.00  0.00    -0.202 F 
BRANCH  16  20
HETATM   20  C13 UNL     1      34.205 -28.275  -4.273  1.00  0.00     0.204 C 
BRANCH  20  21
HETATM   21  O2  UNL     1      34.707 -27.094  -3.733  1.00  0.00    -0.396 OA
ATOM     22  H2  UNL     1      34.835 -27.206  -2.797  1.00  0.00     0.209 HD
ENDBRANCH  20  21
ENDBRANCH  16  20
ENDBRANCH   8  12
BRANCH   1  23
HETATM   23  C2  UNL     1      31.224 -36.758   4.063  1.00  0.00     0.030 C 
HETATM   24  C1  UNL     1      31.685 -37.595   2.881  1.00  0.00     0.025 C 
HETATM   25  C3  UNL     1      29.735 -36.983   4.177  1.00  0.00     0.025 C 
HETATM   26  C4  UNL     1      31.942 -37.180   5.335  1.00  0.00     0.025 C 
ENDBRANCH   1  23
TORSDOF 4
ENDMDL
