MODEL 1
REMARK VINA RESULT: -6.475727753      0.000      0.000
REMARK  2 active torsions:
REMARK  status: ('A' for Active; 'I' for Inactive)
REMARK    1  A    between atoms: C3_6  and  N2_7 
REMARK    2  A    between atoms: N3_10  and  C6_11 
ROOT
HETATM    1  N2  UNL     1      31.973 -31.147  -0.542  1.00  0.00    -0.214 N 
HETATM    2  C4  UNL     1      31.099 -30.266  -1.281  1.00  0.00     0.171 C 
HETATM    3  C5  UNL     1      31.572 -30.059  -2.704  1.00  0.00     0.293 C 
HETATM    4  N3  UNL     1      32.942 -29.637  -2.649  1.00  0.00     0.096 N 
HETATM    5  C12 UNL     1      33.735 -30.673  -2.095  1.00  0.00     0.293 C 
HETATM    6  C13 UNL     1      33.398 -30.920  -0.640  1.00  0.00     0.171 C 
ENDROOT
BRANCH   1   7
HETATM    7  C3  UNL     1      31.419 -32.194   0.245  1.00  0.00     0.680 A 
HETATM    8  N1  UNL     1      31.942 -32.578   1.422  1.00  0.00    -0.201 N 
HETATM    9  C2  UNL     1      31.432 -33.555   2.163  1.00  0.00     0.126 A 
ATOM     10  H1  UNL     1      32.773 -32.094   1.763  1.00  0.00     0.183 HD
HETATM   11  C1  UNL     1      30.303 -34.241   1.737  1.00  0.00     0.042 A 
HETATM   12 BR1  UNL     1      29.549 -35.648   2.787  1.00  0.00    -0.048 Br
HETATM   13  C14 UNL     1      29.762 -33.849   0.528  1.00  0.00     0.126 A 
HETATM   14  N4  UNL     1      30.324 -32.852  -0.177  1.00  0.00    -0.201 N 
ATOM     15  H4  UNL     1      29.904 -32.584  -1.067  1.00  0.00     0.183 HD
ENDBRANCH   1   7
BRANCH   4  16
HETATM   16  C6  UNL     1      33.429 -29.009  -3.825  1.00  0.00     0.223 C 
HETATM   17  C7  UNL     1      33.056 -27.554  -3.953  1.00  0.00     0.036 C 
HETATM   18  C8  UNL     1      34.272 -26.652  -3.768  1.00  0.00     0.002 C 
HETATM   19  C9  UNL     1      35.202 -26.899  -4.932  1.00  0.00     0.000 C 
HETATM   20  C10 UNL     1      35.263 -28.364  -5.291  1.00  0.00     0.002 C 
HETATM   21  C11 UNL     1      34.897 -29.135  -4.030  1.00  0.00     0.036 C 
ENDBRANCH   4  16
TORSDOF 2
ENDMDL
MODEL 2
REMARK VINA RESULT: -6.436585838      0.052      1.067
REMARK  2 active torsions:
REMARK  status: ('A' for Active; 'I' for Inactive)
REMARK    1  A    between atoms: C3_6  and  N2_7 
REMARK    2  A    between atoms: N3_10  and  C6_11 
ROOT
HETATM    1  N2  UNL     1      31.911 -31.131  -0.572  1.00  0.00    -0.214 N 
HETATM    2  C4  UNL     1      31.043 -30.263  -1.332  1.00  0.00     0.171 C 
HETATM    3  C5  UNL     1      31.542 -30.059  -2.747  1.00  0.00     0.293 C 
HETATM    4  N3  UNL     1      32.906 -29.624  -2.668  1.00  0.00     0.096 N 
HETATM    5  C12 UNL     1      33.699 -30.648  -2.092  1.00  0.00     0.293 C 
HETATM    6  C13 UNL     1      33.335 -30.891  -0.643  1.00  0.00     0.171 C 
ENDROOT
BRANCH   1   7
HETATM    7  C3  UNL     1      31.352 -32.180   0.211  1.00  0.00     0.680 A 
HETATM    8  N1  UNL     1      30.243 -32.848  -0.150  1.00  0.00    -0.201 N 
HETATM    9  C2  UNL     1      29.713 -33.827   0.575  1.00  0.00     0.126 A 
ATOM     10  H1  UNL     1      29.785 -32.589  -1.024  1.00  0.00     0.183 HD
HETATM   11  C1  UNL     1      30.303 -34.211   1.771  1.00  0.00     0.042 A 
HETATM   12 BR1  UNL     1      29.562 -35.618   2.830  1.00  0.00    -0.048 Br
HETATM   13  C14 UNL     1      31.444 -33.526   2.145  1.00  0.00     0.126 A 
HETATM   14  N4  UNL     1      31.932 -32.544   1.368  1.00  0.00    -0.201 N 
ATOM     15  H4  UNL     1      32.775 -32.055   1.669  1.00  0.00     0.183 HD
ENDBRANCH   1   7
BRANCH   4  16
HETATM   16  C6  UNL     1      33.410 -28.997  -3.838  1.00  0.00     0.223 C 
HETATM   17  C7  UNL     1      33.049 -27.539  -3.966  1.00  0.00     0.036 C 
HETATM   18  C8  UNL     1      34.271 -26.647  -3.767  1.00  0.00     0.002 C 
HETATM   19  C9  UNL     1      35.210 -26.899  -4.923  1.00  0.00     0.000 C 
HETATM   20  C10 UNL     1      35.263 -28.363  -5.284  1.00  0.00     0.002 C 
HETATM   21  C11 UNL     1      34.878 -29.135  -4.029  1.00  0.00     0.036 C 
ENDBRANCH   4  16
TORSDOF 2
ENDMDL
MODEL 3
REMARK VINA RESULT: -5.961648050      1.496      2.028
REMARK  2 active torsions:
REMARK  status: ('A' for Active; 'I' for Inactive)
REMARK    1  A    between atoms: C3_6  and  N2_7 
REMARK    2  A    between atoms: N3_10  and  C6_11 
ROOT
HETATM    1  N2  UNL     1      32.151 -31.115  -0.875  1.00  0.00    -0.214 N 
HETATM    2  C4  UNL     1      33.550 -31.155  -1.235  1.00  0.00     0.171 C 
HETATM    3  C5  UNL     1      33.968 -29.932  -2.023  1.00  0.00     0.293 C 
HETATM    4  N3  UNL     1      33.066 -29.800  -3.131  1.00  0.00     0.096 N 
HETATM    5  C12 UNL     1      31.756 -29.556  -2.650  1.00  0.00     0.293 C 
HETATM    6  C13 UNL     1      31.202 -30.749  -1.902  1.00  0.00     0.171 C 
ENDROOT
BRANCH   1   7
HETATM    7  C3  UNL     1      31.755 -31.432   0.454  1.00  0.00     0.680 A 
HETATM    8  N1  UNL     1      30.636 -30.945   1.017  1.00  0.00    -0.201 N 
HETATM    9  C2  UNL     1      30.258 -31.234   2.258  1.00  0.00     0.126 A 
ATOM     10  H1  UNL     1      30.047 -30.323   0.464  1.00  0.00     0.183 HD
HETATM   11  C1  UNL     1      31.030 -32.076   3.046  1.00  0.00     0.042 A 
HETATM   12 BR1  UNL     1      30.507 -32.508   4.833  1.00  0.00    -0.048 Br
HETATM   13  C14 UNL     1      32.182 -32.578   2.471  1.00  0.00     0.126 A 
HETATM   14  N4  UNL     1      32.510 -32.248   1.210  1.00  0.00    -0.201 N 
ATOM     15  H4  UNL     1      33.366 -32.633   0.810  1.00  0.00     0.183 HD
ENDBRANCH   1   7
BRANCH   4  16
HETATM   16  C6  UNL     1      33.529 -28.979  -4.192  1.00  0.00     0.223 C 
HETATM   17  C7  UNL     1      33.112 -27.534  -4.089  1.00  0.00     0.036 C 
HETATM   18  C8  UNL     1      34.302 -26.636  -3.763  1.00  0.00     0.002 C 
HETATM   19  C9  UNL     1      35.234 -26.669  -4.951  1.00  0.00     0.000 C 
HETATM   20  C10 UNL     1      35.337 -28.056  -5.537  1.00  0.00     0.002 C 
HETATM   21  C11 UNL     1      34.999 -29.027  -4.414  1.00  0.00     0.036 C 
ENDBRANCH   4  16
TORSDOF 2
ENDMDL
MODEL 4
REMARK VINA RESULT: -5.792466075      3.157      7.929
REMARK  2 active torsions:
REMARK  status: ('A' for Active; 'I' for Inactive)
REMARK    1  A    between atoms: C3_6  and  N2_7 
REMARK    2  A    between atoms: N3_10  and  C6_11 
ROOT
HETATM    1  N2  UNL     1      32.551 -31.509  -0.791  1.00  0.00    -0.214 N 
HETATM    2  C4  UNL     1      31.422 -32.345  -1.129  1.00  0.00     0.171 C 
HETATM    3  C5  UNL     1      30.479 -32.525   0.040  1.00  0.00     0.293 C 
HETATM    4  N3  UNL     1      31.253 -32.985   1.157  1.00  0.00     0.096 N 
HETATM    5  C12 UNL     1      32.189 -31.988   1.528  1.00  0.00     0.293 C 
HETATM    6  C13 UNL     1      33.235 -31.772   0.455  1.00  0.00     0.171 C 
ENDROOT
BRANCH   1   7
HETATM    7  C3  UNL     1      32.950 -30.469  -1.676  1.00  0.00     0.680 A 
HETATM    8  N1  UNL     1      32.087 -29.822  -2.478  1.00  0.00    -0.201 N 
HETATM    9  C2  UNL     1      32.451 -28.851  -3.308  1.00  0.00     0.126 A 
ATOM     10  H1  UNL     1      31.103 -30.090  -2.447  1.00  0.00     0.183 HD
HETATM   11  C1  UNL     1      33.779 -28.454  -3.383  1.00  0.00     0.042 A 
HETATM   12 BR1  UNL     1      34.326 -27.058  -4.568  1.00  0.00    -0.048 Br
HETATM   13  C14 UNL     1      34.669 -29.117  -2.560  1.00  0.00     0.126 A 
HETATM   14  N4  UNL     1      34.239 -30.092  -1.741  1.00  0.00    -0.201 N 
ATOM     15  H4  UNL     1      34.918 -30.565  -1.145  1.00  0.00     0.183 HD
ENDBRANCH   1   7
BRANCH   4  16
HETATM   16  C6  UNL     1      30.508 -33.594   2.200  1.00  0.00     0.223 C 
HETATM   17  C7  UNL     1      29.545 -34.658   1.738  1.00  0.00     0.036 C 
HETATM   18  C8  UNL     1      30.011 -36.048   2.162  1.00  0.00     0.002 C 
HETATM   19  C9  UNL     1      29.937 -36.110   3.669  1.00  0.00     0.000 C 
HETATM   20  C10 UNL     1      30.396 -34.819   4.301  1.00  0.00     0.002 C 
HETATM   21  C11 UNL     1      31.334 -34.156   3.302  1.00  0.00     0.036 C 
ENDBRANCH   4  16
TORSDOF 2
ENDMDL
MODEL 5
REMARK VINA RESULT: -5.766711482      3.163      7.932
REMARK  2 active torsions:
REMARK  status: ('A' for Active; 'I' for Inactive)
REMARK    1  A    between atoms: C3_6  and  N2_7 
REMARK    2  A    between atoms: N3_10  and  C6_11 
ROOT
HETATM    1  N2  UNL     1      32.422 -31.655  -0.632  1.00  0.00    -0.214 N 
HETATM    2  C4  UNL     1      31.377 -32.560  -1.053  1.00  0.00     0.171 C 
HETATM    3  C5  UNL     1      30.319 -32.740   0.014  1.00  0.00     0.293 C 
HETATM    4  N3  UNL     1      30.985 -33.114   1.228  1.00  0.00     0.096 N 
HETATM    5  C12 UNL     1      31.827 -32.056   1.653  1.00  0.00     0.293 C 
HETATM    6  C13 UNL     1      32.974 -31.832   0.692  1.00  0.00     0.171 C 
ENDROOT
BRANCH   1   7
HETATM    7  C3  UNL     1      32.869 -30.633  -1.516  1.00  0.00     0.680 A 
HETATM    8  N1  UNL     1      34.162 -30.289  -1.639  1.00  0.00    -0.201 N 
HETATM    9  C2  UNL     1      34.588 -29.336  -2.461  1.00  0.00     0.126 A 
ATOM     10  H1  UNL     1      34.851 -30.785  -1.074  1.00  0.00     0.183 HD
HETATM   11  C1  UNL     1      33.686 -28.635  -3.248  1.00  0.00     0.042 A 
HETATM   12 BR1  UNL     1      34.274 -27.261  -4.439  1.00  0.00    -0.048 Br
HETATM   13  C14 UNL     1      32.355 -28.986  -3.124  1.00  0.00     0.126 A 
HETATM   14  N4  UNL     1      31.986 -29.960  -2.275  1.00  0.00    -0.201 N 
ATOM     15  H4  UNL     1      30.997 -30.198  -2.203  1.00  0.00     0.183 HD
ENDBRANCH   1   7
BRANCH   4  16
HETATM   16  C6  UNL     1      30.157 -33.717   2.211  1.00  0.00     0.223 C 
HETATM   17  C7  UNL     1      29.581 -35.050   1.807  1.00  0.00     0.036 C 
HETATM   18  C8  UNL     1      30.214 -36.190   2.600  1.00  0.00     0.002 C 
HETATM   19  C9  UNL     1      29.795 -36.027   4.041  1.00  0.00     0.000 C 
HETATM   20  C10 UNL     1      29.805 -34.578   4.461  1.00  0.00     0.002 C 
HETATM   21  C11 UNL     1      30.794 -33.867   3.547  1.00  0.00     0.036 C 
ENDBRANCH   4  16
TORSDOF 2
ENDMDL
