MODEL 1
REMARK VINA RESULT: -6.146797536      0.000      0.000
REMARK  4 active torsions:
REMARK  status: ('A' for Active; 'I' for Inactive)
REMARK    1  A    between atoms: C2_2  and  N1_3 
REMARK    2  A    between atoms: N2_6  and  C5_7 
REMARK    3  A    between atoms: C5_7  and  N3_9 
REMARK    4  A    between atoms: N3_9  and  C6_11 
ROOT
HETATM    1  N3  UNL     1      28.754 -30.764  -0.659  1.00  0.00    -0.313 N 
ATOM      2  H3  UNL     1      28.501 -31.655  -0.230  1.00  0.00     0.170 HD
ENDROOT
BRANCH   1   3
HETATM    3  C5  UNL     1      27.791 -29.740  -0.773  1.00  0.00     0.175 C 
HETATM    4  S1  UNL     1      27.743 -28.494   0.310  1.00  0.00    -0.041 SA
BRANCH   3   5
HETATM    5  N2  UNL     1      26.827 -29.756  -1.841  1.00  0.00    -0.355 N 
HETATM    6  C4  UNL     1      26.871 -30.840  -2.804  1.00  0.00     0.144 C 
HETATM    7  C3  UNL     1      26.094 -30.456  -4.047  1.00  0.00     0.136 C 
HETATM    8  N1  UNL     1      24.746 -30.235  -3.633  1.00  0.00    -0.410 N 
HETATM    9  C14 UNL     1      24.560 -29.209  -2.667  1.00  0.00     0.136 C 
HETATM   10  C13 UNL     1      25.830 -28.749  -1.991  1.00  0.00     0.144 C 
BRANCH   8  11
HETATM   11  C2  UNL     1      23.778 -30.301  -4.668  1.00  0.00     0.112 C 
HETATM   12  C1  UNL     1      23.154 -28.979  -5.013  1.00  0.00     0.026 C 
ENDBRANCH   8  11
ENDBRANCH   3   5
ENDBRANCH   1   3
BRANCH   1  13
HETATM   13  C6  UNL     1      30.078 -30.561  -1.140  1.00  0.00     0.151 A 
HETATM   14  N4  UNL     1      30.425 -29.974  -2.273  1.00  0.00    -0.339 N 
HETATM   15  C7  UNL     1      31.675 -29.857  -2.594  1.00  0.00     0.024 A 
ATOM     16  H4  UNL     1      29.705 -29.612  -2.898  1.00  0.00     0.168 HD
HETATM   17  C8  UNL     1      32.605 -30.362  -1.715  1.00  0.00     0.011 A 
HETATM   18  C12 UNL     1      32.299 -29.222  -3.831  1.00  0.00     0.061 C 
HETATM   19  S2  UNL     1      31.596 -30.979  -0.472  1.00  0.00    -0.056 SA
HETATM   20  C9  UNL     1      34.089 -30.291  -1.968  1.00  0.00     0.085 C 
HETATM   21  C10 UNL     1      34.494 -29.140  -2.816  1.00  0.00     0.175 C 
HETATM   22  F1  UNL     1      35.051 -29.615  -4.015  1.00  0.00    -0.249 F 
HETATM   23  C11 UNL     1      33.341 -28.262  -3.249  1.00  0.00     0.043 C 
ENDBRANCH   1  13
TORSDOF 4
ENDMDL
MODEL 2
REMARK VINA RESULT: -5.979816978      3.364      5.511
REMARK  4 active torsions:
REMARK  status: ('A' for Active; 'I' for Inactive)
REMARK    1  A    between atoms: C2_2  and  N1_3 
REMARK    2  A    between atoms: N2_6  and  C5_7 
REMARK    3  A    between atoms: C5_7  and  N3_9 
REMARK    4  A    between atoms: N3_9  and  C6_11 
ROOT
HETATM    1  N3  UNL     1      29.266 -30.075  -0.417  1.00  0.00    -0.313 N 
ATOM      2  H3  UNL     1      28.816 -29.201  -0.144  1.00  0.00     0.170 HD
ENDROOT
BRANCH   1   3
HETATM    3  C5  UNL     1      28.614 -31.304  -0.184  1.00  0.00     0.175 C 
HETATM    4  S1  UNL     1      27.186 -31.664  -0.933  1.00  0.00    -0.041 SA
BRANCH   3   5
HETATM    5  N2  UNL     1      29.182 -32.276   0.712  1.00  0.00    -0.355 N 
HETATM    6  C4  UNL     1      29.520 -33.588   0.194  1.00  0.00     0.144 C 
HETATM    7  C3  UNL     1      29.684 -34.568   1.339  1.00  0.00     0.136 C 
HETATM    8  N1  UNL     1      30.756 -34.078   2.143  1.00  0.00    -0.410 N 
HETATM    9  C14 UNL     1      30.566 -32.783   2.699  1.00  0.00     0.136 C 
HETATM   10  C13 UNL     1      29.426 -32.002   2.090  1.00  0.00     0.144 C 
BRANCH   8  11
HETATM   11  C2  UNL     1      31.361 -35.040   2.993  1.00  0.00     0.112 C 
HETATM   12  C1  UNL     1      31.130 -36.464   2.575  1.00  0.00     0.026 C 
ENDBRANCH   8  11
ENDBRANCH   3   5
ENDBRANCH   1   3
BRANCH   1  13
HETATM   13  C6  UNL     1      30.549 -30.050  -1.031  1.00  0.00     0.151 A 
HETATM   14  N4  UNL     1      30.860 -29.494  -2.189  1.00  0.00    -0.339 N 
HETATM   15  C7  UNL     1      32.075 -29.548  -2.637  1.00  0.00     0.024 A 
ATOM     16  H4  UNL     1      30.140 -29.020  -2.734  1.00  0.00     0.168 HD
HETATM   17  C8  UNL     1      33.008 -30.198  -1.863  1.00  0.00     0.011 A 
HETATM   18  C12 UNL     1      32.654 -28.980  -3.928  1.00  0.00     0.061 C 
HETATM   19  S2  UNL     1      32.053 -30.693  -0.526  1.00  0.00    -0.056 SA
HETATM   20  C9  UNL     1      34.453 -30.332  -2.267  1.00  0.00     0.085 C 
HETATM   21  C10 UNL     1      34.931 -29.231  -3.145  1.00  0.00     0.175 C 
HETATM   22  F1  UNL     1      35.290 -29.754  -4.398  1.00  0.00    -0.249 F 
HETATM   23  C11 UNL     1      33.876 -28.190  -3.450  1.00  0.00     0.043 C 
ENDBRANCH   1  13
TORSDOF 4
ENDMDL
MODEL 3
REMARK VINA RESULT: -5.972102292      4.809      6.993
REMARK  4 active torsions:
REMARK  status: ('A' for Active; 'I' for Inactive)
REMARK    1  A    between atoms: C2_2  and  N1_3 
REMARK    2  A    between atoms: N2_6  and  C5_7 
REMARK    3  A    between atoms: C5_7  and  N3_9 
REMARK    4  A    between atoms: N3_9  and  C6_11 
ROOT
HETATM    1  N3  UNL     1      31.004 -32.898  -0.414  1.00  0.00    -0.313 N 
ATOM      2  H3  UNL     1      30.782 -33.763  -0.909  1.00  0.00     0.170 HD
ENDROOT
BRANCH   1   3
HETATM    3  C5  UNL     1      30.774 -32.804   0.974  1.00  0.00     0.175 C 
HETATM    4  S1  UNL     1      30.523 -31.340   1.698  1.00  0.00    -0.041 SA
BRANCH   3   5
HETATM    5  N2  UNL     1      30.749 -33.986   1.794  1.00  0.00    -0.355 N 
HETATM    6  C4  UNL     1      29.830 -35.054   1.451  1.00  0.00     0.144 C 
HETATM    7  C3  UNL     1      29.649 -35.979   2.638  1.00  0.00     0.136 C 
HETATM    8  N1  UNL     1      30.934 -36.526   2.928  1.00  0.00    -0.410 N 
HETATM    9  C14 UNL     1      31.944 -35.582   3.260  1.00  0.00     0.136 C 
HETATM   10  C13 UNL     1      31.593 -34.150   2.931  1.00  0.00     0.144 C 
BRANCH   8  11
HETATM   11  C2  UNL     1      30.923 -37.722   3.691  1.00  0.00     0.112 C 
HETATM   12  C1  UNL     1      31.711 -38.848   3.085  1.00  0.00     0.026 C 
ENDBRANCH   8  11
ENDBRANCH   3   5
ENDBRANCH   1   3
BRANCH   1  13
HETATM   13  C6  UNL     1      31.543 -31.792  -1.128  1.00  0.00     0.151 A 
HETATM   14  N4  UNL     1      32.797 -31.375  -1.108  1.00  0.00    -0.339 N 
HETATM   15  C7  UNL     1      33.157 -30.344  -1.807  1.00  0.00     0.024 A 
ATOM     16  H4  UNL     1      33.487 -31.867  -0.540  1.00  0.00     0.168 HD
HETATM   17  C8  UNL     1      32.188 -29.717  -2.556  1.00  0.00     0.011 A 
HETATM   18  C12 UNL     1      34.531 -29.697  -1.937  1.00  0.00     0.061 C 
HETATM   19  S2  UNL     1      30.810 -30.672  -2.194  1.00  0.00    -0.056 SA
HETATM   20  C9  UNL     1      32.472 -28.510  -3.411  1.00  0.00     0.085 C 
HETATM   21  C10 UNL     1      33.874 -28.443  -3.900  1.00  0.00     0.175 C 
HETATM   22  F1  UNL     1      34.503 -27.305  -3.367  1.00  0.00    -0.249 F 
HETATM   23  C11 UNL     1      34.735 -29.603  -3.452  1.00  0.00     0.043 C 
ENDBRANCH   1  13
TORSDOF 4
ENDMDL
MODEL 4
REMARK VINA RESULT: -5.923775038      1.362      1.659
REMARK  4 active torsions:
REMARK  status: ('A' for Active; 'I' for Inactive)
REMARK    1  A    between atoms: C2_2  and  N1_3 
REMARK    2  A    between atoms: N2_6  and  C5_7 
REMARK    3  A    between atoms: C5_7  and  N3_9 
REMARK    4  A    between atoms: N3_9  and  C6_11 
ROOT
HETATM    1  N3  UNL     1      29.340 -30.170  -0.296  1.00  0.00    -0.313 N 
ATOM      2  H3  UNL     1      29.066 -29.419   0.337  1.00  0.00     0.170 HD
ENDROOT
BRANCH   1   3
HETATM    3  C5  UNL     1      28.466 -31.254  -0.520  1.00  0.00     0.175 C 
HETATM    4  S1  UNL     1      28.775 -32.743   0.127  1.00  0.00    -0.041 SA
BRANCH   3   5
HETATM    5  N2  UNL     1      27.280 -31.087  -1.317  1.00  0.00    -0.355 N 
HETATM    6  C4  UNL     1      25.986 -31.269  -0.688  1.00  0.00     0.144 C 
HETATM    7  C3  UNL     1      24.922 -31.476  -1.748  1.00  0.00     0.136 C 
HETATM    8  N1  UNL     1      24.907 -30.294  -2.546  1.00  0.00    -0.410 N 
HETATM    9  C14 UNL     1      26.127 -29.982  -3.207  1.00  0.00     0.136 C 
HETATM   10  C13 UNL     1      27.326 -30.749  -2.701  1.00  0.00     0.144 C 
BRANCH   8  11
HETATM   11  C2  UNL     1      23.721 -30.088  -3.297  1.00  0.00     0.112 C 
HETATM   12  C1  UNL     1      23.746 -30.699  -4.669  1.00  0.00     0.026 C 
ENDBRANCH   8  11
ENDBRANCH   3   5
ENDBRANCH   1   3
BRANCH   1  13
HETATM   13  C6  UNL     1      30.603 -30.121  -0.950  1.00  0.00     0.151 A 
HETATM   14  N4  UNL     1      30.871 -29.544  -2.108  1.00  0.00    -0.339 N 
HETATM   15  C7  UNL     1      32.071 -29.577  -2.595  1.00  0.00     0.024 A 
ATOM     16  H4  UNL     1      30.128 -29.070  -2.623  1.00  0.00     0.168 HD
HETATM   17  C8  UNL     1      33.035 -30.228  -1.861  1.00  0.00     0.011 A 
HETATM   18  C12 UNL     1      32.602 -28.983  -3.895  1.00  0.00     0.061 C 
HETATM   19  S2  UNL     1      32.128 -30.754  -0.503  1.00  0.00    -0.056 SA
HETATM   20  C9  UNL     1      34.468 -30.339  -2.314  1.00  0.00     0.085 C 
HETATM   21  C10 UNL     1      34.905 -29.220  -3.189  1.00  0.00     0.175 C 
HETATM   22  F1  UNL     1      35.230 -29.720  -4.460  1.00  0.00    -0.249 F 
HETATM   23  C11 UNL     1      33.830 -28.187  -3.444  1.00  0.00     0.043 C 
ENDBRANCH   1  13
TORSDOF 4
ENDMDL
MODEL 5
REMARK VINA RESULT: -5.873433055      2.081      3.071
REMARK  4 active torsions:
REMARK  status: ('A' for Active; 'I' for Inactive)
REMARK    1  A    between atoms: C2_2  and  N1_3 
REMARK    2  A    between atoms: N2_6  and  C5_7 
REMARK    3  A    between atoms: C5_7  and  N3_9 
REMARK    4  A    between atoms: N3_9  and  C6_11 
ROOT
HETATM    1  N3  UNL     1      28.451 -30.699  -0.756  1.00  0.00    -0.313 N 
ATOM      2  H3  UNL     1      28.222 -31.196   0.105  1.00  0.00     0.170 HD
ENDROOT
BRANCH   1   3
HETATM    3  C5  UNL     1      27.421 -30.148  -1.546  1.00  0.00     0.175 C 
HETATM    4  S1  UNL     1      26.901 -30.908  -2.917  1.00  0.00    -0.041 SA
BRANCH   3   5
HETATM    5  N2  UNL     1      26.794 -28.908  -1.171  1.00  0.00    -0.355 N 
HETATM    6  C4  UNL     1      27.206 -28.262   0.060  1.00  0.00     0.144 C 
HETATM    7  C3  UNL     1      26.164 -27.246   0.483  1.00  0.00     0.136 C 
HETATM    8  N1  UNL     1      26.090 -26.280  -0.565  1.00  0.00    -0.410 N 
HETATM    9  C14 UNL     1      25.717 -26.783  -1.841  1.00  0.00     0.136 C 
HETATM   10  C13 UNL     1      25.784 -28.287  -1.964  1.00  0.00     0.144 C 
BRANCH   8  11
HETATM   11  C2  UNL     1      25.522 -25.032  -0.197  1.00  0.00     0.112 C 
HETATM   12  C1  UNL     1      25.721 -23.941  -1.209  1.00  0.00     0.026 C 
ENDBRANCH   8  11
ENDBRANCH   3   5
ENDBRANCH   1   3
BRANCH   1  13
HETATM   13  C6  UNL     1      29.810 -30.564  -1.156  1.00  0.00     0.151 A 
HETATM   14  N4  UNL     1      30.254 -30.020  -2.275  1.00  0.00    -0.339 N 
HETATM   15  C7  UNL     1      31.526 -29.965  -2.518  1.00  0.00     0.024 A 
ATOM     16  H4  UNL     1      29.592 -29.640  -2.952  1.00  0.00     0.168 HD
HETATM   17  C8  UNL     1      32.376 -30.490  -1.573  1.00  0.00     0.011 A 
HETATM   18  C12 UNL     1      32.254 -29.386  -3.726  1.00  0.00     0.061 C 
HETATM   19  S2  UNL     1      31.264 -31.034  -0.384  1.00  0.00    -0.056 SA
HETATM   20  C9  UNL     1      33.874 -30.491  -1.732  1.00  0.00     0.085 C 
HETATM   21  C10 UNL     1      34.383 -29.378  -2.575  1.00  0.00     0.175 C 
HETATM   22  F1  UNL     1      34.992 -29.904  -3.726  1.00  0.00    -0.249 F 
HETATM   23  C11 UNL     1      33.300 -28.460  -3.098  1.00  0.00     0.043 C 
ENDBRANCH   1  13
TORSDOF 4
ENDMDL
