MODEL 1
REMARK VINA RESULT: -5.449676825      0.000      0.000
REMARK  4 active torsions:
REMARK  status: ('A' for Active; 'I' for Inactive)
REMARK    1  A    between atoms: C2_2  and  C3_3 
REMARK    2  A    between atoms: C2_2  and  N2_9 
REMARK    3  A    between atoms: C3_3  and  C4_4 
REMARK    4  A    between atoms: C4_4  and  N1_5 
ROOT
HETATM    1  N2  UNL     1      34.552  50.940  20.487  1.00  0.00    -0.364 N 
HETATM    2  C5  UNL     1      33.575  51.662  21.294  1.00  0.00     0.143 C 
HETATM    3  C6  UNL     1      33.394  50.946  22.587  1.00  0.00     0.134 C 
HETATM    4  N3  UNL     1      33.096  49.562  22.510  1.00  0.00    -0.413 N 
ATOM      5  H3  UNL     1      32.625  49.077  23.274  1.00  0.00     0.153 HD
HETATM    6  C7  UNL     1      33.482  48.877  21.319  1.00  0.00     0.190 C 
HETATM    7  C8  UNL     1      34.692  49.562  20.780  1.00  0.00     0.090 C 
HETATM    8  N4  UNL     1      35.805  48.951  20.589  1.00  0.00    -0.388 N 
ATOM      9  H41 UNL     1      35.906  47.958  20.800  1.00  0.00     0.157 HD
ATOM     10  H42 UNL     1      36.633  49.419  20.221  1.00  0.00     0.157 HD
ENDROOT
BRANCH   1  11
HETATM   11  C2  UNL     1      35.336  51.546  19.462  1.00  0.00     0.083 C 
HETATM   12  C1  UNL     1      35.539  53.018  19.712  1.00  0.00     0.032 C 
BRANCH  11  13
HETATM   13  C3  UNL     1      34.643  51.284  18.141  1.00  0.00     0.052 C 
BRANCH  13  14
HETATM   14  C4  UNL     1      35.313  52.034  17.007  1.00  0.00     0.231 C 
BRANCH  14  15
HETATM   15  N1  UNL     1      36.135  51.211  16.213  1.00  0.00    -0.079 N 
ATOM     16  H13 UNL     1      37.080  51.590  16.154  1.00  0.00     0.274 HD
ATOM     17  H12 UNL     1      36.338  50.331  16.688  1.00  0.00     0.274 HD
ATOM     18  H11 UNL     1      35.752  51.043  15.283  1.00  0.00     0.274 HD
ENDBRANCH  14  15
ENDBRANCH  13  14
ENDBRANCH  11  13
ENDBRANCH   1  11
TORSDOF 4
ENDMDL
MODEL 2
REMARK VINA RESULT: -5.329004191      1.035      1.035
REMARK  4 active torsions:
REMARK  status: ('A' for Active; 'I' for Inactive)
REMARK    1  A    between atoms: C2_2  and  C3_3 
REMARK    2  A    between atoms: C2_2  and  N2_9 
REMARK    3  A    between atoms: C3_3  and  C4_4 
REMARK    4  A    between atoms: C4_4  and  N1_5 
ROOT
HETATM    1  N2  UNL     1      34.547  50.875  20.389  1.00  0.00    -0.364 N 
HETATM    2  C5  UNL     1      33.597  51.644  21.187  1.00  0.00     0.143 C 
HETATM    3  C6  UNL     1      33.411  50.965  22.499  1.00  0.00     0.134 C 
HETATM    4  N3  UNL     1      33.076  49.588  22.461  1.00  0.00    -0.413 N 
ATOM      5  H3  UNL     1      32.600  49.135  23.241  1.00  0.00     0.153 HD
HETATM    6  C7  UNL     1      33.431  48.863  21.284  1.00  0.00     0.190 C 
HETATM    7  C8  UNL     1      34.653  49.503  20.716  1.00  0.00     0.090 C 
HETATM    8  N4  UNL     1      35.748  48.857  20.530  1.00  0.00    -0.388 N 
ATOM      9  H41 UNL     1      35.825  47.867  20.766  1.00  0.00     0.157 HD
ATOM     10  H42 UNL     1      36.584  49.294  20.142  1.00  0.00     0.157 HD
ENDROOT
BRANCH   1  11
HETATM   11  C2  UNL     1      35.336  51.434  19.342  1.00  0.00     0.083 C 
HETATM   12  C1  UNL     1      36.251  52.518  19.850  1.00  0.00     0.032 C 
BRANCH  11  13
HETATM   13  C3  UNL     1      34.387  51.945  18.278  1.00  0.00     0.052 C 
BRANCH  13  14
HETATM   14  C4  UNL     1      35.127  52.710  17.198  1.00  0.00     0.231 C 
BRANCH  14  15
HETATM   15  N1  UNL     1      34.845  54.090  17.209  1.00  0.00    -0.079 N 
ATOM     16  H13 UNL     1      34.573  54.399  18.142  1.00  0.00     0.274 HD
ATOM     17  H12 UNL     1      35.699  54.637  17.095  1.00  0.00     0.274 HD
ATOM     18  H11 UNL     1      34.145  54.359  16.518  1.00  0.00     0.274 HD
ENDBRANCH  14  15
ENDBRANCH  13  14
ENDBRANCH  11  13
ENDBRANCH   1  11
TORSDOF 4
ENDMDL
MODEL 3
REMARK VINA RESULT: -5.284408586      3.045      4.680
REMARK  4 active torsions:
REMARK  status: ('A' for Active; 'I' for Inactive)
REMARK    1  A    between atoms: C2_2  and  C3_3 
REMARK    2  A    between atoms: C2_2  and  N2_9 
REMARK    3  A    between atoms: C3_3  and  C4_4 
REMARK    4  A    between atoms: C4_4  and  N1_5 
ROOT
HETATM    1  N2  UNL     1      36.390  53.330  17.801  1.00  0.00    -0.364 N 
HETATM    2  C5  UNL     1      36.192  52.257  16.833  1.00  0.00     0.143 C 
HETATM    3  C6  UNL     1      34.994  51.466  17.229  1.00  0.00     0.134 C 
HETATM    4  N3  UNL     1      34.962  50.987  18.563  1.00  0.00    -0.413 N 
ATOM      5  H3  UNL     1      34.396  50.179  18.824  1.00  0.00     0.153 HD
HETATM    6  C7  UNL     1      35.756  51.681  19.525  1.00  0.00     0.190 C 
HETATM    7  C8  UNL     1      35.847  53.104  19.088  1.00  0.00     0.090 C 
HETATM    8  N4  UNL     1      35.454  54.080  19.826  1.00  0.00    -0.388 N 
ATOM      9  H41 UNL     1      35.062  53.917  20.753  1.00  0.00     0.157 HD
ATOM     10  H42 UNL     1      35.516  55.053  19.527  1.00  0.00     0.157 HD
ENDROOT
BRANCH   1  11
HETATM   11  C2  UNL     1      37.079  54.543  17.509  1.00  0.00     0.083 C 
HETATM   12  C1  UNL     1      36.278  55.433  16.595  1.00  0.00     0.032 C 
BRANCH  11  13
HETATM   13  C3  UNL     1      38.421  54.174  16.909  1.00  0.00     0.052 C 
BRANCH  13  14
HETATM   14  C4  UNL     1      38.968  55.294  16.047  1.00  0.00     0.231 C 
BRANCH  14  15
HETATM   15  N1  UNL     1      39.353  54.862  14.763  1.00  0.00    -0.079 N 
ATOM     16  H13 UNL     1      40.344  55.042  14.601  1.00  0.00     0.274 HD
ATOM     17  H12 UNL     1      39.357  53.844  14.707  1.00  0.00     0.274 HD
ATOM     18  H11 UNL     1      38.784  55.266  14.020  1.00  0.00     0.274 HD
ENDBRANCH  14  15
ENDBRANCH  13  14
ENDBRANCH  11  13
ENDBRANCH   1  11
TORSDOF 4
ENDMDL
MODEL 4
REMARK VINA RESULT: -5.172106389      1.721      4.407
REMARK  4 active torsions:
REMARK  status: ('A' for Active; 'I' for Inactive)
REMARK    1  A    between atoms: C2_2  and  C3_3 
REMARK    2  A    between atoms: C2_2  and  N2_9 
REMARK    3  A    between atoms: C3_3  and  C4_4 
REMARK    4  A    between atoms: C4_4  and  N1_5 
ROOT
HETATM    1  N2  UNL     1      34.603  51.079  18.873  1.00  0.00    -0.364 N 
HETATM    2  C5  UNL     1      34.436  51.896  17.676  1.00  0.00     0.143 C 
HETATM    3  C6  UNL     1      35.480  52.958  17.669  1.00  0.00     0.134 C 
HETATM    4  N3  UNL     1      35.587  53.751  18.838  1.00  0.00    -0.413 N 
ATOM      5  H3  UNL     1      35.998  54.685  18.812  1.00  0.00     0.153 HD
HETATM    6  C7  UNL     1      35.095  53.190  20.055  1.00  0.00     0.190 C 
HETATM    7  C8  UNL     1      35.253  51.709  19.961  1.00  0.00     0.090 C 
HETATM    8  N4  UNL     1      35.939  51.032  20.810  1.00  0.00    -0.388 N 
ATOM      9  H41 UNL     1      36.408  51.486  21.593  1.00  0.00     0.157 HD
ATOM     10  H42 UNL     1      36.047  50.020  20.745  1.00  0.00     0.157 HD
ENDROOT
BRANCH   1  11
HETATM   11  C2  UNL     1      34.155  49.730  18.980  1.00  0.00     0.083 C 
HETATM   12  C1  UNL     1      34.064  49.064  17.632  1.00  0.00     0.032 C 
BRANCH  11  13
HETATM   13  C3  UNL     1      32.821  49.746  19.697  1.00  0.00     0.052 C 
BRANCH  13  14
HETATM   14  C4  UNL     1      32.801  48.767  20.853  1.00  0.00     0.231 C 
BRANCH  14  15
HETATM   15  N1  UNL     1      33.119  49.366  22.088  1.00  0.00    -0.079 N 
ATOM     16  H13 UNL     1      32.286  49.755  22.529  1.00  0.00     0.274 HD
ATOM     17  H12 UNL     1      33.363  48.661  22.783  1.00  0.00     0.274 HD
ATOM     18  H11 UNL     1      33.853  50.071  22.011  1.00  0.00     0.274 HD
ENDBRANCH  14  15
ENDBRANCH  13  14
ENDBRANCH  11  13
ENDBRANCH   1  11
TORSDOF 4
ENDMDL
MODEL 5
REMARK VINA RESULT: -5.142973222      1.515      4.933
REMARK  4 active torsions:
REMARK  status: ('A' for Active; 'I' for Inactive)
REMARK    1  A    between atoms: C2_2  and  C3_3 
REMARK    2  A    between atoms: C2_2  and  N2_9 
REMARK    3  A    between atoms: C3_3  and  C4_4 
REMARK    4  A    between atoms: C4_4  and  N1_5 
ROOT
HETATM    1  N2  UNL     1      35.082  51.718  19.179  1.00  0.00    -0.364 N 
HETATM    2  C5  UNL     1      34.439  50.970  18.105  1.00  0.00     0.143 C 
HETATM    3  C6  UNL     1      35.083  51.335  16.813  1.00  0.00     0.134 C 
HETATM    4  N3  UNL     1      35.169  52.718  16.514  1.00  0.00    -0.413 N 
ATOM      5  H3  UNL     1      35.260  53.050  15.554  1.00  0.00     0.153 HD
HETATM    6  C7  UNL     1      35.125  53.627  17.614  1.00  0.00     0.190 C 
HETATM    7  C8  UNL     1      35.708  52.928  18.796  1.00  0.00     0.090 C 
HETATM    8  N4  UNL     1      36.723  53.385  19.438  1.00  0.00    -0.388 N 
ATOM      9  H41 UNL     1      37.174  54.257  19.161  1.00  0.00     0.157 HD
ATOM     10  H42 UNL     1      37.122  52.907  20.246  1.00  0.00     0.157 HD
ENDROOT
BRANCH   1  11
HETATM   11  C2  UNL     1      35.101  51.292  20.540  1.00  0.00     0.083 C 
HETATM   12  C1  UNL     1      35.514  49.848  20.666  1.00  0.00     0.032 C 
BRANCH  11  13
HETATM   13  C3  UNL     1      33.723  51.540  21.116  1.00  0.00     0.052 C 
BRANCH  13  14
HETATM   14  C4  UNL     1      33.333  50.458  22.104  1.00  0.00     0.231 C 
BRANCH  14  15
HETATM   15  N1  UNL     1      33.380  50.893  23.443  1.00  0.00    -0.079 N 
ATOM     16  H13 UNL     1      32.932  51.803  23.547  1.00  0.00     0.274 HD
ATOM     17  H12 UNL     1      32.759  50.334  24.029  1.00  0.00     0.274 HD
ATOM     18  H11 UNL     1      34.326  50.906  23.825  1.00  0.00     0.274 HD
ENDBRANCH  14  15
ENDBRANCH  13  14
ENDBRANCH  11  13
ENDBRANCH   1  11
TORSDOF 4
ENDMDL
