MODEL 1
REMARK VINA RESULT: -5.563618229      0.000      0.000
REMARK  5 active torsions:
REMARK  status: ('A' for Active; 'I' for Inactive)
REMARK    1  A    between atoms: C3_5  and  N2_6 
REMARK    2  A    between atoms: C5_12  and  C6_13 
REMARK    3  A    between atoms: C6_13  and  C7_14 
REMARK    4  A    between atoms: C7_14  and  C8_15 
REMARK    5  A    between atoms: C8_15  and  N4_16 
ROOT
HETATM    1  C1  UNL     1      34.008  51.682  19.038  1.00  0.00     0.069 C 
HETATM    2  C2  UNL     1      33.594  50.790  20.169  1.00  0.00     0.030 A 
HETATM    3  N1  UNL     1      33.694  51.275  21.429  1.00  0.00    -0.196 N 
ATOM      4  H1  UNL     1      34.048  52.219  21.582  1.00  0.00     0.184 HD
HETATM    5  C3  UNL     1      33.329  50.519  22.484  1.00  0.00     0.675 A 
HETATM    6  N3  UNL     1      32.870  49.293  22.261  1.00  0.00    -0.202 N 
ATOM      7  H3  UNL     1      32.595  48.724  23.061  1.00  0.00     0.183 HD
HETATM    8  C4  UNL     1      32.749  48.761  21.017  1.00  0.00     0.115 A 
HETATM    9  C5  UNL     1      33.120  49.520  19.928  1.00  0.00    -0.019 A 
ENDROOT
BRANCH   9  10
HETATM   10  C6  UNL     1      33.058  49.028  18.556  1.00  0.00     0.043 C 
BRANCH  10  11
HETATM   11  C7  UNL     1      34.287  48.329  18.074  1.00  0.00     0.032 C 
BRANCH  11  12
HETATM   12  C8  UNL     1      34.390  48.607  16.580  1.00  0.00     0.230 C 
BRANCH  12  13
HETATM   13  N4  UNL     1      34.984  49.854  16.247  1.00  0.00    -0.079 N 
ATOM     14  H43 UNL     1      34.291  50.475  15.829  1.00  0.00     0.274 HD
ATOM     15  H42 UNL     1      35.203  50.379  17.094  1.00  0.00     0.274 HD
ATOM     16  H41 UNL     1      35.807  49.788  15.649  1.00  0.00     0.274 HD
ENDBRANCH  12  13
ENDBRANCH  11  12
ENDBRANCH  10  11
ENDBRANCH   9  10
BRANCH   5  17
HETATM   17  N2  UNL     1      33.434  50.999  23.699  1.00  0.00    -0.234 N 
ATOM     18  H22 UNL     1      33.522  52.001  23.869  1.00  0.00     0.174 HD
ATOM     19  H21 UNL     1      33.428  50.366  24.498  1.00  0.00     0.174 HD
ENDBRANCH   5  17
TORSDOF 5
ENDMDL
MODEL 2
REMARK VINA RESULT: -5.490815632      3.955      5.672
REMARK  5 active torsions:
REMARK  status: ('A' for Active; 'I' for Inactive)
REMARK    1  A    between atoms: C3_5  and  N2_6 
REMARK    2  A    between atoms: C5_12  and  C6_13 
REMARK    3  A    between atoms: C6_13  and  C7_14 
REMARK    4  A    between atoms: C7_14  and  C8_15 
REMARK    5  A    between atoms: C8_15  and  N4_16 
ROOT
HETATM    1  C1  UNL     1      35.969  52.187  13.818  1.00  0.00     0.069 C 
HETATM    2  C2  UNL     1      35.853  52.743  15.205  1.00  0.00     0.030 A 
HETATM    3  N1  UNL     1      36.186  54.041  15.399  1.00  0.00    -0.196 N 
ATOM      4  H1  UNL     1      36.509  54.604  14.612  1.00  0.00     0.184 HD
HETATM    5  C3  UNL     1      36.096  54.595  16.624  1.00  0.00     0.675 A 
HETATM    6  N3  UNL     1      35.672  53.843  17.634  1.00  0.00    -0.202 N 
ATOM      7  H3  UNL     1      35.604  54.266  18.559  1.00  0.00     0.183 HD
HETATM    8  C4  UNL     1      35.324  52.538  17.491  1.00  0.00     0.115 A 
HETATM    9  C5  UNL     1      35.414  51.956  16.246  1.00  0.00    -0.019 A 
ENDROOT
BRANCH   9  10
HETATM   10  C6  UNL     1      35.095  50.554  15.997  1.00  0.00     0.043 C 
BRANCH  10  11
HETATM   11  C7  UNL     1      34.300  49.881  17.069  1.00  0.00     0.032 C 
BRANCH  11  12
HETATM   12  C8  UNL     1      34.395  48.384  16.808  1.00  0.00     0.230 C 
BRANCH  12  13
HETATM   13  N4  UNL     1      34.925  47.625  17.886  1.00  0.00    -0.079 N 
ATOM     14  H43 UNL     1      35.244  48.245  18.631  1.00  0.00     0.274 HD
ATOM     15  H42 UNL     1      34.177  47.133  18.374  1.00  0.00     0.274 HD
ATOM     16  H41 UNL     1      35.666  46.975  17.626  1.00  0.00     0.274 HD
ENDBRANCH  12  13
ENDBRANCH  11  12
ENDBRANCH  10  11
ENDBRANCH   9  10
BRANCH   5  17
HETATM   17  N2  UNL     1      36.424  55.852  16.798  1.00  0.00    -0.234 N 
ATOM     18  H22 UNL     1      36.323  56.537  16.049  1.00  0.00     0.174 HD
ATOM     19  H21 UNL     1      36.790  56.161  17.699  1.00  0.00     0.174 HD
ENDBRANCH   5  17
TORSDOF 5
ENDMDL
MODEL 3
REMARK VINA RESULT: -5.477202508      2.608      5.246
REMARK  5 active torsions:
REMARK  status: ('A' for Active; 'I' for Inactive)
REMARK    1  A    between atoms: C3_5  and  N2_6 
REMARK    2  A    between atoms: C5_12  and  C6_13 
REMARK    3  A    between atoms: C6_13  and  C7_14 
REMARK    4  A    between atoms: C7_14  and  C8_15 
REMARK    5  A    between atoms: C8_15  and  N4_16 
ROOT
HETATM    1  C1  UNL     1      34.711  50.408  16.682  1.00  0.00     0.069 C 
HETATM    2  C2  UNL     1      35.005  51.659  17.452  1.00  0.00     0.030 A 
HETATM    3  N1  UNL     1      35.261  52.791  16.754  1.00  0.00    -0.196 N 
ATOM      4  H1  UNL     1      35.253  52.769  15.734  1.00  0.00     0.184 HD
HETATM    5  C3  UNL     1      35.526  53.947  17.395  1.00  0.00     0.675 A 
HETATM    6  N3  UNL     1      35.529  53.952  18.724  1.00  0.00    -0.202 N 
ATOM      7  H3  UNL     1      35.729  54.827  19.206  1.00  0.00     0.183 HD
HETATM    8  C4  UNL     1      35.278  52.845  19.470  1.00  0.00     0.115 A 
HETATM    9  C5  UNL     1      35.008  51.655  18.830  1.00  0.00    -0.019 A 
ENDROOT
BRANCH   9  10
HETATM   10  C6  UNL     1      34.757  50.406  19.541  1.00  0.00     0.043 C 
BRANCH  10  11
HETATM   11  C7  UNL     1      34.847  50.492  21.030  1.00  0.00     0.032 C 
BRANCH  11  12
HETATM   12  C8  UNL     1      33.428  50.335  21.562  1.00  0.00     0.230 C 
BRANCH  12  13
HETATM   13  N4  UNL     1      33.293  50.535  22.962  1.00  0.00    -0.079 N 
ATOM     14  H43 UNL     1      33.975  49.969  23.468  1.00  0.00     0.274 HD
ATOM     15  H42 UNL     1      33.614  51.469  23.219  1.00  0.00     0.274 HD
ATOM     16  H41 UNL     1      32.355  50.370  23.328  1.00  0.00     0.274 HD
ENDBRANCH  12  13
ENDBRANCH  11  12
ENDBRANCH  10  11
ENDBRANCH   9  10
BRANCH   5  17
HETATM   17  N2  UNL     1      35.774  55.033  16.706  1.00  0.00    -0.234 N 
ATOM     18  H22 UNL     1      36.677  55.183  16.257  1.00  0.00     0.174 HD
ATOM     19  H21 UNL     1      35.054  55.750  16.612  1.00  0.00     0.174 HD
ENDBRANCH   5  17
TORSDOF 5
ENDMDL
MODEL 4
REMARK VINA RESULT: -5.458839906      3.044      5.220
REMARK  5 active torsions:
REMARK  status: ('A' for Active; 'I' for Inactive)
REMARK    1  A    between atoms: C3_5  and  N2_6 
REMARK    2  A    between atoms: C5_12  and  C6_13 
REMARK    3  A    between atoms: C6_13  and  C7_14 
REMARK    4  A    between atoms: C7_14  and  C8_15 
REMARK    5  A    between atoms: C8_15  and  N4_16 
ROOT
HETATM    1  C1  UNL     1      34.994  50.683  16.068  1.00  0.00     0.069 C 
HETATM    2  C2  UNL     1      35.175  51.874  16.959  1.00  0.00     0.030 A 
HETATM    3  N1  UNL     1      35.500  53.056  16.383  1.00  0.00    -0.196 N 
ATOM      4  H1  UNL     1      35.618  53.109  15.371  1.00  0.00     0.184 HD
HETATM    5  C3  UNL     1      35.669  54.161  17.135  1.00  0.00     0.675 A 
HETATM    6  N3  UNL     1      35.509  54.067  18.450  1.00  0.00    -0.202 N 
ATOM      7  H3  UNL     1      35.638  54.905  19.016  1.00  0.00     0.183 HD
HETATM    8  C4  UNL     1      35.182  52.907  19.077  1.00  0.00     0.115 A 
HETATM    9  C5  UNL     1      35.009  51.768  18.322  1.00  0.00    -0.019 A 
ENDROOT
BRANCH   9  10
HETATM   10  C6  UNL     1      34.689  50.468  18.904  1.00  0.00     0.043 C 
BRANCH  10  11
HETATM   11  C7  UNL     1      34.930  50.351  20.373  1.00  0.00     0.032 C 
BRANCH  11  12
HETATM   12  C8  UNL     1      35.377  48.918  20.629  1.00  0.00     0.230 C 
BRANCH  12  13
HETATM   13  N4  UNL     1      36.311  48.767  21.689  1.00  0.00    -0.079 N 
ATOM     14  H43 UNL     1      35.874  48.295  22.481  1.00  0.00     0.274 HD
ATOM     15  H42 UNL     1      37.019  48.076  21.441  1.00  0.00     0.274 HD
ATOM     16  H41 UNL     1      36.753  49.633  21.995  1.00  0.00     0.274 HD
ENDBRANCH  12  13
ENDBRANCH  11  12
ENDBRANCH  10  11
ENDBRANCH   9  10
BRANCH   5  17
HETATM   17  N2  UNL     1      35.986  55.297  16.564  1.00  0.00    -0.234 N 
ATOM     18  H22 UNL     1      36.534  55.325  15.704  1.00  0.00     0.174 HD
ATOM     19  H21 UNL     1      35.683  56.177  16.981  1.00  0.00     0.174 HD
ENDBRANCH   5  17
TORSDOF 5
ENDMDL
MODEL 5
REMARK VINA RESULT: -5.380241322      3.541      5.167
REMARK  5 active torsions:
REMARK  status: ('A' for Active; 'I' for Inactive)
REMARK    1  A    between atoms: C3_5  and  N2_6 
REMARK    2  A    between atoms: C5_12  and  C6_13 
REMARK    3  A    between atoms: C6_13  and  C7_14 
REMARK    4  A    between atoms: C7_14  and  C8_15 
REMARK    5  A    between atoms: C8_15  and  N4_16 
ROOT
HETATM    1  C1  UNL     1      35.123  52.344  19.784  1.00  0.00     0.069 C 
HETATM    2  C2  UNL     1      35.396  52.821  18.390  1.00  0.00     0.030 A 
HETATM    3  N1  UNL     1      35.834  54.092  18.227  1.00  0.00    -0.196 N 
ATOM      4  H1  UNL     1      35.963  54.691  19.043  1.00  0.00     0.184 HD
HETATM    5  C3  UNL     1      36.102  54.572  16.996  1.00  0.00     0.675 A 
HETATM    6  N3  UNL     1      35.929  53.774  15.950  1.00  0.00    -0.202 N 
ATOM      7  H3  UNL     1      36.133  54.140  15.020  1.00  0.00     0.183 HD
HETATM    8  C4  UNL     1      35.494  52.491  16.059  1.00  0.00     0.115 A 
HETATM    9  C5  UNL     1      35.213  51.986  17.309  1.00  0.00    -0.019 A 
ENDROOT
BRANCH   9  10
HETATM   10  C6  UNL     1      34.710  50.634  17.529  1.00  0.00     0.043 C 
BRANCH  10  11
HETATM   11  C7  UNL     1      34.666  49.766  16.313  1.00  0.00     0.032 C 
BRANCH  11  12
HETATM   12  C8  UNL     1      34.317  48.363  16.792  1.00  0.00     0.230 C 
BRANCH  12  13
HETATM   13  N4  UNL     1      34.767  48.053  18.103  1.00  0.00    -0.079 N 
ATOM     14  H43 UNL     1      35.771  47.875  18.100  1.00  0.00     0.274 HD
ATOM     15  H42 UNL     1      34.737  48.885  18.693  1.00  0.00     0.274 HD
ATOM     16  H41 UNL     1      34.273  47.283  18.553  1.00  0.00     0.274 HD
ENDBRANCH  12  13
ENDBRANCH  11  12
ENDBRANCH  10  11
ENDBRANCH   9  10
BRANCH   5  17
HETATM   17  N2  UNL     1      36.523  55.805  16.854  1.00  0.00    -0.234 N 
ATOM     18  H22 UNL     1      36.039  56.587  17.297  1.00  0.00     0.174 HD
ATOM     19  H21 UNL     1      37.351  55.997  16.290  1.00  0.00     0.174 HD
ENDBRANCH   5  17
TORSDOF 5
ENDMDL
