MODEL 1
REMARK VINA RESULT: -7.931157606      0.000      0.000
REMARK  6 active torsions:
REMARK  status: ('A' for Active; 'I' for Inactive)
REMARK    1  A    between atoms: C3_3  and  N1_4 
REMARK    2  A    between atoms: N2_12  and  C10_13 
REMARK    3  A    between atoms: C10_13  and  C11_14 
REMARK    4  A    between atoms: C11_14  and  C14_17 
REMARK    5  A    between atoms: C14_17  and  N3_18 
REMARK       I    between atoms: N3_18  and  C15_20 
REMARK       I    between atoms: C15_20  and  N4_22 
REMARK    6  A    between atoms: C20_27  and  O3_28 
ROOT
HETATM    1  N3  UNL     1      21.598  10.328  32.861  1.00  0.00    -0.342 N 
ATOM      2  H3  UNL     1      21.877  11.308  32.797  1.00  0.00     0.164 HD
HETATM    3  C15 UNL     1      22.043   9.397  31.883  1.00  0.00     0.319 C 
HETATM    4  O2  UNL     1      21.661   8.180  32.014  1.00  0.00    -0.247 OA
HETATM    5  N4  UNL     1      22.864   9.695  30.788  1.00  0.00    -0.322 N 
HETATM    6  C16 UNL     1      23.277   8.690  29.854  1.00  0.00     0.090 C 
HETATM    7  C17 UNL     1      23.712   7.395  30.422  1.00  0.00     0.033 C 
HETATM    8  C18 UNL     1      24.274   9.334  28.914  1.00  0.00     0.019 C 
HETATM    9  C19 UNL     1      23.448  10.361  28.127  1.00  0.00     0.041 C 
HETATM   10  C20 UNL     1      22.927  11.361  29.108  1.00  0.00     0.142 C 
HETATM   11  C21 UNL     1      23.322  11.040  30.549  1.00  0.00     0.126 C 
HETATM   12  C22 UNL     1      24.846  11.012  30.679  1.00  0.00    -0.017 C 
HETATM   13  C23 UNL     1      25.423  12.406  30.576  1.00  0.00     0.018 C 
HETATM   14  C24 UNL     1      25.141  10.569  32.099  1.00  0.00     0.018 C 
HETATM   15  C25 UNL     1      25.378  10.078  29.649  1.00  0.00    -0.033 C 
HETATM   16  C26 UNL     1      26.220  10.762  28.581  1.00  0.00     0.016 C 
HETATM   17  C27 UNL     1      26.321   9.052  30.274  1.00  0.00     0.016 C 
ENDROOT
BRANCH   1  18
HETATM   18  C14 UNL     1      20.762   9.890  33.930  1.00  0.00     0.134 C 
BRANCH  18  19
HETATM   19  C11 UNL     1      20.154  11.055  34.724  1.00  0.00    -0.015 C 
HETATM   20  C12 UNL     1      20.197  10.690  36.168  1.00  0.00     0.018 C 
HETATM   21  C13 UNL     1      21.011  12.282  34.419  1.00  0.00     0.018 C 
BRANCH  19  22
HETATM   22  C10 UNL     1      18.795  11.283  34.170  1.00  0.00     0.136 C 
BRANCH  22  23
HETATM   23  N2  UNL     1      18.100  12.466  34.506  1.00  0.00    -0.345 N 
HETATM   24  C2  UNL     1      17.897  13.608  33.601  1.00  0.00     0.117 C 
HETATM   25  C1  UNL     1      16.525  13.666  33.017  1.00  0.00     0.034 C 
HETATM   26  C3  UNL     1      18.106  14.774  34.589  1.00  0.00     0.254 C 
HETATM   27  C8  UNL     1      17.256  14.287  35.721  1.00  0.00     0.141 C 
HETATM   28  C9  UNL     1      17.493  12.828  35.750  1.00  0.00     0.222 C 
HETATM   29  O1  UNL     1      17.197  12.084  36.720  1.00  0.00    -0.273 OA
BRANCH  26  30
HETATM   30  N1  UNL     1      17.654  15.970  33.960  1.00  0.00     0.095 N 
HETATM   31  C4  UNL     1      18.402  16.144  32.729  1.00  0.00     0.273 C 
HETATM   32  C5  UNL     1      18.148  17.562  32.343  1.00  0.00     0.032 C 
HETATM   33  C6  UNL     1      17.624  18.227  33.615  1.00  0.00     0.032 C 
HETATM   34  C7  UNL     1      17.944  17.169  34.683  1.00  0.00     0.273 C 
ENDBRANCH  26  30
ENDBRANCH  22  23
ENDBRANCH  19  22
ENDBRANCH  18  19
ENDBRANCH   1  18
BRANCH  10  35
HETATM   35  O3  UNL     1      23.169  12.680  28.776  1.00  0.00    -0.393 OA
ATOM     36  H3  UNL     1      23.091  13.293  29.498  1.00  0.00     0.210 HD
ENDBRANCH  10  35
TORSDOF 6
ENDMDL
MODEL 2
REMARK VINA RESULT: -7.490397863      4.605      8.357
REMARK  6 active torsions:
REMARK  status: ('A' for Active; 'I' for Inactive)
REMARK    1  A    between atoms: C3_3  and  N1_4 
REMARK    2  A    between atoms: N2_12  and  C10_13 
REMARK    3  A    between atoms: C10_13  and  C11_14 
REMARK    4  A    between atoms: C11_14  and  C14_17 
REMARK    5  A    between atoms: C14_17  and  N3_18 
REMARK       I    between atoms: N3_18  and  C15_20 
REMARK       I    between atoms: C15_20  and  N4_22 
REMARK    6  A    between atoms: C20_27  and  O3_28 
ROOT
HETATM    1  N3  UNL     1      26.286  13.457  27.900  1.00  0.00    -0.342 N 
ATOM      2  H3  UNL     1      26.930  12.683  28.061  1.00  0.00     0.164 HD
HETATM    3  C15 UNL     1      26.649  14.517  27.025  1.00  0.00     0.319 C 
HETATM    4  O2  UNL     1      25.799  15.462  26.862  1.00  0.00    -0.247 OA
HETATM    5  N4  UNL     1      27.858  14.616  26.324  1.00  0.00    -0.322 N 
HETATM    6  C16 UNL     1      28.139  15.716  25.449  1.00  0.00     0.090 C 
HETATM    7  C17 UNL     1      27.045  16.146  24.552  1.00  0.00     0.033 C 
HETATM    8  C18 UNL     1      29.446  15.409  24.750  1.00  0.00     0.019 C 
HETATM    9  C19 UNL     1      30.497  15.449  25.868  1.00  0.00     0.041 C 
HETATM   10  C20 UNL     1      30.153  14.368  26.842  1.00  0.00     0.142 C 
HETATM   11  C21 UNL     1      28.881  13.611  26.464  1.00  0.00     0.126 C 
HETATM   12  C22 UNL     1      29.047  12.962  25.089  1.00  0.00    -0.017 C 
HETATM   13  C23 UNL     1      30.010  11.798  25.153  1.00  0.00     0.018 C 
HETATM   14  C24 UNL     1      27.705  12.345  24.748  1.00  0.00     0.018 C 
HETATM   15  C25 UNL     1      29.468  14.020  24.129  1.00  0.00    -0.033 C 
HETATM   16  C26 UNL     1      30.872  13.819  23.576  1.00  0.00     0.016 C 
HETATM   17  C27 UNL     1      28.572  14.027  22.893  1.00  0.00     0.016 C 
ENDROOT
BRANCH   1  18
HETATM   18  C14 UNL     1      25.017  13.479  28.553  1.00  0.00     0.134 C 
BRANCH  18  19
HETATM   19  C11 UNL     1      24.796  12.261  29.461  1.00  0.00    -0.015 C 
HETATM   20  C12 UNL     1      25.348  11.068  28.760  1.00  0.00     0.018 C 
HETATM   21  C13 UNL     1      25.538  12.551  30.765  1.00  0.00     0.018 C 
BRANCH  19  22
HETATM   22  C10 UNL     1      23.342  12.205  29.752  1.00  0.00     0.136 C 
BRANCH  22  23
HETATM   23  N2  UNL     1      22.890  11.520  30.901  1.00  0.00    -0.345 N 
HETATM   24  C2  UNL     1      23.058  10.078  31.141  1.00  0.00     0.117 C 
HETATM   25  C1  UNL     1      24.154   9.760  32.102  1.00  0.00     0.034 C 
HETATM   26  C3  UNL     1      21.687   9.748  31.768  1.00  0.00     0.254 C 
HETATM   27  C8  UNL     1      21.592  10.877  32.746  1.00  0.00     0.141 C 
HETATM   28  C9  UNL     1      22.168  12.032  32.026  1.00  0.00     0.222 C 
HETATM   29  O1  UNL     1      22.020  13.229  32.380  1.00  0.00    -0.273 OA
BRANCH  26  30
HETATM   30  N1  UNL     1      21.768   8.448  32.344  1.00  0.00     0.095 N 
HETATM   31  C4  UNL     1      22.227   7.528  31.321  1.00  0.00     0.273 C 
HETATM   32  C5  UNL     1      21.928   6.178  31.881  1.00  0.00     0.032 C 
HETATM   33  C6  UNL     1      20.918   6.433  33.000  1.00  0.00     0.032 C 
HETATM   34  C7  UNL     1      20.511   7.890  32.735  1.00  0.00     0.273 C 
ENDBRANCH  26  30
ENDBRANCH  22  23
ENDBRANCH  19  22
ENDBRANCH  18  19
ENDBRANCH   1  18
BRANCH  10  35
HETATM   35  O3  UNL     1      31.198  13.519  27.157  1.00  0.00    -0.393 OA
ATOM     36  H3  UNL     1      31.542  13.622  28.037  1.00  0.00     0.210 HD
ENDBRANCH  10  35
TORSDOF 6
ENDMDL
MODEL 3
REMARK VINA RESULT: -7.417002631      4.195      7.613
REMARK  6 active torsions:
REMARK  status: ('A' for Active; 'I' for Inactive)
REMARK    1  A    between atoms: C3_3  and  N1_4 
REMARK    2  A    between atoms: N2_12  and  C10_13 
REMARK    3  A    between atoms: C10_13  and  C11_14 
REMARK    4  A    between atoms: C11_14  and  C14_17 
REMARK    5  A    between atoms: C14_17  and  N3_18 
REMARK       I    between atoms: N3_18  and  C15_20 
REMARK       I    between atoms: C15_20  and  N4_22 
REMARK    6  A    between atoms: C20_27  and  O3_28 
ROOT
HETATM    1  N3  UNL     1      26.431  11.037  28.764  1.00  0.00    -0.342 N 
ATOM      2  H3  UNL     1      26.758  10.625  29.639  1.00  0.00     0.164 HD
HETATM    3  C15 UNL     1      27.351  11.303  27.715  1.00  0.00     0.319 C 
HETATM    4  O2  UNL     1      26.883  11.821  26.640  1.00  0.00    -0.247 OA
HETATM    5  N4  UNL     1      28.728  11.049  27.754  1.00  0.00    -0.322 N 
HETATM    6  C16 UNL     1      29.585  11.337  26.642  1.00  0.00     0.090 C 
HETATM    7  C17 UNL     1      29.082  10.964  25.302  1.00  0.00     0.033 C 
HETATM    8  C18 UNL     1      30.955  10.788  26.978  1.00  0.00     0.019 C 
HETATM    9  C19 UNL     1      31.438  11.654  28.149  1.00  0.00     0.041 C 
HETATM   10  C20 UNL     1      30.490  11.437  29.285  1.00  0.00     0.142 C 
HETATM   11  C21 UNL     1      29.345  10.489  28.929  1.00  0.00     0.126 C 
HETATM   12  C22 UNL     1      29.903   9.125  28.523  1.00  0.00    -0.017 C 
HETATM   13  C23 UNL     1      30.461   8.390  29.721  1.00  0.00     0.018 C 
HETATM   14  C24 UNL     1      28.714   8.299  28.074  1.00  0.00     0.018 C 
HETATM   15  C25 UNL     1      30.909   9.342  27.446  1.00  0.00    -0.033 C 
HETATM   16  C26 UNL     1      32.329   8.976  27.855  1.00  0.00     0.016 C 
HETATM   17  C27 UNL     1      30.622   8.450  26.240  1.00  0.00     0.016 C 
ENDROOT
BRANCH   1  18
HETATM   18  C14 UNL     1      25.049  11.345  28.592  1.00  0.00     0.134 C 
BRANCH  18  19
HETATM   19  C11 UNL     1      24.579  12.490  29.501  1.00  0.00    -0.015 C 
HETATM   20  C12 UNL     1      25.467  12.512  30.697  1.00  0.00     0.018 C 
HETATM   21  C13 UNL     1      24.696  13.773  28.679  1.00  0.00     0.018 C 
BRANCH  19  22
HETATM   22  C10 UNL     1      23.142  12.246  29.785  1.00  0.00     0.136 C 
BRANCH  22  23
HETATM   23  N2  UNL     1      22.778  11.512  30.936  1.00  0.00    -0.345 N 
HETATM   24  C2  UNL     1      23.020  10.074  31.128  1.00  0.00     0.117 C 
HETATM   25  C1  UNL     1      24.176   9.780  32.025  1.00  0.00     0.034 C 
HETATM   26  C3  UNL     1      21.697   9.668  31.812  1.00  0.00     0.254 C 
HETATM   27  C8  UNL     1      21.603  10.767  32.825  1.00  0.00     0.141 C 
HETATM   28  C9  UNL     1      22.093  11.964  32.109  1.00  0.00     0.222 C 
HETATM   29  O1  UNL     1      21.912  13.144  32.501  1.00  0.00    -0.273 OA
BRANCH  26  30
HETATM   30  N1  UNL     1      21.862   8.360  32.349  1.00  0.00     0.095 N 
HETATM   31  C4  UNL     1      22.344   7.494  31.288  1.00  0.00     0.273 C 
HETATM   32  C5  UNL     1      22.131   6.115  31.815  1.00  0.00     0.032 C 
HETATM   33  C6  UNL     1      21.138   6.284  32.965  1.00  0.00     0.032 C 
HETATM   34  C7  UNL     1      20.647   7.724  32.754  1.00  0.00     0.273 C 
ENDBRANCH  26  30
ENDBRANCH  22  23
ENDBRANCH  19  22
ENDBRANCH  18  19
ENDBRANCH   1  18
BRANCH  10  35
HETATM   35  O3  UNL     1      31.090  11.112  30.487  1.00  0.00    -0.393 OA
ATOM     36  H3  UNL     1      30.579  10.537  31.044  1.00  0.00     0.210 HD
ENDBRANCH  10  35
TORSDOF 6
ENDMDL
MODEL 4
REMARK VINA RESULT: -7.380033797      4.898      9.176
REMARK  6 active torsions:
REMARK  status: ('A' for Active; 'I' for Inactive)
REMARK    1  A    between atoms: C3_3  and  N1_4 
REMARK    2  A    between atoms: N2_12  and  C10_13 
REMARK    3  A    between atoms: C10_13  and  C11_14 
REMARK    4  A    between atoms: C11_14  and  C14_17 
REMARK    5  A    between atoms: C14_17  and  N3_18 
REMARK       I    between atoms: N3_18  and  C15_20 
REMARK       I    between atoms: C15_20  and  N4_22 
REMARK    6  A    between atoms: C20_27  and  O3_28 
ROOT
HETATM    1  N3  UNL     1      28.510  10.934  26.872  1.00  0.00    -0.342 N 
ATOM      2  H3  UNL     1      28.738  11.637  27.576  1.00  0.00     0.164 HD
HETATM    3  C15 UNL     1      28.404  11.306  25.504  1.00  0.00     0.319 C 
HETATM    4  O2  UNL     1      28.115  10.382  24.665  1.00  0.00    -0.247 OA
HETATM    5  N4  UNL     1      28.589  12.597  24.994  1.00  0.00    -0.322 N 
HETATM    6  C16 UNL     1      28.476  12.884  23.594  1.00  0.00     0.090 C 
HETATM    7  C17 UNL     1      29.111  11.922  22.667  1.00  0.00     0.033 C 
HETATM    8  C18 UNL     1      28.896  14.324  23.396  1.00  0.00     0.019 C 
HETATM    9  C19 UNL     1      27.809  15.141  24.107  1.00  0.00     0.041 C 
HETATM   10  C20 UNL     1      27.850  14.774  25.556  1.00  0.00     0.142 C 
HETATM   11  C21 UNL     1      28.895  13.702  25.867  1.00  0.00     0.126 C 
HETATM   12  C22 UNL     1      30.287  14.199  25.472  1.00  0.00    -0.017 C 
HETATM   13  C23 UNL     1      30.763  15.280  26.417  1.00  0.00     0.018 C 
HETATM   14  C24 UNL     1      31.230  13.034  25.700  1.00  0.00     0.018 C 
HETATM   15  C25 UNL     1      30.231  14.642  24.052  1.00  0.00    -0.033 C 
HETATM   16  C26 UNL     1      30.455  16.137  23.869  1.00  0.00     0.016 C 
HETATM   17  C27 UNL     1      31.342  13.991  23.231  1.00  0.00     0.016 C 
ENDROOT
BRANCH   1  18
HETATM   18  C14 UNL     1      28.296   9.578  27.258  1.00  0.00     0.134 C 
BRANCH  18  19
HETATM   19  C11 UNL     1      28.173   9.406  28.778  1.00  0.00    -0.015 C 
HETATM   20  C12 UNL     1      27.255   8.259  29.031  1.00  0.00     0.018 C 
HETATM   21  C13 UNL     1      29.582   9.134  29.301  1.00  0.00     0.018 C 
BRANCH  19  22
HETATM   22  C10 UNL     1      27.716  10.711  29.319  1.00  0.00     0.136 C 
BRANCH  22  23
HETATM   23  N2  UNL     1      26.344  10.908  29.590  1.00  0.00    -0.345 N 
HETATM   24  C2  UNL     1      25.717  10.756  30.912  1.00  0.00     0.117 C 
HETATM   25  C1  UNL     1      25.434  12.056  31.588  1.00  0.00     0.034 C 
HETATM   26  C3  UNL     1      24.397  10.067  30.507  1.00  0.00     0.254 C 
HETATM   27  C8  UNL     1      24.010  10.946  29.358  1.00  0.00     0.141 C 
HETATM   28  C9  UNL     1      25.290  11.247  28.683  1.00  0.00     0.222 C 
HETATM   29  O1  UNL     1      25.381  11.715  27.520  1.00  0.00    -0.273 OA
BRANCH  26  30
HETATM   30  N1  UNL     1      23.518  10.106  31.626  1.00  0.00     0.095 N 
HETATM   31  C4  UNL     1      22.834   8.829  31.709  1.00  0.00     0.273 C 
HETATM   32  C5  UNL     1      21.697   9.082  32.641  1.00  0.00     0.032 C 
HETATM   33  C6  UNL     1      21.557  10.604  32.685  1.00  0.00     0.032 C 
HETATM   34  C7  UNL     1      22.441  11.039  31.506  1.00  0.00     0.273 C 
ENDBRANCH  26  30
ENDBRANCH  22  23
ENDBRANCH  19  22
ENDBRANCH  18  19
ENDBRANCH   1  18
BRANCH  10  35
HETATM   35  O3  UNL     1      27.922  15.847  26.424  1.00  0.00    -0.393 OA
ATOM     36  H3  UNL     1      27.510  15.705  27.268  1.00  0.00     0.210 HD
ENDBRANCH  10  35
TORSDOF 6
ENDMDL
MODEL 5
REMARK VINA RESULT: -7.377338676      3.361      6.209
REMARK  6 active torsions:
REMARK  status: ('A' for Active; 'I' for Inactive)
REMARK    1  A    between atoms: C3_3  and  N1_4 
REMARK    2  A    between atoms: N2_12  and  C10_13 
REMARK    3  A    between atoms: C10_13  and  C11_14 
REMARK    4  A    between atoms: C11_14  and  C14_17 
REMARK    5  A    between atoms: C14_17  and  N3_18 
REMARK       I    between atoms: N3_18  and  C15_20 
REMARK       I    between atoms: C15_20  and  N4_22 
REMARK    6  A    between atoms: C20_27  and  O3_28 
ROOT
HETATM    1  N3  UNL     1      26.585  10.429  30.155  1.00  0.00    -0.342 N 
ATOM      2  H3  UNL     1      26.724   9.613  30.752  1.00  0.00     0.164 HD
HETATM    3  C15 UNL     1      27.414  10.629  29.018  1.00  0.00     0.319 C 
HETATM    4  O2  UNL     1      27.192  11.672  28.306  1.00  0.00    -0.247 OA
HETATM    5  N4  UNL     1      28.452   9.784  28.608  1.00  0.00    -0.322 N 
HETATM    6  C16 UNL     1      29.234  10.054  27.437  1.00  0.00     0.090 C 
HETATM    7  C17 UNL     1      28.495  10.499  26.235  1.00  0.00     0.033 C 
HETATM    8  C18 UNL     1      30.139   8.861  27.216  1.00  0.00     0.019 C 
HETATM    9  C19 UNL     1      31.102   8.886  28.411  1.00  0.00     0.041 C 
HETATM   10  C20 UNL     1      30.284   8.706  29.649  1.00  0.00     0.142 C 
HETATM   11  C21 UNL     1      28.787   8.602  29.360  1.00  0.00     0.126 C 
HETATM   12  C22 UNL     1      28.513   7.408  28.444  1.00  0.00    -0.017 C 
HETATM   13  C23 UNL     1      28.707   6.103  29.183  1.00  0.00     0.018 C 
HETATM   14  C24 UNL     1      27.033   7.458  28.116  1.00  0.00     0.018 C 
HETATM   15  C25 UNL     1      29.386   7.540  27.244  1.00  0.00    -0.033 C 
HETATM   16  C26 UNL     1      30.436   6.444  27.130  1.00  0.00     0.016 C 
HETATM   17  C27 UNL     1      28.571   7.418  25.958  1.00  0.00     0.016 C 
ENDROOT
BRANCH   1  18
HETATM   18  C14 UNL     1      25.558  11.372  30.460  1.00  0.00     0.134 C 
BRANCH  18  19
HETATM   19  C11 UNL     1      24.164  10.732  30.518  1.00  0.00    -0.015 C 
HETATM   20  C12 UNL     1      23.249  11.562  29.685  1.00  0.00     0.018 C 
HETATM   21  C13 UNL     1      24.312   9.316  29.964  1.00  0.00     0.018 C 
BRANCH  19  22
HETATM   22  C10 UNL     1      23.799  10.637  31.954  1.00  0.00     0.136 C 
BRANCH  22  23
HETATM   23  N2  UNL     1      22.440  10.712  32.331  1.00  0.00    -0.345 N 
HETATM   24  C2  UNL     1      21.831  11.832  33.066  1.00  0.00     0.117 C 
HETATM   25  C1  UNL     1      21.033  12.747  32.199  1.00  0.00     0.034 C 
HETATM   26  C3  UNL     1      20.900  11.054  34.019  1.00  0.00     0.254 C 
HETATM   27  C8  UNL     1      20.286  10.107  33.036  1.00  0.00     0.141 C 
HETATM   28  C9  UNL     1      21.398   9.751  32.130  1.00  0.00     0.222 C 
HETATM   29  O1  UNL     1      21.382   8.770  31.344  1.00  0.00    -0.273 OA
BRANCH  26  30
HETATM   30  N1  UNL     1      20.000  11.984  34.612  1.00  0.00     0.095 N 
HETATM   31  C4  UNL     1      19.550  11.435  35.878  1.00  0.00     0.273 C 
HETATM   32  C5  UNL     1      18.362  12.263  36.236  1.00  0.00     0.032 C 
HETATM   33  C6  UNL     1      17.955  12.949  34.932  1.00  0.00     0.032 C 
HETATM   34  C7  UNL     1      18.778  12.172  33.893  1.00  0.00     0.273 C 
ENDBRANCH  26  30
ENDBRANCH  22  23
ENDBRANCH  19  22
ENDBRANCH  18  19
ENDBRANCH   1  18
BRANCH  10  35
HETATM   35  O3  UNL     1      30.728   7.709  30.497  1.00  0.00    -0.393 OA
ATOM     36  H3  UNL     1      30.530   7.851  31.415  1.00  0.00     0.210 HD
ENDBRANCH  10  35
TORSDOF 6
ENDMDL
