MODEL 1
REMARK VINA RESULT: -8.412387299      0.000      0.000
REMARK  9 active torsions:
REMARK  status: ('A' for Active; 'I' for Inactive)
REMARK    1  A    between atoms: C2_2  and  N1_3 
REMARK    2  A    between atoms: C10_11  and  C11_12 
REMARK    3  A    between atoms: C11_12  and  C12_13 
REMARK    4  A    between atoms: C12_13  and  C13_14 
REMARK    5  A    between atoms: N2_17  and  C16_18 
REMARK    6  A    between atoms: N4_26  and  C21_27 
REMARK    7  A    between atoms: C21_27  and  O1_28 
REMARK    8  A    between atoms: C21_27  and  N5_30 
REMARK    9  A    between atoms: N5_30  and  C22_32 
ROOT
HETATM    1  N1  UNL     1      25.069  12.609  28.952  1.00  0.00    -0.387 N 
HETATM    2  C3  UNL     1      25.050  11.306  28.381  1.00  0.00     0.147 C 
HETATM    3  C4  UNL     1      25.290  10.195  29.306  1.00  0.00     0.107 C 
HETATM    4  C5  UNL     1      26.146  10.501  30.513  1.00  0.00     0.032 C 
HETATM    5  C6  UNL     1      25.411  11.154  31.636  1.00  0.00    -0.008 C 
HETATM    6  C7  UNL     1      25.169  12.629  31.385  1.00  0.00     0.030 C 
HETATM    7  C8  UNL     1      24.320  12.745  30.161  1.00  0.00     0.086 C 
HETATM    8  C9  UNL     1      23.143  11.863  30.114  1.00  0.00     0.056 C 
HETATM    9  C10 UNL     1      23.293  10.453  30.642  1.00  0.00     0.038 C 
HETATM   10  C20 UNL     1      24.092  10.542  31.973  1.00  0.00     0.036 C 
HETATM   11  N4  UNL     1      24.046   9.555  29.849  1.00  0.00    -0.332 N 
ENDROOT
BRANCH   9  12
HETATM   12  C11 UNL     1      21.919  10.067  31.085  1.00  0.00     0.032 C 
BRANCH  12  13
HETATM   13  C12 UNL     1      21.794   9.739  32.552  1.00  0.00     0.007 C 
BRANCH  13  14
HETATM   14  C13 UNL     1      20.831  10.715  33.189  1.00  0.00    -0.011 C 
HETATM   15  C14 UNL     1      21.302  12.144  33.065  1.00  0.00     0.024 C 
HETATM   16  C15 UNL     1      20.136  13.057  33.368  1.00  0.00     0.124 C 
HETATM   17  N2  UNL     1      19.271  12.396  34.312  1.00  0.00    -0.371 N 
HETATM   18  C18 UNL     1      19.810  11.511  35.319  1.00  0.00     0.124 C 
HETATM   19  C19 UNL     1      20.661  10.426  34.674  1.00  0.00     0.024 C 
BRANCH  17  20
HETATM   20  C16 UNL     1      17.878  12.607  34.250  1.00  0.00     0.068 C 
HETATM   21  C17 UNL     1      17.177  13.260  33.112  1.00  0.00     0.088 C 
HETATM   22  N3  UNL     1      17.140  12.206  35.250  1.00  0.00    -0.389 N 
ATOM     23  H32 UNL     1      17.620  11.758  36.030  1.00  0.00     0.157 HD
ATOM     24  H31 UNL     1      16.132  12.359  35.205  1.00  0.00     0.157 HD
ENDBRANCH  17  20
ENDBRANCH  13  14
ENDBRANCH  12  13
ENDBRANCH   9  12
BRANCH  11  25
HETATM   25  C21 UNL     1      23.857   8.219  29.501  1.00  0.00     0.216 C 
BRANCH  25  26
HETATM   26  O1  UNL     1      23.713   8.037  28.202  1.00  0.00    -0.333 OA
ATOM     27  H1  UNL     1      23.265   7.227  27.986  1.00  0.00     0.220 HD
ENDBRANCH  25  26
BRANCH  25  28
HETATM   28  N5  UNL     1      23.788   7.033  30.201  1.00  0.00    -0.352 N 
ATOM     29  H5  UNL     1      23.390   7.063  31.140  1.00  0.00     0.163 HD
BRANCH  28  30
HETATM   30  C22 UNL     1      24.241   5.733  29.702  1.00  0.00     0.088 C 
HETATM   31  C23 UNL     1      25.708   5.684  29.452  1.00  0.00     0.055 C 
HETATM   32  C24 UNL     1      26.246   4.334  29.842  1.00  0.00     0.274 C 
HETATM   33  N6  UNL     1      26.049   3.967  31.202  1.00  0.00     0.084 N 
HETATM   34  C25 UNL     1      27.181   4.123  32.064  1.00  0.00     0.309 C 
HETATM   35  C26 UNL     1      24.852   4.523  31.745  1.00  0.00     0.274 C 
HETATM   36  C27 UNL     1      23.845   4.610  30.618  1.00  0.00     0.055 C 
ENDBRANCH  28  30
ENDBRANCH  25  28
ENDBRANCH  11  25
BRANCH   1  37
HETATM   37  C2  UNL     1      25.078  13.716  28.083  1.00  0.00     0.054 C 
HETATM   38  C1  UNL     1      26.371  13.845  27.334  1.00  0.00     0.054 C 
ENDBRANCH   1  37
TORSDOF 9
ENDMDL
MODEL 2
REMARK VINA RESULT: -7.899108171      0.808      1.236
REMARK  9 active torsions:
REMARK  status: ('A' for Active; 'I' for Inactive)
REMARK    1  A    between atoms: C2_2  and  N1_3 
REMARK    2  A    between atoms: C10_11  and  C11_12 
REMARK    3  A    between atoms: C11_12  and  C12_13 
REMARK    4  A    between atoms: C12_13  and  C13_14 
REMARK    5  A    between atoms: N2_17  and  C16_18 
REMARK    6  A    between atoms: N4_26  and  C21_27 
REMARK    7  A    between atoms: C21_27  and  O1_28 
REMARK    8  A    between atoms: C21_27  and  N5_30 
REMARK    9  A    between atoms: N5_30  and  C22_32 
ROOT
HETATM    1  N1  UNL     1      24.888  12.966  29.265  1.00  0.00    -0.387 N 
HETATM    2  C3  UNL     1      24.805  11.863  28.370  1.00  0.00     0.147 C 
HETATM    3  C4  UNL     1      25.162  10.555  28.926  1.00  0.00     0.107 C 
HETATM    4  C5  UNL     1      26.159  10.559  30.063  1.00  0.00     0.032 C 
HETATM    5  C6  UNL     1      25.563  10.860  31.398  1.00  0.00    -0.008 C 
HETATM    6  C7  UNL     1      25.286  12.338  31.584  1.00  0.00     0.030 C 
HETATM    7  C8  UNL     1      24.292  12.745  30.545  1.00  0.00     0.086 C 
HETATM    8  C9  UNL     1      23.123  11.863  30.400  1.00  0.00     0.056 C 
HETATM    9  C10 UNL     1      23.343  10.371  30.506  1.00  0.00     0.038 C 
HETATM   10  C20 UNL     1      24.299  10.131  31.709  1.00  0.00     0.036 C 
HETATM   11  N4  UNL     1      23.998   9.747  29.418  1.00  0.00    -0.332 N 
ENDROOT
BRANCH   9  12
HETATM   12  C11 UNL     1      22.036   9.829  30.986  1.00  0.00     0.032 C 
BRANCH  12  13
HETATM   13  C12 UNL     1      21.974   9.536  32.464  1.00  0.00     0.007 C 
BRANCH  13  14
HETATM   14  C13 UNL     1      21.033  10.523  33.118  1.00  0.00    -0.011 C 
HETATM   15  C14 UNL     1      21.578  11.931  33.096  1.00  0.00     0.024 C 
HETATM   16  C15 UNL     1      20.447  12.884  33.405  1.00  0.00     0.124 C 
HETATM   17  N2  UNL     1      19.509  12.216  34.272  1.00  0.00    -0.371 N 
HETATM   18  C18 UNL     1      19.959  11.250  35.247  1.00  0.00     0.124 C 
HETATM   19  C19 UNL     1      20.784  10.160  34.575  1.00  0.00     0.024 C 
BRANCH  17  20
HETATM   20  C16 UNL     1      18.132  12.502  34.165  1.00  0.00     0.068 C 
HETATM   21  C17 UNL     1      17.507  13.209  33.015  1.00  0.00     0.088 C 
HETATM   22  N3  UNL     1      17.339  12.125  35.132  1.00  0.00    -0.389 N 
ATOM     23  H32 UNL     1      17.767  11.640  35.920  1.00  0.00     0.157 HD
ATOM     24  H31 UNL     1      16.343  12.331  35.054  1.00  0.00     0.157 HD
ENDBRANCH  17  20
ENDBRANCH  13  14
ENDBRANCH  12  13
ENDBRANCH   9  12
BRANCH  11  25
HETATM   25  C21 UNL     1      23.773   8.546  28.747  1.00  0.00     0.216 C 
BRANCH  25  26
HETATM   26  O1  UNL     1      23.039   8.688  27.660  1.00  0.00    -0.333 OA
ATOM     27  H1  UNL     1      22.353   9.339  27.756  1.00  0.00     0.220 HD
ENDBRANCH  25  26
BRANCH  25  28
HETATM   28  N5  UNL     1      24.146   7.234  28.951  1.00  0.00    -0.352 N 
ATOM     29  H5  UNL     1      23.852   6.548  28.255  1.00  0.00     0.163 HD
BRANCH  28  30
HETATM   30  C22 UNL     1      24.928   6.749  30.089  1.00  0.00     0.088 C 
HETATM   31  C23 UNL     1      24.662   5.319  30.412  1.00  0.00     0.055 C 
HETATM   32  C24 UNL     1      25.941   4.645  30.830  1.00  0.00     0.274 C 
HETATM   33  N6  UNL     1      26.984   4.660  29.862  1.00  0.00     0.084 N 
HETATM   34  C25 UNL     1      27.165   3.451  29.117  1.00  0.00     0.309 C 
HETATM   35  C26 UNL     1      26.942   5.825  29.039  1.00  0.00     0.274 C 
HETATM   36  C27 UNL     1      26.402   6.956  29.887  1.00  0.00     0.055 C 
ENDBRANCH  28  30
ENDBRANCH  25  28
ENDBRANCH  11  25
BRANCH   1  37
HETATM   37  C2  UNL     1      24.785  14.264  28.732  1.00  0.00     0.054 C 
HETATM   38  C1  UNL     1      25.497  14.402  27.420  1.00  0.00     0.054 C 
ENDBRANCH   1  37
TORSDOF 9
ENDMDL
MODEL 3
REMARK VINA RESULT: -7.491238880      3.369      6.761
REMARK  9 active torsions:
REMARK  status: ('A' for Active; 'I' for Inactive)
REMARK    1  A    between atoms: C2_2  and  N1_3 
REMARK    2  A    between atoms: C10_11  and  C11_12 
REMARK    3  A    between atoms: C11_12  and  C12_13 
REMARK    4  A    between atoms: C12_13  and  C13_14 
REMARK    5  A    between atoms: N2_17  and  C16_18 
REMARK    6  A    between atoms: N4_26  and  C21_27 
REMARK    7  A    between atoms: C21_27  and  O1_28 
REMARK    8  A    between atoms: C21_27  and  N5_30 
REMARK    9  A    between atoms: N5_30  and  C22_32 
ROOT
HETATM    1  N1  UNL     1      24.665  12.540  29.241  1.00  0.00    -0.387 N 
HETATM    2  C3  UNL     1      25.822  11.793  28.881  1.00  0.00     0.147 C 
HETATM    3  C4  UNL     1      26.251  10.772  29.840  1.00  0.00     0.107 C 
HETATM    4  C5  UNL     1      25.914  11.030  31.291  1.00  0.00     0.032 C 
HETATM    5  C6  UNL     1      24.517  10.664  31.668  1.00  0.00    -0.008 C 
HETATM    6  C7  UNL     1      23.507  11.696  31.209  1.00  0.00     0.030 C 
HETATM    7  C8  UNL     1      23.570  11.756  29.718  1.00  0.00     0.086 C 
HETATM    8  C9  UNL     1      23.553  10.457  29.025  1.00  0.00     0.056 C 
HETATM    9  C10 UNL     1      24.333   9.317  29.640  1.00  0.00     0.038 C 
HETATM   10  C20 UNL     1      24.050   9.337  31.169  1.00  0.00     0.036 C 
HETATM   11  N4  UNL     1      25.744   9.390  29.550  1.00  0.00    -0.332 N 
ENDROOT
BRANCH   9  12
HETATM   12  C11 UNL     1      23.631   8.083  29.172  1.00  0.00     0.032 C 
BRANCH  12  13
HETATM   13  C12 UNL     1      23.160   7.165  30.272  1.00  0.00     0.007 C 
BRANCH  13  14
HETATM   14  C13 UNL     1      24.227   6.125  30.530  1.00  0.00    -0.011 C 
HETATM   15  C14 UNL     1      24.593   5.362  29.279  1.00  0.00     0.024 C 
HETATM   16  C15 UNL     1      25.897   4.639  29.526  1.00  0.00     0.124 C 
HETATM   17  N2  UNL     1      25.977   4.309  30.927  1.00  0.00    -0.371 N 
HETATM   18  C18 UNL     1      24.790   3.989  31.684  1.00  0.00     0.124 C 
HETATM   19  C19 UNL     1      23.761   5.104  31.558  1.00  0.00     0.024 C 
BRANCH  17  20
HETATM   20  C16 UNL     1      27.231   4.305  31.573  1.00  0.00     0.068 C 
HETATM   21  C17 UNL     1      27.520   3.592  32.845  1.00  0.00     0.088 C 
HETATM   22  N3  UNL     1      28.217   4.968  31.028  1.00  0.00    -0.389 N 
ATOM     23  H32 UNL     1      28.019   5.458  30.156  1.00  0.00     0.157 HD
ATOM     24  H31 UNL     1      29.124   4.965  31.495  1.00  0.00     0.157 HD
ENDBRANCH  17  20
ENDBRANCH  13  14
ENDBRANCH  12  13
ENDBRANCH   9  12
BRANCH  11  25
HETATM   25  C21 UNL     1      26.720   8.439  29.264  1.00  0.00     0.216 C 
BRANCH  25  26
HETATM   26  O1  UNL     1      27.346   7.998  30.339  1.00  0.00    -0.333 OA
ATOM     27  H1  UNL     1      26.839   8.102  31.135  1.00  0.00     0.220 HD
ENDBRANCH  25  26
BRANCH  25  28
HETATM   28  N5  UNL     1      27.187   7.841  28.112  1.00  0.00    -0.352 N 
ATOM     29  H5  UNL     1      26.544   7.235  27.602  1.00  0.00     0.163 HD
BRANCH  28  30
HETATM   30  C22 UNL     1      28.534   8.009  27.563  1.00  0.00     0.088 C 
HETATM   31  C23 UNL     1      28.613   7.702  26.108  1.00  0.00     0.055 C 
HETATM   32  C24 UNL     1      29.559   8.659  25.436  1.00  0.00     0.274 C 
HETATM   33  N6  UNL     1      29.215  10.036  25.546  1.00  0.00     0.084 N 
HETATM   34  C25 UNL     1      28.587  10.620  24.400  1.00  0.00     0.309 C 
HETATM   35  C26 UNL     1      28.537  10.328  26.767  1.00  0.00     0.274 C 
HETATM   36  C27 UNL     1      29.078   9.385  27.820  1.00  0.00     0.055 C 
ENDBRANCH  28  30
ENDBRANCH  25  28
ENDBRANCH  11  25
BRANCH   1  37
HETATM   37  C2  UNL     1      24.345  13.679  28.479  1.00  0.00     0.054 C 
HETATM   38  C1  UNL     1      25.434  14.046  27.515  1.00  0.00     0.054 C 
ENDBRANCH   1  37
TORSDOF 9
ENDMDL
MODEL 4
REMARK VINA RESULT: -7.475886758      3.320      6.545
REMARK  9 active torsions:
REMARK  status: ('A' for Active; 'I' for Inactive)
REMARK    1  A    between atoms: C2_2  and  N1_3 
REMARK    2  A    between atoms: C10_11  and  C11_12 
REMARK    3  A    between atoms: C11_12  and  C12_13 
REMARK    4  A    between atoms: C12_13  and  C13_14 
REMARK    5  A    between atoms: N2_17  and  C16_18 
REMARK    6  A    between atoms: N4_26  and  C21_27 
REMARK    7  A    between atoms: C21_27  and  O1_28 
REMARK    8  A    between atoms: C21_27  and  N5_30 
REMARK    9  A    between atoms: N5_30  and  C22_32 
ROOT
HETATM    1  N1  UNL     1      24.421  12.546  29.389  1.00  0.00    -0.387 N 
HETATM    2  C3  UNL     1      25.770  12.105  29.293  1.00  0.00     0.147 C 
HETATM    3  C4  UNL     1      26.203  11.134  30.303  1.00  0.00     0.107 C 
HETATM    4  C5  UNL     1      25.499  11.200  31.639  1.00  0.00     0.032 C 
HETATM    5  C6  UNL     1      24.179  10.504  31.671  1.00  0.00    -0.008 C 
HETATM    6  C7  UNL     1      23.084  11.318  31.011  1.00  0.00     0.030 C 
HETATM    7  C8  UNL     1      23.462  11.504  29.578  1.00  0.00     0.086 C 
HETATM    8  C9  UNL     1      23.904  10.291  28.871  1.00  0.00     0.056 C 
HETATM    9  C10 UNL     1      24.772   9.309  29.626  1.00  0.00     0.038 C 
HETATM   10  C20 UNL     1      24.159   9.149  31.046  1.00  0.00     0.036 C 
HETATM   11  N4  UNL     1      26.109   9.701  29.871  1.00  0.00    -0.332 N 
ENDROOT
BRANCH   9  12
HETATM   12  C11 UNL     1      24.500   7.990  28.979  1.00  0.00     0.032 C 
BRANCH  12  13
HETATM   13  C12 UNL     1      23.655   7.044  29.795  1.00  0.00     0.007 C 
BRANCH  13  14
HETATM   14  C13 UNL     1      24.540   5.948  30.343  1.00  0.00    -0.011 C 
HETATM   15  C14 UNL     1      25.034   5.019  29.259  1.00  0.00     0.024 C 
HETATM   16  C15 UNL     1      26.187   4.213  29.812  1.00  0.00     0.124 C 
HETATM   17  N2  UNL     1      25.984   4.037  31.228  1.00  0.00    -0.371 N 
HETATM   18  C18 UNL     1      24.655   3.913  31.778  1.00  0.00     0.124 C 
HETATM   19  C19 UNL     1      23.792   5.095  31.358  1.00  0.00     0.024 C 
BRANCH  17  20
HETATM   20  C16 UNL     1      27.098   3.993  32.093  1.00  0.00     0.068 C 
HETATM   21  C17 UNL     1      27.104   3.326  33.422  1.00  0.00     0.088 C 
HETATM   22  N3  UNL     1      28.206   4.572  31.715  1.00  0.00    -0.389 N 
ATOM     23  H32 UNL     1      28.202   5.029  30.804  1.00  0.00     0.157 HD
ATOM     24  H31 UNL     1      29.011   4.539  32.340  1.00  0.00     0.157 HD
ENDBRANCH  17  20
ENDBRANCH  13  14
ENDBRANCH  12  13
ENDBRANCH   9  12
BRANCH  11  25
HETATM   25  C21 UNL     1      27.320   9.015  29.800  1.00  0.00     0.216 C 
BRANCH  25  26
HETATM   26  O1  UNL     1      28.354   9.807  29.591  1.00  0.00    -0.333 OA
ATOM     27  H1  UNL     1      28.388  10.543  30.191  1.00  0.00     0.220 HD
ENDBRANCH  25  26
BRANCH  25  28
HETATM   28  N5  UNL     1      27.695   7.691  29.901  1.00  0.00    -0.352 N 
ATOM     29  H5  UNL     1      27.745   7.287  30.836  1.00  0.00     0.163 HD
BRANCH  28  30
HETATM   30  C22 UNL     1      28.027   6.822  28.771  1.00  0.00     0.088 C 
HETATM   31  C23 UNL     1      27.739   7.447  27.450  1.00  0.00     0.055 C 
HETATM   32  C24 UNL     1      28.807   7.065  26.462  1.00  0.00     0.274 C 
HETATM   33  N6  UNL     1      30.131   7.446  26.816  1.00  0.00     0.084 N 
HETATM   34  C25 UNL     1      30.641   8.617  26.170  1.00  0.00     0.309 C 
HETATM   35  C26 UNL     1      30.333   7.453  28.229  1.00  0.00     0.274 C 
HETATM   36  C27 UNL     1      29.458   6.366  28.814  1.00  0.00     0.055 C 
ENDBRANCH  28  30
ENDBRANCH  25  28
ENDBRANCH  11  25
BRANCH   1  37
HETATM   37  C2  UNL     1      24.022  13.641  28.599  1.00  0.00     0.054 C 
HETATM   38  C1  UNL     1      25.140  14.174  27.755  1.00  0.00     0.054 C 
ENDBRANCH   1  37
TORSDOF 9
ENDMDL
MODEL 5
REMARK VINA RESULT: -7.342832964      1.603      2.068
REMARK  9 active torsions:
REMARK  status: ('A' for Active; 'I' for Inactive)
REMARK    1  A    between atoms: C2_2  and  N1_3 
REMARK    2  A    between atoms: C10_11  and  C11_12 
REMARK    3  A    between atoms: C11_12  and  C12_13 
REMARK    4  A    between atoms: C12_13  and  C13_14 
REMARK    5  A    between atoms: N2_17  and  C16_18 
REMARK    6  A    between atoms: N4_26  and  C21_27 
REMARK    7  A    between atoms: C21_27  and  O1_28 
REMARK    8  A    between atoms: C21_27  and  N5_30 
REMARK    9  A    between atoms: N5_30  and  C22_32 
ROOT
HETATM    1  N1  UNL     1      25.101  12.855  28.929  1.00  0.00    -0.387 N 
HETATM    2  C3  UNL     1      25.186  11.606  28.252  1.00  0.00     0.147 C 
HETATM    3  C4  UNL     1      25.506  10.443  29.084  1.00  0.00     0.107 C 
HETATM    4  C5  UNL     1      26.330  10.713  30.323  1.00  0.00     0.032 C 
HETATM    5  C6  UNL     1      25.539  11.211  31.487  1.00  0.00    -0.008 C 
HETATM    6  C7  UNL     1      25.185  12.679  31.356  1.00  0.00     0.030 C 
HETATM    7  C8  UNL     1      24.336  12.831  30.136  1.00  0.00     0.086 C 
HETATM    8  C9  UNL     1      23.232  11.867  30.002  1.00  0.00     0.056 C 
HETATM    9  C10 UNL     1      23.488  10.435  30.412  1.00  0.00     0.038 C 
HETATM   10  C20 UNL     1      24.270  10.474  31.757  1.00  0.00     0.036 C 
HETATM   11  N4  UNL     1      24.314   9.667  29.557  1.00  0.00    -0.332 N 
ENDROOT
BRANCH   9  12
HETATM   12  C11 UNL     1      22.146   9.908  30.806  1.00  0.00     0.032 C 
BRANCH  12  13
HETATM   13  C12 UNL     1      21.983   9.621  32.277  1.00  0.00     0.007 C 
BRANCH  13  14
HETATM   14  C13 UNL     1      21.048  10.649  32.874  1.00  0.00    -0.011 C 
HETATM   15  C14 UNL     1      21.595  12.052  32.756  1.00  0.00     0.024 C 
HETATM   16  C15 UNL     1      20.467  13.025  33.012  1.00  0.00     0.124 C 
HETATM   17  N2  UNL     1      19.537  12.415  33.930  1.00  0.00    -0.371 N 
HETATM   18  C18 UNL     1      19.996  11.514  34.961  1.00  0.00     0.124 C 
HETATM   19  C19 UNL     1      20.813  10.382  34.354  1.00  0.00     0.024 C 
BRANCH  17  20
HETATM   20  C16 UNL     1      18.160  12.696  33.818  1.00  0.00     0.068 C 
HETATM   21  C17 UNL     1      17.160  12.441  34.889  1.00  0.00     0.088 C 
HETATM   22  N3  UNL     1      17.716  13.215  32.704  1.00  0.00    -0.389 N 
ATOM     23  H32 UNL     1      18.402  13.389  31.969  1.00  0.00     0.157 HD
ATOM     24  H31 UNL     1      16.720  13.417  32.623  1.00  0.00     0.157 HD
ENDBRANCH  17  20
ENDBRANCH  13  14
ENDBRANCH  12  13
ENDBRANCH   9  12
BRANCH  11  25
HETATM   25  C21 UNL     1      24.231   8.353  29.098  1.00  0.00     0.216 C 
BRANCH  25  26
HETATM   26  O1  UNL     1      25.323   7.952  28.476  1.00  0.00    -0.333 OA
ATOM     27  H1  UNL     1      26.116   8.111  28.974  1.00  0.00     0.220 HD
ENDBRANCH  25  26
BRANCH  25  28
HETATM   28  N5  UNL     1      23.270   7.366  29.145  1.00  0.00    -0.352 N 
ATOM     29  H5  UNL     1      22.476   7.451  28.509  1.00  0.00     0.163 HD
BRANCH  28  30
HETATM   30  C22 UNL     1      23.299   6.204  30.035  1.00  0.00     0.088 C 
HETATM   31  C23 UNL     1      23.667   6.553  31.436  1.00  0.00     0.055 C 
HETATM   32  C24 UNL     1      22.866   5.716  32.396  1.00  0.00     0.274 C 
HETATM   33  N6  UNL     1      21.454   5.856  32.297  1.00  0.00     0.084 N 
HETATM   34  C25 UNL     1      20.836   6.695  33.278  1.00  0.00     0.309 C 
HETATM   35  C26 UNL     1      21.031   6.146  30.965  1.00  0.00     0.274 C 
HETATM   36  C27 UNL     1      21.996   5.456  30.025  1.00  0.00     0.055 C 
ENDBRANCH  28  30
ENDBRANCH  25  28
ENDBRANCH  11  25
BRANCH   1  37
HETATM   37  C2  UNL     1      25.028  14.028  28.154  1.00  0.00     0.054 C 
HETATM   38  C1  UNL     1      26.184  14.161  27.209  1.00  0.00     0.054 C 
ENDBRANCH   1  37
TORSDOF 9
ENDMDL
