MODEL 1
REMARK VINA RESULT: -8.445931767      0.000      0.000
REMARK  8 active torsions:
REMARK  status: ('A' for Active; 'I' for Inactive)
REMARK    1  A    between atoms: C2_2  and  S1_5 
REMARK    2  A    between atoms: S1_5  and  N1_8 
REMARK    3  A    between atoms: C7_11  and  N2_12 
REMARK    4  A    between atoms: C10_15  and  C11_16 
REMARK    5  A    between atoms: C11_16  and  N3_17 
REMARK    6  A    between atoms: N3_17  and  C12_19 
REMARK    7  A    between atoms: C12_19  and  N4_21 
REMARK    8  A    between atoms: N4_21  and  C13_23 
ROOT
HETATM    1  N2  UNL     1      22.663  11.405  31.189  1.00  0.00     0.093 N 
HETATM    2  C8  UNL     1      22.470  12.785  31.483  1.00  0.00     0.273 C 
HETATM    3  C9  UNL     1      21.124  13.097  32.076  1.00  0.00     0.036 C 
HETATM    4  C10 UNL     1      20.927  12.185  33.275  1.00  0.00     0.007 C 
HETATM    5  C20 UNL     1      20.951  10.765  32.754  1.00  0.00     0.036 C 
HETATM    6  C21 UNL     1      22.351  10.504  32.244  1.00  0.00     0.273 C 
ENDROOT
BRANCH   4   7
HETATM    7  C11 UNL     1      19.653  12.506  34.000  1.00  0.00     0.126 C 
BRANCH   7   8
HETATM    8  N3  UNL     1      18.816  13.357  33.187  1.00  0.00    -0.367 N 
ATOM      9  H3  UNL     1      18.874  13.280  32.172  1.00  0.00     0.161 HD
BRANCH   8  10
HETATM   10  C12 UNL     1      17.915  14.301  33.754  1.00  0.00     0.167 C 
HETATM   11  S2  UNL     1      17.299  13.989  35.225  1.00  0.00    -0.041 SA
BRANCH  10  12
HETATM   12  N4  UNL     1      17.548  15.483  33.069  1.00  0.00    -0.363 N 
ATOM     13  H4  UNL     1      16.786  15.413  32.394  1.00  0.00     0.162 HD
BRANCH  12  14
HETATM   14  C13 UNL     1      18.160  16.781  33.245  1.00  0.00     0.083 C 
HETATM   15  C14 UNL     1      17.199  17.671  33.984  1.00  0.00     0.025 C 
HETATM   16  C15 UNL     1      17.937  18.643  34.892  1.00  0.00     0.002 C 
HETATM   17  C16 UNL     1      19.240  19.090  34.268  1.00  0.00     0.000 C 
HETATM   18  C17 UNL     1      19.086  19.685  32.914  1.00  0.00     0.000 C 
HETATM   19  C18 UNL     1      18.498  18.823  31.861  1.00  0.00     0.002 C 
HETATM   20  C19 UNL     1      18.719  17.361  31.991  1.00  0.00     0.025 C 
ENDBRANCH  12  14
ENDBRANCH  10  12
ENDBRANCH   8  10
ENDBRANCH   7   8
ENDBRANCH   4   7
BRANCH   1  21
HETATM   21  C7  UNL     1      23.946  11.214  30.597  1.00  0.00     0.225 C 
HETATM   22  C6  UNL     1      24.401  12.364  29.731  1.00  0.00     0.051 C 
HETATM   23  C5  UNL     1      25.872  12.130  29.387  1.00  0.00     0.109 C 
HETATM   24  N1  UNL     1      26.218  10.748  29.530  1.00  0.00    -0.210 NA
HETATM   25  C23 UNL     1      26.202  10.255  30.869  1.00  0.00     0.109 C 
HETATM   26  C22 UNL     1      24.993  10.799  31.608  1.00  0.00     0.051 C 
BRANCH  24  27
HETATM   27  S1  UNL     1      27.569  10.286  28.608  1.00  0.00     0.219 S 
HETATM   28  O1  UNL     1      28.807  10.819  29.310  1.00  0.00    -0.210 OA
HETATM   29  O2  UNL     1      27.565  10.945  27.240  1.00  0.00    -0.210 OA
BRANCH  27  30
HETATM   30  C2  UNL     1      27.745   8.554  28.370  1.00  0.00     0.067 C 
HETATM   31  C1  UNL     1      26.494   7.770  28.624  1.00  0.00     0.033 C 
HETATM   32  C3  UNL     1      28.779   8.075  29.396  1.00  0.00     0.033 C 
HETATM   33  C4  UNL     1      28.272   8.196  27.015  1.00  0.00     0.033 C 
ENDBRANCH  27  30
ENDBRANCH  24  27
ENDBRANCH   1  21
TORSDOF 8
ENDMDL
MODEL 2
REMARK VINA RESULT: -8.444245939      1.482      2.017
REMARK  8 active torsions:
REMARK  status: ('A' for Active; 'I' for Inactive)
REMARK    1  A    between atoms: C2_2  and  S1_5 
REMARK    2  A    between atoms: S1_5  and  N1_8 
REMARK    3  A    between atoms: C7_11  and  N2_12 
REMARK    4  A    between atoms: C10_15  and  C11_16 
REMARK    5  A    between atoms: C11_16  and  N3_17 
REMARK    6  A    between atoms: N3_17  and  C12_19 
REMARK    7  A    between atoms: C12_19  and  N4_21 
REMARK    8  A    between atoms: N4_21  and  C13_23 
ROOT
HETATM    1  N2  UNL     1      22.814  10.968  32.188  1.00  0.00     0.093 N 
HETATM    2  C8  UNL     1      21.769  10.072  32.552  1.00  0.00     0.273 C 
HETATM    3  C9  UNL     1      20.754  10.671  33.485  1.00  0.00     0.036 C 
HETATM    4  C10 UNL     1      20.258  11.962  32.857  1.00  0.00     0.007 C 
HETATM    5  C20 UNL     1      21.456  12.879  32.733  1.00  0.00     0.036 C 
HETATM    6  C21 UNL     1      22.394  12.246  31.727  1.00  0.00     0.273 C 
ENDROOT
BRANCH   4   7
HETATM    7  C11 UNL     1      19.153  12.575  33.668  1.00  0.00     0.126 C 
BRANCH   7   8
HETATM    8  N3  UNL     1      18.631  13.742  32.998  1.00  0.00    -0.367 N 
ATOM      9  H3  UNL     1      18.908  13.922  32.033  1.00  0.00     0.161 HD
BRANCH   8  10
HETATM   10  C12 UNL     1      17.743  14.652  33.637  1.00  0.00     0.167 C 
HETATM   11  S2  UNL     1      17.092  14.218  35.062  1.00  0.00    -0.041 SA
BRANCH  10  12
HETATM   12  N4  UNL     1      17.419  15.902  33.063  1.00  0.00    -0.363 N 
ATOM     13  H4  UNL     1      16.618  15.932  32.432  1.00  0.00     0.162 HD
BRANCH  12  14
HETATM   14  C13 UNL     1      18.125  17.143  33.295  1.00  0.00     0.083 C 
HETATM   15  C14 UNL     1      17.261  18.041  34.136  1.00  0.00     0.025 C 
HETATM   16  C15 UNL     1      18.102  18.898  35.070  1.00  0.00     0.002 C 
HETATM   17  C16 UNL     1      19.405  19.300  34.416  1.00  0.00     0.000 C 
HETATM   18  C17 UNL     1      19.234  19.996  33.113  1.00  0.00     0.000 C 
HETATM   19  C18 UNL     1      18.543  19.249  32.034  1.00  0.00     0.002 C 
HETATM   20  C19 UNL     1      18.669  17.769  32.057  1.00  0.00     0.025 C 
ENDBRANCH  12  14
ENDBRANCH  10  12
ENDBRANCH   8  10
ENDBRANCH   7   8
ENDBRANCH   4   7
BRANCH   1  21
HETATM   21  C7  UNL     1      23.745  10.302  31.337  1.00  0.00     0.225 C 
HETATM   22  C6  UNL     1      23.171   9.885  30.004  1.00  0.00     0.051 C 
HETATM   23  C5  UNL     1      24.334   9.428  29.123  1.00  0.00     0.109 C 
HETATM   24  N1  UNL     1      25.465   9.058  29.918  1.00  0.00    -0.210 NA
HETATM   25  C23 UNL     1      26.097  10.135  30.612  1.00  0.00     0.109 C 
HETATM   26  C22 UNL     1      25.047  11.062  31.198  1.00  0.00     0.051 C 
BRANCH  24  27
HETATM   27  S1  UNL     1      26.526   7.985  29.136  1.00  0.00     0.219 S 
HETATM   28  O1  UNL     1      25.751   7.305  28.021  1.00  0.00    -0.210 OA
HETATM   29  O2  UNL     1      26.970   6.865  30.061  1.00  0.00    -0.210 OA
BRANCH  27  30
HETATM   30  C2  UNL     1      27.969   8.729  28.463  1.00  0.00     0.067 C 
HETATM   31  C1  UNL     1      27.776  10.146  28.015  1.00  0.00     0.033 C 
HETATM   32  C3  UNL     1      28.334   7.920  27.213  1.00  0.00     0.033 C 
HETATM   33  C4  UNL     1      29.147   8.670  29.385  1.00  0.00     0.033 C 
ENDBRANCH  27  30
ENDBRANCH  24  27
ENDBRANCH   1  21
TORSDOF 8
ENDMDL
MODEL 3
REMARK VINA RESULT: -8.370219237      0.705      1.273
REMARK  8 active torsions:
REMARK  status: ('A' for Active; 'I' for Inactive)
REMARK    1  A    between atoms: C2_2  and  S1_5 
REMARK    2  A    between atoms: S1_5  and  N1_8 
REMARK    3  A    between atoms: C7_11  and  N2_12 
REMARK    4  A    between atoms: C10_15  and  C11_16 
REMARK    5  A    between atoms: C11_16  and  N3_17 
REMARK    6  A    between atoms: N3_17  and  C12_19 
REMARK    7  A    between atoms: C12_19  and  N4_21 
REMARK    8  A    between atoms: N4_21  and  C13_23 
ROOT
HETATM    1  N2  UNL     1      22.986  11.380  32.068  1.00  0.00     0.093 N 
HETATM    2  C8  UNL     1      22.027  10.327  32.057  1.00  0.00     0.273 C 
HETATM    3  C9  UNL     1      20.892  10.530  33.021  1.00  0.00     0.036 C 
HETATM    4  C10 UNL     1      20.295  11.900  32.747  1.00  0.00     0.007 C 
HETATM    5  C20 UNL     1      21.387  12.914  33.007  1.00  0.00     0.036 C 
HETATM    6  C21 UNL     1      22.455  12.695  31.957  1.00  0.00     0.273 C 
ENDROOT
BRANCH   4   7
HETATM    7  C11 UNL     1      19.078  12.144  33.590  1.00  0.00     0.126 C 
BRANCH   7   8
HETATM    8  N3  UNL     1      18.238  13.145  32.976  1.00  0.00    -0.367 N 
ATOM      9  H3  UNL     1      18.000  13.050  31.988  1.00  0.00     0.161 HD
BRANCH   8  10
HETATM   10  C12 UNL     1      17.730  14.259  33.700  1.00  0.00     0.167 C 
HETATM   11  S2  UNL     1      17.544  14.112  35.308  1.00  0.00    -0.041 SA
BRANCH  10  12
HETATM   12  N4  UNL     1      17.385  15.470  33.056  1.00  0.00    -0.363 N 
ATOM     13  H4  UNL     1      16.603  15.445  32.403  1.00  0.00     0.162 HD
BRANCH  12  14
HETATM   14  C13 UNL     1      18.048  16.741  33.246  1.00  0.00     0.083 C 
HETATM   15  C14 UNL     1      17.116  17.667  33.979  1.00  0.00     0.025 C 
HETATM   16  C15 UNL     1      17.883  18.603  34.900  1.00  0.00     0.002 C 
HETATM   17  C16 UNL     1      19.211  18.999  34.295  1.00  0.00     0.000 C 
HETATM   18  C17 UNL     1      19.098  19.607  32.942  1.00  0.00     0.000 C 
HETATM   19  C18 UNL     1      18.487  18.775  31.878  1.00  0.00     0.002 C 
HETATM   20  C19 UNL     1      18.646  17.304  32.002  1.00  0.00     0.025 C 
ENDBRANCH  12  14
ENDBRANCH  10  12
ENDBRANCH   8  10
ENDBRANCH   7   8
ENDBRANCH   4   7
BRANCH   1  21
HETATM   21  C7  UNL     1      24.040  11.081  31.155  1.00  0.00     0.225 C 
HETATM   22  C6  UNL     1      23.685  10.030  30.130  1.00  0.00     0.051 C 
HETATM   23  C5  UNL     1      24.801  10.008  29.085  1.00  0.00     0.109 C 
HETATM   24  N1  UNL     1      26.009  10.567  29.614  1.00  0.00    -0.210 NA
HETATM   25  C23 UNL     1      25.961  11.967  29.887  1.00  0.00     0.109 C 
HETATM   26  C22 UNL     1      24.633  12.325  30.529  1.00  0.00     0.051 C 
BRANCH  24  27
HETATM   27  S1  UNL     1      27.412  10.038  28.812  1.00  0.00     0.219 S 
HETATM   28  O1  UNL     1      28.592  10.784  29.412  1.00  0.00    -0.210 OA
HETATM   29  O2  UNL     1      27.395  10.423  27.343  1.00  0.00    -0.210 OA
BRANCH  27  30
HETATM   30  C2  UNL     1      27.714   8.310  28.911  1.00  0.00     0.067 C 
HETATM   31  C1  UNL     1      26.800   7.580  29.847  1.00  0.00     0.033 C 
HETATM   32  C3  UNL     1      29.133   8.146  29.467  1.00  0.00     0.033 C 
HETATM   33  C4  UNL     1      27.683   7.629  27.578  1.00  0.00     0.033 C 
ENDBRANCH  27  30
ENDBRANCH  24  27
ENDBRANCH   1  21
TORSDOF 8
ENDMDL
MODEL 4
REMARK VINA RESULT: -8.324642297      1.640      2.109
REMARK  8 active torsions:
REMARK  status: ('A' for Active; 'I' for Inactive)
REMARK    1  A    between atoms: C2_2  and  S1_5 
REMARK    2  A    between atoms: S1_5  and  N1_8 
REMARK    3  A    between atoms: C7_11  and  N2_12 
REMARK    4  A    between atoms: C10_15  and  C11_16 
REMARK    5  A    between atoms: C11_16  and  N3_17 
REMARK    6  A    between atoms: N3_17  and  C12_19 
REMARK    7  A    between atoms: C12_19  and  N4_21 
REMARK    8  A    between atoms: N4_21  and  C13_23 
ROOT
HETATM    1  N2  UNL     1      22.847  10.764  32.258  1.00  0.00     0.093 N 
HETATM    2  C8  UNL     1      21.762   9.901  32.583  1.00  0.00     0.273 C 
HETATM    3  C9  UNL     1      20.742  10.525  33.495  1.00  0.00     0.036 C 
HETATM    4  C10 UNL     1      20.308  11.839  32.868  1.00  0.00     0.007 C 
HETATM    5  C20 UNL     1      21.540  12.714  32.788  1.00  0.00     0.036 C 
HETATM    6  C21 UNL     1      22.483  12.061  31.801  1.00  0.00     0.273 C 
ENDROOT
BRANCH   4   7
HETATM    7  C11 UNL     1      19.203  12.480  33.656  1.00  0.00     0.126 C 
BRANCH   7   8
HETATM    8  N3  UNL     1      18.787  13.709  33.022  1.00  0.00    -0.367 N 
ATOM      9  H3  UNL     1      19.219  13.978  32.137  1.00  0.00     0.161 HD
BRANCH   8  10
HETATM   10  C12 UNL     1      17.797  14.559  33.588  1.00  0.00     0.167 C 
HETATM   11  S2  UNL     1      17.039  14.064  34.938  1.00  0.00    -0.041 SA
BRANCH  10  12
HETATM   12  N4  UNL     1      17.461  15.802  33.004  1.00  0.00    -0.363 N 
ATOM     13  H4  UNL     1      16.671  15.817  32.359  1.00  0.00     0.162 HD
BRANCH  12  14
HETATM   14  C13 UNL     1      18.143  17.055  33.244  1.00  0.00     0.083 C 
HETATM   15  C14 UNL     1      17.242  17.947  34.054  1.00  0.00     0.025 C 
HETATM   16  C15 UNL     1      18.045  18.824  35.002  1.00  0.00     0.002 C 
HETATM   17  C16 UNL     1      19.359  19.240  34.380  1.00  0.00     0.000 C 
HETATM   18  C17 UNL     1      19.213  19.923  33.067  1.00  0.00     0.000 C 
HETATM   19  C18 UNL     1      18.563  19.157  31.977  1.00  0.00     0.002 C 
HETATM   20  C19 UNL     1      18.710  17.680  32.016  1.00  0.00     0.025 C 
ENDBRANCH  12  14
ENDBRANCH  10  12
ENDBRANCH   8  10
ENDBRANCH   7   8
ENDBRANCH   4   7
BRANCH   1  21
HETATM   21  C7  UNL     1      23.778  10.075  31.426  1.00  0.00     0.225 C 
HETATM   22  C6  UNL     1      23.142   9.343  30.268  1.00  0.00     0.051 C 
HETATM   23  C5  UNL     1      24.267   8.881  29.341  1.00  0.00     0.109 C 
HETATM   24  N1  UNL     1      25.515   8.819  30.039  1.00  0.00    -0.210 NA
HETATM   25  C23 UNL     1      26.043  10.080  30.450  1.00  0.00     0.109 C 
HETATM   26  C22 UNL     1      24.930  10.957  30.994  1.00  0.00     0.051 C 
BRANCH  24  27
HETATM   27  S1  UNL     1      26.642   7.763  29.328  1.00  0.00     0.219 S 
HETATM   28  O1  UNL     1      28.015   8.132  29.862  1.00  0.00    -0.210 OA
HETATM   29  O2  UNL     1      26.725   7.966  27.825  1.00  0.00    -0.210 OA
BRANCH  27  30
HETATM   30  C2  UNL     1      26.348   6.057  29.625  1.00  0.00     0.067 C 
HETATM   31  C1  UNL     1      26.443   5.660  31.066  1.00  0.00     0.033 C 
HETATM   32  C3  UNL     1      27.450   5.289  28.885  1.00  0.00     0.033 C 
HETATM   33  C4  UNL     1      25.038   5.580  29.078  1.00  0.00     0.033 C 
ENDBRANCH  27  30
ENDBRANCH  24  27
ENDBRANCH   1  21
TORSDOF 8
ENDMDL
MODEL 5
REMARK VINA RESULT: -8.250514243      5.747      8.744
REMARK  8 active torsions:
REMARK  status: ('A' for Active; 'I' for Inactive)
REMARK    1  A    between atoms: C2_2  and  S1_5 
REMARK    2  A    between atoms: S1_5  and  N1_8 
REMARK    3  A    between atoms: C7_11  and  N2_12 
REMARK    4  A    between atoms: C10_15  and  C11_16 
REMARK    5  A    between atoms: C11_16  and  N3_17 
REMARK    6  A    between atoms: N3_17  and  C12_19 
REMARK    7  A    between atoms: C12_19  and  N4_21 
REMARK    8  A    between atoms: N4_21  and  C13_23 
ROOT
HETATM    1  N2  UNL     1      26.804  13.750  27.602  1.00  0.00     0.093 N 
HETATM    2  C8  UNL     1      27.230  12.407  27.393  1.00  0.00     0.273 C 
HETATM    3  C9  UNL     1      26.715  11.439  28.422  1.00  0.00     0.036 C 
HETATM    4  C10 UNL     1      25.206  11.595  28.483  1.00  0.00     0.007 C 
HETATM    5  C20 UNL     1      24.929  13.017  28.922  1.00  0.00     0.036 C 
HETATM    6  C21 UNL     1      25.407  13.924  27.809  1.00  0.00     0.273 C 
ENDROOT
BRANCH   4   7
HETATM    7  C11 UNL     1      24.590  10.584  29.406  1.00  0.00     0.126 C 
BRANCH   7   8
HETATM    8  N3  UNL     1      23.328  11.073  29.911  1.00  0.00    -0.367 N 
ATOM      9  H3  UNL     1      22.619  11.384  29.246  1.00  0.00     0.161 HD
BRANCH   8  10
HETATM   10  C12 UNL     1      23.039  11.135  31.302  1.00  0.00     0.167 C 
HETATM   11  S2  UNL     1      22.408  12.510  31.896  1.00  0.00    -0.041 SA
BRANCH  10  12
HETATM   12  N4  UNL     1      23.291  10.043  32.164  1.00  0.00    -0.363 N 
ATOM     13  H4  UNL     1      24.163  10.058  32.694  1.00  0.00     0.162 HD
BRANCH  12  14
HETATM   14  C13 UNL     1      22.419   8.907  32.359  1.00  0.00     0.083 C 
HETATM   15  C14 UNL     1      22.666   7.913  31.257  1.00  0.00     0.025 C 
HETATM   16  C15 UNL     1      22.488   6.486  31.753  1.00  0.00     0.002 C 
HETATM   17  C16 UNL     1      21.379   6.398  32.777  1.00  0.00     0.000 C 
HETATM   18  C17 UNL     1      20.075   6.930  32.298  1.00  0.00     0.000 C 
HETATM   19  C18 UNL     1      20.035   8.356  31.894  1.00  0.00     0.002 C 
HETATM   20  C19 UNL     1      20.989   9.271  32.570  1.00  0.00     0.025 C 
ENDBRANCH  12  14
ENDBRANCH  10  12
ENDBRANCH   8  10
ENDBRANCH   7   8
ENDBRANCH   4   7
BRANCH   1  21
HETATM   21  C7  UNL     1      27.372  14.596  26.606  1.00  0.00     0.225 C 
HETATM   22  C6  UNL     1      27.909  13.856  25.404  1.00  0.00     0.051 C 
HETATM   23  C5  UNL     1      28.241  14.895  24.332  1.00  0.00     0.109 C 
HETATM   24  N1  UNL     1      28.429  16.190  24.914  1.00  0.00    -0.210 NA
HETATM   25  C23 UNL     1      27.254  16.782  25.468  1.00  0.00     0.109 C 
HETATM   26  C22 UNL     1      26.453  15.737  26.223  1.00  0.00     0.051 C 
BRANCH  24  27
HETATM   27  S1  UNL     1      29.381  17.231  23.966  1.00  0.00     0.219 S 
HETATM   28  O1  UNL     1      28.668  18.572  23.901  1.00  0.00    -0.210 OA
HETATM   29  O2  UNL     1      29.470  16.751  22.527  1.00  0.00    -0.210 OA
BRANCH  27  30
HETATM   30  C2  UNL     1      31.018  17.478  24.553  1.00  0.00     0.067 C 
HETATM   31  C1  UNL     1      31.347  18.904  24.872  1.00  0.00     0.033 C 
HETATM   32  C3  UNL     1      31.957  17.055  23.416  1.00  0.00     0.033 C 
HETATM   33  C4  UNL     1      31.354  16.628  25.739  1.00  0.00     0.033 C 
ENDBRANCH  27  30
ENDBRANCH  24  27
ENDBRANCH   1  21
TORSDOF 8
ENDMDL
