MODEL 1
REMARK VINA RESULT: -6.461142751      0.000      0.000
REMARK  4 active torsions:
REMARK  status: ('A' for Active; 'I' for Inactive)
REMARK    1  A    between atoms: N1_1  and  C1_4 
REMARK    2  A    between atoms: C2_10  and  N5_11 
REMARK    3  A    between atoms: N5_11  and  C3_13 
REMARK    4  A    between atoms: C3_13  and  C4_14 
ROOT
HETATM    1  C1  UNL     1     -24.624   1.926  63.056  1.00  0.00     0.157 A 
HETATM    2  N2  UNL     1     -25.848   2.353  63.407  1.00  0.00    -0.267 N 
ATOM      3  H2  UNL     1     -26.442   1.983  64.149  1.00  0.00     0.186 HD
HETATM    4  N3  UNL     1     -26.120   3.354  62.589  1.00  0.00    -0.019 NA
HETATM    5  N4  UNL     1     -25.127   3.570  61.745  1.00  0.00    -0.266 N 
ATOM      6  H4  UNL     1     -25.104   4.286  61.019  1.00  0.00     0.186 HD
HETATM    7  C2  UNL     1     -24.148   2.680  62.008  1.00  0.00     0.160 A 
ENDROOT
BRANCH   7   8
HETATM    8  N5  UNL     1     -23.002   2.531  61.428  1.00  0.00    -0.366 N 
ATOM      9  H5  UNL     1     -22.267   2.023  61.919  1.00  0.00     0.161 HD
BRANCH   8  10
HETATM   10  C3  UNL     1     -22.723   3.057  60.112  1.00  0.00     0.186 C 
BRANCH  10  11
HETATM   11  C4  UNL     1     -23.507   2.368  59.065  1.00  0.00     0.070 A 
HETATM   12  C5  UNL     1     -23.191   1.205  58.417  1.00  0.00     0.036 A 
HETATM   13  C6  UNL     1     -24.217   0.957  57.534  1.00  0.00     0.027 A 
HETATM   14  C7  UNL     1     -25.124   1.982  57.678  1.00  0.00     0.142 A 
HETATM   15  O1  UNL     1     -24.649   2.779  58.593  1.00  0.00    -0.325 OA
ENDBRANCH  10  11
ENDBRANCH   8  10
ENDBRANCH   7   8
BRANCH   1  16
HETATM   16  N1  UNL     1     -24.005   0.954  63.627  1.00  0.00    -0.382 N 
ATOM     17  H12 UNL     1     -24.233   0.552  64.536  1.00  0.00     0.157 HD
ATOM     18  H11 UNL     1     -23.203   0.469  63.225  1.00  0.00     0.157 HD
ENDBRANCH   1  16
TORSDOF 4
ENDMDL
MODEL 2
REMARK VINA RESULT: -6.386321779      0.750      1.635
REMARK  4 active torsions:
REMARK  status: ('A' for Active; 'I' for Inactive)
REMARK    1  A    between atoms: N1_1  and  C1_4 
REMARK    2  A    between atoms: C2_10  and  N5_11 
REMARK    3  A    between atoms: N5_11  and  C3_13 
REMARK    4  A    between atoms: C3_13  and  C4_14 
ROOT
HETATM    1  C1  UNL     1     -25.336   3.311  62.242  1.00  0.00     0.157 A 
HETATM    2  N2  UNL     1     -25.975   2.745  63.280  1.00  0.00    -0.267 N 
ATOM      3  H2  UNL     1     -26.932   2.920  63.586  1.00  0.00     0.186 HD
HETATM    4  N3  UNL     1     -25.102   1.915  63.821  1.00  0.00    -0.019 NA
HETATM    5  N4  UNL     1     -23.950   1.936  63.173  1.00  0.00    -0.266 N 
ATOM      6  H4  UNL     1     -23.124   1.384  63.402  1.00  0.00     0.186 HD
HETATM    7  C2  UNL     1     -24.055   2.816  62.155  1.00  0.00     0.160 A 
ENDROOT
BRANCH   7   8
HETATM    8  N5  UNL     1     -23.173   3.150  61.271  1.00  0.00    -0.366 N 
ATOM      9  H5  UNL     1     -22.840   4.114  61.252  1.00  0.00     0.161 HD
BRANCH   8  10
HETATM   10  C3  UNL     1     -22.642   2.212  60.310  1.00  0.00     0.186 C 
BRANCH  10  11
HETATM   11  C4  UNL     1     -23.577   1.983  59.187  1.00  0.00     0.070 A 
HETATM   12  C5  UNL     1     -23.632   0.898  58.355  1.00  0.00     0.036 A 
HETATM   13  C6  UNL     1     -24.659   1.134  57.471  1.00  0.00     0.027 A 
HETATM   14  C7  UNL     1     -25.195   2.357  57.798  1.00  0.00     0.142 A 
HETATM   15  O1  UNL     1     -24.515   2.807  58.815  1.00  0.00    -0.325 OA
ENDBRANCH  10  11
ENDBRANCH   8  10
ENDBRANCH   7   8
BRANCH   1  16
HETATM   16  N1  UNL     1     -25.861   4.186  61.460  1.00  0.00    -0.382 N 
ATOM     17  H12 UNL     1     -25.802   5.198  61.570  1.00  0.00     0.157 HD
ATOM     18  H11 UNL     1     -26.404   3.959  60.627  1.00  0.00     0.157 HD
ENDBRANCH   1  16
TORSDOF 4
ENDMDL
MODEL 3
REMARK VINA RESULT: -6.308113122      1.682      2.161
REMARK  4 active torsions:
REMARK  status: ('A' for Active; 'I' for Inactive)
REMARK    1  A    between atoms: N1_1  and  C1_4 
REMARK    2  A    between atoms: C2_10  and  N5_11 
REMARK    3  A    between atoms: N5_11  and  C3_13 
REMARK    4  A    between atoms: C3_13  and  C4_14 
ROOT
HETATM    1  C1  UNL     1     -24.020   1.628  63.057  1.00  0.00     0.157 A 
HETATM    2  N2  UNL     1     -25.053   1.481  63.904  1.00  0.00    -0.267 N 
ATOM      3  H2  UNL     1     -25.200   0.726  64.573  1.00  0.00     0.186 HD
HETATM    4  N3  UNL     1     -25.838   2.522  63.688  1.00  0.00    -0.019 NA
HETATM    5  N4  UNL     1     -25.346   3.309  62.747  1.00  0.00    -0.266 N 
ATOM      6  H4  UNL     1     -25.772   4.170  62.405  1.00  0.00     0.186 HD
HETATM    7  C2  UNL     1     -24.184   2.776  62.316  1.00  0.00     0.160 A 
ENDROOT
BRANCH   7   8
HETATM    8  N5  UNL     1     -23.372   3.213  61.408  1.00  0.00    -0.366 N 
ATOM      9  H5  UNL     1     -22.621   3.844  61.686  1.00  0.00     0.161 HD
BRANCH   8  10
HETATM   10  C3  UNL     1     -23.489   2.840  60.017  1.00  0.00     0.186 C 
BRANCH  10  11
HETATM   11  C4  UNL     1     -22.435   1.885  59.613  1.00  0.00     0.070 A 
HETATM   12  C5  UNL     1     -21.250   2.166  58.989  1.00  0.00     0.036 A 
HETATM   13  C6  UNL     1     -20.602   0.964  58.817  1.00  0.00     0.027 A 
HETATM   14  C7  UNL     1     -21.420  -0.008  59.344  1.00  0.00     0.142 A 
HETATM   15  O1  UNL     1     -22.482   0.597  59.796  1.00  0.00    -0.325 OA
ENDBRANCH  10  11
ENDBRANCH   8  10
ENDBRANCH   7   8
BRANCH   1  16
HETATM   16  N1  UNL     1     -23.036   0.807  62.967  1.00  0.00    -0.382 N 
ATOM     17  H12 UNL     1     -23.103  -0.210  62.983  1.00  0.00     0.157 HD
ATOM     18  H11 UNL     1     -22.060   1.088  62.869  1.00  0.00     0.157 HD
ENDBRANCH   1  16
TORSDOF 4
ENDMDL
MODEL 4
REMARK VINA RESULT: -6.289690657      1.897      2.339
REMARK  4 active torsions:
REMARK  status: ('A' for Active; 'I' for Inactive)
REMARK    1  A    between atoms: N1_1  and  C1_4 
REMARK    2  A    between atoms: C2_10  and  N5_11 
REMARK    3  A    between atoms: N5_11  and  C3_13 
REMARK    4  A    between atoms: C3_13  and  C4_14 
ROOT
HETATM    1  C1  UNL     1     -24.933   1.959  63.228  1.00  0.00     0.157 A 
HETATM    2  N2  UNL     1     -25.972   2.811  63.260  1.00  0.00    -0.267 N 
ATOM      3  H2  UNL     1     -26.723   2.843  63.949  1.00  0.00     0.186 HD
HETATM    4  N3  UNL     1     -25.815   3.599  62.211  1.00  0.00    -0.019 NA
HETATM    5  N4  UNL     1     -24.731   3.279  61.527  1.00  0.00    -0.266 N 
ATOM      6  H4  UNL     1     -24.401   3.741  60.679  1.00  0.00     0.186 HD
HETATM    7  C2  UNL     1     -24.136   2.236  62.141  1.00  0.00     0.160 A 
ENDROOT
BRANCH   7   8
HETATM    8  N5  UNL     1     -23.055   1.604  61.815  1.00  0.00    -0.366 N 
ATOM      9  H5  UNL     1     -22.174   1.887  62.244  1.00  0.00     0.161 HD
BRANCH   8  10
HETATM   10  C3  UNL     1     -23.049   0.514  60.868  1.00  0.00     0.186 C 
BRANCH  10  11
HETATM   11  C4  UNL     1     -22.120   0.765  59.745  1.00  0.00     0.070 A 
HETATM   12  C5  UNL     1     -22.437   1.158  58.473  1.00  0.00     0.036 A 
HETATM   13  C6  UNL     1     -21.248   1.262  57.788  1.00  0.00     0.027 A 
HETATM   14  C7  UNL     1     -20.248   0.927  58.670  1.00  0.00     0.142 A 
HETATM   15  O1  UNL     1     -20.825   0.644  59.804  1.00  0.00    -0.325 OA
ENDBRANCH  10  11
ENDBRANCH   8  10
ENDBRANCH   7   8
BRANCH   1  16
HETATM   16  N1  UNL     1     -24.733   1.030  64.093  1.00  0.00    -0.382 N 
ATOM     17  H12 UNL     1     -24.317   1.152  65.016  1.00  0.00     0.157 HD
ATOM     18  H11 UNL     1     -24.970   0.049  63.947  1.00  0.00     0.157 HD
ENDBRANCH   1  16
TORSDOF 4
ENDMDL
MODEL 5
REMARK VINA RESULT: -6.203083841      1.960      2.142
REMARK  4 active torsions:
REMARK  status: ('A' for Active; 'I' for Inactive)
REMARK    1  A    between atoms: N1_1  and  C1_4 
REMARK    2  A    between atoms: C2_10  and  N5_11 
REMARK    3  A    between atoms: N5_11  and  C3_13 
REMARK    4  A    between atoms: C3_13  and  C4_14 
ROOT
HETATM    1  C1  UNL     1     -24.914   2.182  63.011  1.00  0.00     0.157 A 
HETATM    2  N2  UNL     1     -25.761   3.212  62.846  1.00  0.00    -0.267 N 
ATOM      3  H2  UNL     1     -26.505   3.507  63.478  1.00  0.00     0.186 HD
HETATM    4  N3  UNL     1     -25.428   3.761  61.692  1.00  0.00    -0.019 NA
HETATM    5  N4  UNL     1     -24.416   3.124  61.129  1.00  0.00    -0.266 N 
ATOM      6  H4  UNL     1     -23.983   3.360  60.236  1.00  0.00     0.186 HD
HETATM    7  C2  UNL     1     -24.055   2.107  61.939  1.00  0.00     0.160 A 
ENDROOT
BRANCH   7   8
HETATM    8  N5  UNL     1     -23.117   1.231  61.780  1.00  0.00    -0.366 N 
ATOM      9  H5  UNL     1     -22.585   0.930  62.597  1.00  0.00     0.161 HD
BRANCH   8  10
HETATM   10  C3  UNL     1     -22.795   0.661  60.492  1.00  0.00     0.186 C 
BRANCH  10  11
HETATM   11  C4  UNL     1     -23.962  -0.005  59.876  1.00  0.00     0.070 A 
HETATM   12  C5  UNL     1     -24.451   0.172  58.611  1.00  0.00     0.036 A 
HETATM   13  C6  UNL     1     -25.542  -0.658  58.493  1.00  0.00     0.027 A 
HETATM   14  C7  UNL     1     -25.678  -1.313  59.695  1.00  0.00     0.142 A 
HETATM   15  O1  UNL     1     -24.718  -0.885  60.467  1.00  0.00    -0.325 OA
ENDBRANCH  10  11
ENDBRANCH   8  10
ENDBRANCH   7   8
BRANCH   1  16
HETATM   16  N1  UNL     1     -24.922   1.394  64.026  1.00  0.00    -0.382 N 
ATOM     17  H12 UNL     1     -25.649   1.346  64.740  1.00  0.00     0.157 HD
ATOM     18  H11 UNL     1     -24.188   0.717  64.235  1.00  0.00     0.157 HD
ENDBRANCH   1  16
TORSDOF 4
ENDMDL
