MODEL 1
REMARK VINA RESULT: -6.224833553      0.000      0.000
REMARK  2 active torsions:
REMARK  status: ('A' for Active; 'I' for Inactive)
REMARK    1  A    between atoms: C3_3  and  C4_4 
REMARK    2  A    between atoms: C4_4  and  N1_5 
ROOT
HETATM    1  C4  UNL     1     -23.019   3.049  60.973  1.00  0.00     0.089 C 
ENDROOT
BRANCH   1   2
HETATM    2  C3  UNL     1     -23.330   2.456  62.331  1.00  0.00     0.125 C 
HETATM    3  C2  UNL     1     -24.764   2.793  62.684  1.00  0.00     0.075 C 
HETATM    4  C1  UNL     1     -25.366   1.905  63.697  1.00  0.00     0.064 C 
HETATM    5  N5  UNL     1     -24.554   0.905  64.260  1.00  0.00    -0.366 N 
HETATM    6  C8  UNL     1     -23.546   0.336  63.455  1.00  0.00     0.176 C 
ATOM      7  H5  UNL     1     -24.690   0.599  65.224  1.00  0.00     0.165 HD
HETATM    8  N4  UNL     1     -23.185   1.047  62.284  1.00  0.00    -0.377 N 
ATOM      9  H4  UNL     1     -22.840   0.570  61.451  1.00  0.00     0.161 HD
ENDBRANCH   1   2
BRANCH   1  10
HETATM   10  N1  UNL     1     -23.920   2.865  59.947  1.00  0.00    -0.340 N 
HETATM   11  C5  UNL     1     -23.954   2.260  58.871  1.00  0.00     0.174 C 
HETATM   12  N2  UNL     1     -23.011   1.450  58.198  1.00  0.00    -0.361 N 
HETATM   13  N3  UNL     1     -25.129   2.278  58.001  1.00  0.00    -0.361 N 
HETATM   14  C6  UNL     1     -23.727   0.446  57.416  1.00  0.00     0.142 C 
ATOM     15  H2  UNL     1     -21.997   1.550  58.250  1.00  0.00     0.162 HD
HETATM   16  C7  UNL     1     -25.043   1.111  57.155  1.00  0.00     0.142 C 
ATOM     17  H3  UNL     1     -25.869   2.980  57.994  1.00  0.00     0.162 HD
ATOM     18  H1  UNL     1     -24.794   3.361  60.124  1.00  0.00     0.168 HD
ENDBRANCH   1  10
TORSDOF 2
ENDMDL
MODEL 2
REMARK VINA RESULT: -5.936276823      1.277      5.217
REMARK  2 active torsions:
REMARK  status: ('A' for Active; 'I' for Inactive)
REMARK    1  A    between atoms: C3_3  and  C4_4 
REMARK    2  A    between atoms: C4_4  and  N1_5 
ROOT
HETATM    1  C4  UNL     1     -22.617   2.554  59.921  1.00  0.00     0.089 C 
ENDROOT
BRANCH   1   2
HETATM    2  C3  UNL     1     -23.126   1.924  58.642  1.00  0.00     0.125 C 
HETATM    3  C2  UNL     1     -22.873   0.432  58.708  1.00  0.00     0.075 C 
HETATM    4  C1  UNL     1     -23.724  -0.370  57.808  1.00  0.00     0.064 C 
HETATM    5  N5  UNL     1     -24.614   0.315  56.961  1.00  0.00    -0.366 N 
HETATM    6  C8  UNL     1     -25.165   1.530  57.419  1.00  0.00     0.176 C 
ATOM      7  H5  UNL     1     -24.854  -0.056  56.042  1.00  0.00     0.165 HD
HETATM    8  N4  UNL     1     -24.520   2.151  58.517  1.00  0.00    -0.377 N 
ATOM      9  H4  UNL     1     -25.032   2.730  59.183  1.00  0.00     0.161 HD
ENDBRANCH   1   2
BRANCH   1  10
HETATM   10  N1  UNL     1     -22.709   1.837  61.094  1.00  0.00    -0.340 N 
HETATM   11  C5  UNL     1     -23.365   1.893  62.139  1.00  0.00     0.174 C 
HETATM   12  N2  UNL     1     -24.365   2.781  62.596  1.00  0.00    -0.361 N 
HETATM   13  N3  UNL     1     -23.202   0.919  63.218  1.00  0.00    -0.361 N 
HETATM   14  C6  UNL     1     -25.279   2.053  63.470  1.00  0.00     0.142 C 
ATOM     15  H2  UNL     1     -24.437   3.770  62.354  1.00  0.00     0.162 HD
HETATM   16  C7  UNL     1     -24.417   0.948  63.997  1.00  0.00     0.142 C 
ATOM     17  H3  UNL     1     -22.385   0.331  63.387  1.00  0.00     0.162 HD
ATOM     18  H1  UNL     1     -22.060   1.050  61.102  1.00  0.00     0.168 HD
ENDBRANCH   1  10
TORSDOF 2
ENDMDL
MODEL 3
REMARK VINA RESULT: -5.872659560      1.125      5.132
REMARK  2 active torsions:
REMARK  status: ('A' for Active; 'I' for Inactive)
REMARK    1  A    between atoms: C3_3  and  C4_4 
REMARK    2  A    between atoms: C4_4  and  N1_5 
ROOT
HETATM    1  C4  UNL     1     -23.125   2.954  60.219  1.00  0.00     0.089 C 
ENDROOT
BRANCH   1   2
HETATM    2  C3  UNL     1     -23.356   2.381  58.837  1.00  0.00     0.125 C 
HETATM    3  C2  UNL     1     -22.710   1.012  58.771  1.00  0.00     0.075 C 
HETATM    4  C1  UNL     1     -23.247   0.135  57.713  1.00  0.00     0.064 C 
HETATM    5  N5  UNL     1     -24.232   0.663  56.859  1.00  0.00    -0.366 N 
HETATM    6  C8  UNL     1     -25.123   1.621  57.385  1.00  0.00     0.176 C 
ATOM      7  H5  UNL     1     -24.300   0.361  55.887  1.00  0.00     0.165 HD
HETATM    8  N4  UNL     1     -24.748   2.245  58.600  1.00  0.00    -0.377 N 
ATOM      9  H4  UNL     1     -25.441   2.579  59.269  1.00  0.00     0.161 HD
ENDBRANCH   1   2
BRANCH   1  10
HETATM   10  N1  UNL     1     -24.015   2.642  61.223  1.00  0.00    -0.340 N 
HETATM   11  C5  UNL     1     -24.110   1.793  62.116  1.00  0.00     0.174 C 
HETATM   12  N2  UNL     1     -23.284   0.712  62.501  1.00  0.00    -0.361 N 
HETATM   13  N3  UNL     1     -25.235   1.764  63.050  1.00  0.00    -0.361 N 
HETATM   14  C6  UNL     1     -23.421   0.505  63.940  1.00  0.00     0.142 C 
ATOM     15  H2  UNL     1     -22.690   0.167  61.877  1.00  0.00     0.162 HD
HETATM   16  C7  UNL     1     -24.790   1.043  64.220  1.00  0.00     0.142 C 
ATOM     17  H3  UNL     1     -26.157   2.175  62.904  1.00  0.00     0.162 HD
ATOM     18  H1  UNL     1     -24.808   3.283  61.232  1.00  0.00     0.168 HD
ENDBRANCH   1  10
TORSDOF 2
ENDMDL
MODEL 4
REMARK VINA RESULT: -5.777382460      2.264      5.792
REMARK  2 active torsions:
REMARK  status: ('A' for Active; 'I' for Inactive)
REMARK    1  A    between atoms: C3_3  and  C4_4 
REMARK    2  A    between atoms: C4_4  and  N1_5 
ROOT
HETATM    1  C4  UNL     1     -23.801   1.404  62.610  1.00  0.00     0.089 C 
ENDROOT
BRANCH   1   2
HETATM    2  C3  UNL     1     -23.376   1.666  61.181  1.00  0.00     0.125 C 
HETATM    3  C2  UNL     1     -22.869   3.090  61.084  1.00  0.00     0.075 C 
HETATM    4  C1  UNL     1     -21.982   3.344  59.933  1.00  0.00     0.064 C 
HETATM    5  N5  UNL     1     -21.752   2.287  59.035  1.00  0.00    -0.366 N 
HETATM    6  C8  UNL     1     -21.751   0.971  59.543  1.00  0.00     0.176 C 
ATOM      7  H5  UNL     1     -21.592   2.466  58.043  1.00  0.00     0.165 HD
HETATM    8  N4  UNL     1     -22.330   0.779  60.822  1.00  0.00    -0.377 N 
ATOM      9  H4  UNL     1     -22.012   0.041  61.450  1.00  0.00     0.161 HD
ENDBRANCH   1   2
BRANCH   1  10
HETATM   10  N1  UNL     1     -22.973   0.662  63.423  1.00  0.00    -0.340 N 
HETATM   11  C5  UNL     1     -23.100  -0.132  64.360  1.00  0.00     0.174 C 
HETATM   12  N2  UNL     1     -24.232  -0.644  65.035  1.00  0.00    -0.361 N 
HETATM   13  N3  UNL     1     -21.952  -0.766  65.009  1.00  0.00    -0.361 N 
HETATM   14  C6  UNL     1     -23.931  -1.993  65.504  1.00  0.00     0.142 C 
ATOM     15  H2  UNL     1     -25.114  -0.150  65.173  1.00  0.00     0.162 HD
HETATM   16  C7  UNL     1     -22.441  -1.965  65.648  1.00  0.00     0.142 C 
ATOM     17  H3  UNL     1     -20.990  -0.425  65.010  1.00  0.00     0.162 HD
ATOM     18  H1  UNL     1     -21.991   0.808  63.188  1.00  0.00     0.168 HD
ENDBRANCH   1  10
TORSDOF 2
ENDMDL
MODEL 5
REMARK VINA RESULT: -5.757313857      1.709      2.188
REMARK  2 active torsions:
REMARK  status: ('A' for Active; 'I' for Inactive)
REMARK    1  A    between atoms: C3_3  and  C4_4 
REMARK    2  A    between atoms: C4_4  and  N1_5 
ROOT
HETATM    1  C4  UNL     1     -23.357   3.066  60.801  1.00  0.00     0.089 C 
ENDROOT
BRANCH   1   2
HETATM    2  C3  UNL     1     -23.455   2.476  62.192  1.00  0.00     0.125 C 
HETATM    3  C2  UNL     1     -24.840   2.760  62.736  1.00  0.00     0.075 C 
HETATM    4  C1  UNL     1     -25.262   1.860  63.827  1.00  0.00     0.064 C 
HETATM    5  N5  UNL     1     -24.340   0.899  64.279  1.00  0.00    -0.366 N 
HETATM    6  C8  UNL     1     -23.429   0.362  63.346  1.00  0.00     0.176 C 
ATOM      7  H5  UNL     1     -24.331   0.599  65.254  1.00  0.00     0.165 HD
HETATM    8  N4  UNL     1     -23.261   1.073  62.133  1.00  0.00    -0.377 N 
ATOM      9  H4  UNL     1     -23.014   0.601  61.263  1.00  0.00     0.161 HD
ENDBRANCH   1   2
BRANCH   1  10
HETATM   10  N1  UNL     1     -22.166   2.958  60.117  1.00  0.00    -0.340 N 
HETATM   11  C5  UNL     1     -21.659   2.183  59.299  1.00  0.00     0.174 C 
HETATM   12  N2  UNL     1     -22.128   1.001  58.682  1.00  0.00    -0.361 N 
HETATM   13  N3  UNL     1     -20.317   2.390  58.754  1.00  0.00    -0.361 N 
HETATM   14  C6  UNL     1     -21.529   0.893  57.355  1.00  0.00     0.142 C 
ATOM     15  H2  UNL     1     -22.778   0.333  59.096  1.00  0.00     0.162 HD
HETATM   16  C7  UNL     1     -20.255   1.665  57.507  1.00  0.00     0.142 C 
ATOM     17  H3  UNL     1     -19.569   2.941  59.175  1.00  0.00     0.162 HD
ATOM     18  H1  UNL     1     -21.531   3.722  60.350  1.00  0.00     0.168 HD
ENDBRANCH   1  10
TORSDOF 2
ENDMDL
