MODEL 1
REMARK VINA RESULT: -5.369838112      0.000      0.000
REMARK  2 active torsions:
REMARK  status: ('A' for Active; 'I' for Inactive)
REMARK    1  A    between atoms: N1_2  and  C2_4 
REMARK    2  A    between atoms: C2_4  and  C3_5 
ROOT
HETATM    1  C3  UNL     1     -23.541   2.113  58.926  1.00  0.00     0.128 C 
HETATM    2  N2  UNL     1     -24.261   1.987  60.169  1.00  0.00    -0.359 N 
ATOM      3  H2  UNL     1     -25.244   2.223  60.310  1.00  0.00     0.162 HD
HETATM    4  C4  UNL     1     -23.369   1.476  61.184  1.00  0.00     0.168 C 
HETATM    5  S1  UNL     1     -23.653   1.324  62.785  1.00  0.00    -0.041 SA
HETATM    6  N3  UNL     1     -22.179   1.121  60.504  1.00  0.00    -0.357 N 
ATOM      7  H3  UNL     1     -21.497   0.419  60.788  1.00  0.00     0.162 HD
HETATM    8  C5  UNL     1     -22.127   1.960  59.320  1.00  0.00     0.047 C 
HETATM    9  C6  UNL     1     -21.164   1.458  58.333  1.00  0.00     0.040 C 
HETATM   10  C7  UNL     1     -21.672   3.335  59.848  1.00  0.00     0.040 C 
ENDROOT
BRANCH   1  11
HETATM   11  C2  UNL     1     -24.103   1.242  57.896  1.00  0.00     0.141 C 
BRANCH  11  12
HETATM   12  N1  UNL     1     -25.440   0.799  57.989  1.00  0.00    -0.423 N 
HETATM   13  C1  UNL     1     -25.664  -0.599  58.169  1.00  0.00     0.139 C 
ATOM     14  H1  UNL     1     -26.218   1.456  57.930  1.00  0.00     0.152 HD
ENDBRANCH  11  12
ENDBRANCH   1  11
TORSDOF 2
ENDMDL
MODEL 2
REMARK VINA RESULT: -5.338212419      1.041      1.042
REMARK  2 active torsions:
REMARK  status: ('A' for Active; 'I' for Inactive)
REMARK    1  A    between atoms: N1_2  and  C2_4 
REMARK    2  A    between atoms: C2_4  and  C3_5 
ROOT
HETATM    1  C3  UNL     1     -23.434   1.589  58.673  1.00  0.00     0.128 C 
HETATM    2  N2  UNL     1     -24.234   2.312  59.631  1.00  0.00    -0.359 N 
ATOM      3  H2  UNL     1     -25.072   2.851  59.414  1.00  0.00     0.162 HD
HETATM    4  C4  UNL     1     -23.659   2.149  60.947  1.00  0.00     0.168 C 
HETATM    5  S1  UNL     1     -24.088   2.906  62.329  1.00  0.00    -0.041 SA
HETATM    6  N3  UNL     1     -22.634   1.183  60.800  1.00  0.00    -0.357 N 
ATOM      7  H3  UNL     1     -22.274   0.558  61.520  1.00  0.00     0.162 HD
HETATM    8  C5  UNL     1     -22.202   1.263  59.416  1.00  0.00     0.047 C 
HETATM    9  C6  UNL     1     -21.420   0.087  59.016  1.00  0.00     0.040 C 
HETATM   10  C7  UNL     1     -21.317   2.525  59.367  1.00  0.00     0.040 C 
ENDROOT
BRANCH   1  11
HETATM   11  C2  UNL     1     -24.201   0.519  58.039  1.00  0.00     0.141 C 
BRANCH  11  12
HETATM   12  N1  UNL     1     -25.390   0.046  58.635  1.00  0.00    -0.423 N 
HETATM   13  C1  UNL     1     -25.315  -1.159  59.397  1.00  0.00     0.139 C 
ATOM     14  H1  UNL     1     -26.271   0.547  58.524  1.00  0.00     0.152 HD
ENDBRANCH  11  12
ENDBRANCH   1  11
TORSDOF 2
ENDMDL
MODEL 3
REMARK VINA RESULT: -5.244874864      2.257      4.094
REMARK  2 active torsions:
REMARK  status: ('A' for Active; 'I' for Inactive)
REMARK    1  A    between atoms: N1_2  and  C2_4 
REMARK    2  A    between atoms: C2_4  and  C3_5 
ROOT
HETATM    1  C3  UNL     1     -21.040   0.925  58.561  1.00  0.00     0.128 C 
HETATM    2  N2  UNL     1     -21.318   1.763  59.702  1.00  0.00    -0.359 N 
ATOM      3  H2  UNL     1     -20.630   2.075  60.387  1.00  0.00     0.162 HD
HETATM    4  C4  UNL     1     -22.725   2.088  59.719  1.00  0.00     0.168 C 
HETATM    5  S1  UNL     1     -23.563   2.857  60.893  1.00  0.00    -0.041 SA
HETATM    6  N3  UNL     1     -23.245   1.605  58.495  1.00  0.00    -0.357 N 
ATOM      7  H3  UNL     1     -24.064   1.954  57.996  1.00  0.00     0.162 HD
HETATM    8  C5  UNL     1     -22.377   0.513  58.091  1.00  0.00     0.047 C 
HETATM    9  C6  UNL     1     -22.558   0.160  56.679  1.00  0.00     0.040 C 
HETATM   10  C7  UNL     1     -22.808  -0.665  58.988  1.00  0.00     0.040 C 
ENDROOT
BRANCH   1  11
HETATM   11  C2  UNL     1     -20.119   1.579  57.634  1.00  0.00     0.141 C 
BRANCH  11  12
HETATM   12  N1  UNL     1     -19.054   2.365  58.124  1.00  0.00    -0.423 N 
HETATM   13  C1  UNL     1     -17.877   1.687  58.564  1.00  0.00     0.139 C 
ATOM     14  H1  UNL     1     -19.123   3.382  58.162  1.00  0.00     0.152 HD
ENDBRANCH  11  12
ENDBRANCH   1  11
TORSDOF 2
ENDMDL
MODEL 4
REMARK VINA RESULT: -5.074990204      1.483      3.504
REMARK  2 active torsions:
REMARK  status: ('A' for Active; 'I' for Inactive)
REMARK    1  A    between atoms: N1_2  and  C2_4 
REMARK    2  A    between atoms: C2_4  and  C3_5 
ROOT
HETATM    1  C3  UNL     1     -22.521   0.257  59.064  1.00  0.00     0.128 C 
HETATM    2  N2  UNL     1     -22.213   0.763  60.380  1.00  0.00    -0.359 N 
ATOM      3  H2  UNL     1     -21.347   0.594  60.891  1.00  0.00     0.162 HD
HETATM    4  C4  UNL     1     -23.329   1.546  60.859  1.00  0.00     0.168 C 
HETATM    5  S1  UNL     1     -23.543   2.181  62.349  1.00  0.00    -0.041 SA
HETATM    6  N3  UNL     1     -24.214   1.663  59.760  1.00  0.00    -0.357 N 
ATOM      7  H3  UNL     1     -24.889   2.410  59.593  1.00  0.00     0.162 HD
HETATM    8  C5  UNL     1     -23.968   0.505  58.920  1.00  0.00     0.047 C 
HETATM    9  C6  UNL     1     -24.531   0.671  57.576  1.00  0.00     0.040 C 
HETATM   10  C7  UNL     1     -24.681  -0.652  59.650  1.00  0.00     0.040 C 
ENDROOT
BRANCH   1  11
HETATM   11  C2  UNL     1     -21.595   0.783  58.064  1.00  0.00     0.141 C 
BRANCH  11  12
HETATM   12  N1  UNL     1     -20.668   1.789  58.410  1.00  0.00    -0.423 N 
HETATM   13  C1  UNL     1     -19.279   1.489  58.267  1.00  0.00     0.139 C 
ATOM     14  H1  UNL     1     -20.979   2.699  58.749  1.00  0.00     0.152 HD
ENDBRANCH  11  12
ENDBRANCH   1  11
TORSDOF 2
ENDMDL
MODEL 5
REMARK VINA RESULT: -5.045610153      2.270      3.401
REMARK  2 active torsions:
REMARK  status: ('A' for Active; 'I' for Inactive)
REMARK    1  A    between atoms: N1_2  and  C2_4 
REMARK    2  A    between atoms: C2_4  and  C3_5 
ROOT
HETATM    1  C3  UNL     1     -22.971   1.482  60.406  1.00  0.00     0.128 C 
HETATM    2  N2  UNL     1     -24.197   0.805  60.058  1.00  0.00    -0.359 N 
ATOM      3  H2  UNL     1     -24.942   0.560  60.710  1.00  0.00     0.162 HD
HETATM    4  C4  UNL     1     -24.199   0.531  58.640  1.00  0.00     0.168 C 
HETATM    5  S1  UNL     1     -25.273  -0.363  57.794  1.00  0.00    -0.041 SA
HETATM    6  N3  UNL     1     -23.071   1.207  58.117  1.00  0.00    -0.357 N 
ATOM      7  H3  UNL     1     -22.950   1.551  57.164  1.00  0.00     0.162 HD
HETATM    8  C5  UNL     1     -22.123   1.314  59.211  1.00  0.00     0.047 C 
HETATM    9  C6  UNL     1     -21.075   2.304  58.936  1.00  0.00     0.040 C 
HETATM   10  C7  UNL     1     -21.502  -0.094  59.313  1.00  0.00     0.040 C 
ENDROOT
BRANCH   1  11
HETATM   11  C2  UNL     1     -23.233   2.823  60.924  1.00  0.00     0.141 C 
BRANCH  11  12
HETATM   12  N1  UNL     1     -24.553   3.230  61.213  1.00  0.00    -0.423 N 
HETATM   13  C1  UNL     1     -24.954   3.256  62.583  1.00  0.00     0.139 C 
ATOM     14  H1  UNL     1     -25.198   3.496  60.469  1.00  0.00     0.152 HD
ENDBRANCH  11  12
ENDBRANCH   1  11
TORSDOF 2
ENDMDL
