MODEL 1
REMARK VINA RESULT: -5.986757256      0.000      0.000
REMARK  3 active torsions:
REMARK  status: ('A' for Active; 'I' for Inactive)
REMARK    1  A    between atoms: C2_2  and  N1_3 
REMARK    2  A    between atoms: N1_3  and  C3_5 
REMARK    3  A    between atoms: N5_15  and  C6_17 
ROOT
HETATM    1  C3  UNL     1     -23.829   2.726  61.612  1.00  0.00     0.694 A 
HETATM    2  N2  UNL     1     -25.047   3.143  61.999  1.00  0.00    -0.131 N 
ATOM      3  H2  UNL     1     -25.557   3.840  61.456  1.00  0.00     0.205 HD
HETATM    4  N3  UNL     1     -25.567   2.632  63.095  1.00  0.00    -0.268 N 
ATOM      5  H3  UNL     1     -26.491   2.946  63.393  1.00  0.00     0.189 HD
HETATM    6  C4  UNL     1     -24.922   1.707  63.844  1.00  0.00     0.159 A 
HETATM    7  N4  UNL     1     -25.474   1.253  64.887  1.00  0.00    -0.381 N 
ATOM      8  H41 UNL     1     -24.988   0.556  65.451  1.00  0.00     0.157 HD
ATOM      9  H42 UNL     1     -26.398   1.585  65.162  1.00  0.00     0.157 HD
HETATM   10  C5  UNL     1     -23.675   1.259  63.474  1.00  0.00     0.166 A 
HETATM   11  N5  UNL     1     -22.966   0.399  64.083  1.00  0.00    -0.353 N 
ATOM     12  H5  UNL     1     -22.069   0.214  63.634  1.00  0.00     0.166 HD
HETATM   13  N6  UNL     1     -23.181   1.822  62.328  1.00  0.00    -0.172 N 
ATOM     14  H6  UNL     1     -22.259   1.527  62.008  1.00  0.00     0.186 HD
ENDROOT
BRANCH   1  15
HETATM   15  N1  UNL     1     -23.277   3.208  60.528  1.00  0.00    -0.225 N 
ATOM     16  H1  UNL     1     -23.102   4.212  60.477  1.00  0.00     0.177 HD
BRANCH  15  17
HETATM   17  C2  UNL     1     -22.907   2.398  59.413  1.00  0.00     0.134 C 
HETATM   18  C1  UNL     1     -24.149   2.227  58.538  1.00  0.00     0.027 C 
ENDBRANCH  15  17
ENDBRANCH   1  15
BRANCH  11  19
HETATM   19  C6  UNL     1     -23.174  -0.347  65.253  1.00  0.00     0.058 C 
HETATM   20  C7  UNL     1     -23.442  -1.818  65.040  1.00  0.00     0.054 C 
ENDBRANCH  11  19
TORSDOF 3
ENDMDL
MODEL 2
REMARK VINA RESULT: -5.955521846      1.091      1.149
REMARK  3 active torsions:
REMARK  status: ('A' for Active; 'I' for Inactive)
REMARK    1  A    between atoms: C2_2  and  N1_3 
REMARK    2  A    between atoms: N1_3  and  C3_5 
REMARK    3  A    between atoms: N5_15  and  C6_17 
ROOT
HETATM    1  C3  UNL     1     -23.400   2.730  60.774  1.00  0.00     0.694 A 
HETATM    2  N2  UNL     1     -24.540   3.407  61.003  1.00  0.00    -0.131 N 
ATOM      3  H2  UNL     1     -24.876   4.103  60.336  1.00  0.00     0.205 HD
HETATM    4  N3  UNL     1     -25.211   3.152  62.106  1.00  0.00    -0.268 N 
ATOM      5  H3  UNL     1     -26.076   3.664  62.283  1.00  0.00     0.189 HD
HETATM    6  C4  UNL     1     -24.798   2.238  63.014  1.00  0.00     0.159 A 
HETATM    7  N4  UNL     1     -25.487   2.037  64.056  1.00  0.00    -0.381 N 
ATOM      8  H41 UNL     1     -25.177   1.348  64.741  1.00  0.00     0.157 HD
ATOM      9  H42 UNL     1     -26.347   2.564  64.208  1.00  0.00     0.157 HD
HETATM   10  C5  UNL     1     -23.638   1.528  62.810  1.00  0.00     0.166 A 
HETATM   11  N5  UNL     1     -23.141   0.646  63.578  1.00  0.00    -0.353 N 
ATOM     12  H5  UNL     1     -22.270   0.244  63.232  1.00  0.00     0.166 HD
HETATM   13  N6  UNL     1     -22.979   1.831  61.649  1.00  0.00    -0.172 N 
ATOM     14  H6  UNL     1     -22.111   1.335  61.446  1.00  0.00     0.186 HD
ENDROOT
BRANCH   1  15
HETATM   15  N1  UNL     1     -22.703   2.952  59.689  1.00  0.00    -0.225 N 
ATOM     16  H1  UNL     1     -23.015   3.687  59.054  1.00  0.00     0.177 HD
BRANCH  15  17
HETATM   17  C2  UNL     1     -21.528   2.216  59.352  1.00  0.00     0.134 C 
HETATM   18  C1  UNL     1     -21.899   1.250  58.226  1.00  0.00     0.027 C 
ENDBRANCH  15  17
ENDBRANCH   1  15
BRANCH  11  19
HETATM   19  C6  UNL     1     -23.556   0.118  64.809  1.00  0.00     0.058 C 
HETATM   20  C7  UNL     1     -23.397  -1.378  64.955  1.00  0.00     0.054 C 
ENDBRANCH  11  19
TORSDOF 3
ENDMDL
MODEL 3
REMARK VINA RESULT: -5.845340185      1.060      4.986
REMARK  3 active torsions:
REMARK  status: ('A' for Active; 'I' for Inactive)
REMARK    1  A    between atoms: C2_2  and  N1_3 
REMARK    2  A    between atoms: N1_3  and  C3_5 
REMARK    3  A    between atoms: N5_15  and  C6_17 
ROOT
HETATM    1  C3  UNL     1     -23.203  -0.097  64.816  1.00  0.00     0.694 A 
HETATM    2  N2  UNL     1     -24.409   0.160  65.354  1.00  0.00    -0.131 N 
ATOM      3  H2  UNL     1     -24.710  -0.312  66.207  1.00  0.00     0.205 HD
HETATM    4  N3  UNL     1     -25.191   1.033  64.756  1.00  0.00    -0.268 N 
ATOM      5  H3  UNL     1     -26.106   1.230  65.161  1.00  0.00     0.189 HD
HETATM    6  C4  UNL     1     -24.827   1.679  63.623  1.00  0.00     0.159 A 
HETATM    7  N4  UNL     1     -25.623   2.509  63.095  1.00  0.00    -0.381 N 
ATOM      8  H41 UNL     1     -25.350   2.996  62.242  1.00  0.00     0.157 HD
ATOM      9  H42 UNL     1     -26.533   2.686  63.521  1.00  0.00     0.157 HD
HETATM   10  C5  UNL     1     -23.601   1.440  63.049  1.00  0.00     0.166 A 
HETATM   11  N5  UNL     1     -23.139   1.976  61.993  1.00  0.00    -0.353 N 
ATOM     12  H5  UNL     1     -22.205   1.652  61.743  1.00  0.00     0.166 HD
HETATM   13  N6  UNL     1     -22.828   0.524  63.710  1.00  0.00    -0.172 N 
ATOM     14  H6  UNL     1     -21.908   0.308  63.327  1.00  0.00     0.186 HD
ENDROOT
BRANCH   1  15
HETATM   15  N1  UNL     1     -22.395  -0.958  65.380  1.00  0.00    -0.225 N 
ATOM     16  H1  UNL     1     -21.441  -0.663  65.591  1.00  0.00     0.177 HD
BRANCH  15  17
HETATM   17  C2  UNL     1     -22.783  -2.290  65.714  1.00  0.00     0.134 C 
HETATM   18  C1  UNL     1     -21.619  -3.211  65.350  1.00  0.00     0.027 C 
ENDBRANCH  15  17
ENDBRANCH   1  15
BRANCH  11  19
HETATM   19  C6  UNL     1     -23.663   2.926  61.103  1.00  0.00     0.058 C 
HETATM   20  C7  UNL     1     -23.456   2.619  59.638  1.00  0.00     0.054 C 
ENDBRANCH  11  19
TORSDOF 3
ENDMDL
MODEL 4
REMARK VINA RESULT: -5.827672753      1.835      4.560
REMARK  3 active torsions:
REMARK  status: ('A' for Active; 'I' for Inactive)
REMARK    1  A    between atoms: C2_2  and  N1_3 
REMARK    2  A    between atoms: N1_3  and  C3_5 
REMARK    3  A    between atoms: N5_15  and  C6_17 
ROOT
HETATM    1  C3  UNL     1     -25.207   2.386  63.089  1.00  0.00     0.694 A 
HETATM    2  N2  UNL     1     -25.540   3.474  62.372  1.00  0.00    -0.131 N 
ATOM      3  H2  UNL     1     -26.248   4.126  62.712  1.00  0.00     0.205 HD
HETATM    4  N3  UNL     1     -24.934   3.678  61.222  1.00  0.00    -0.268 N 
ATOM      5  H3  UNL     1     -25.184   4.503  60.675  1.00  0.00     0.189 HD
HETATM    6  C4  UNL     1     -23.992   2.837  60.736  1.00  0.00     0.159 A 
HETATM    7  N4  UNL     1     -23.444   3.088  59.624  1.00  0.00    -0.381 N 
ATOM      8  H41 UNL     1     -22.733   2.454  59.258  1.00  0.00     0.157 HD
ATOM      9  H42 UNL     1     -23.713   3.919  59.098  1.00  0.00     0.157 HD
HETATM   10  C5  UNL     1     -23.628   1.716  61.445  1.00  0.00     0.166 A 
HETATM   11  N5  UNL     1     -22.763   0.850  61.105  1.00  0.00    -0.353 N 
ATOM     12  H5  UNL     1     -22.650   0.095  61.782  1.00  0.00     0.166 HD
HETATM   13  N6  UNL     1     -24.288   1.550  62.633  1.00  0.00    -0.172 N 
ATOM     14  H6  UNL     1     -24.059   0.734  63.199  1.00  0.00     0.186 HD
ENDROOT
BRANCH   1  15
HETATM   15  N1  UNL     1     -25.786   2.146  64.238  1.00  0.00    -0.225 N 
ATOM     16  H1  UNL     1     -26.606   2.697  64.493  1.00  0.00     0.177 HD
BRANCH  15  17
HETATM   17  C2  UNL     1     -25.325   1.151  65.151  1.00  0.00     0.134 C 
HETATM   18  C1  UNL     1     -26.215   1.220  66.392  1.00  0.00     0.027 C 
ENDBRANCH  15  17
ENDBRANCH   1  15
BRANCH  11  19
HETATM   19  C6  UNL     1     -21.932   0.728  59.982  1.00  0.00     0.058 C 
HETATM   20  C7  UNL     1     -22.325  -0.355  59.004  1.00  0.00     0.054 C 
ENDBRANCH  11  19
TORSDOF 3
ENDMDL
MODEL 5
REMARK VINA RESULT: -5.809135405      1.636      2.413
REMARK  3 active torsions:
REMARK  status: ('A' for Active; 'I' for Inactive)
REMARK    1  A    between atoms: C2_2  and  N1_3 
REMARK    2  A    between atoms: N1_3  and  C3_5 
REMARK    3  A    between atoms: N5_15  and  C6_17 
ROOT
HETATM    1  C3  UNL     1     -22.718   1.833  60.699  1.00  0.00     0.694 A 
HETATM    2  N2  UNL     1     -23.375   2.904  60.219  1.00  0.00    -0.131 N 
ATOM      3  H2  UNL     1     -23.108   3.323  59.328  1.00  0.00     0.205 HD
HETATM    4  N3  UNL     1     -24.369   3.400  60.925  1.00  0.00    -0.268 N 
ATOM      5  H3  UNL     1     -24.870   4.212  60.564  1.00  0.00     0.189 HD
HETATM    6  C4  UNL     1     -24.753   2.873  62.111  1.00  0.00     0.159 A 
HETATM    7  N4  UNL     1     -25.717   3.393  62.743  1.00  0.00    -0.381 N 
ATOM      8  H41 UNL     1     -26.006   2.997  63.637  1.00  0.00     0.157 HD
ATOM      9  H42 UNL     1     -26.200   4.206  62.359  1.00  0.00     0.157 HD
HETATM   10  C5  UNL     1     -24.102   1.777  62.629  1.00  0.00     0.166 A 
HETATM   11  N5  UNL     1     -24.361   1.188  63.725  1.00  0.00    -0.353 N 
ATOM     12  H5  UNL     1     -23.751   0.393  63.917  1.00  0.00     0.166 HD
HETATM   13  N6  UNL     1     -23.077   1.302  61.856  1.00  0.00    -0.172 N 
ATOM     14  H6  UNL     1     -22.559   0.491  62.193  1.00  0.00     0.186 HD
ENDROOT
BRANCH   1  15
HETATM   15  N1  UNL     1     -21.724   1.310  60.028  1.00  0.00    -0.225 N 
ATOM     16  H1  UNL     1     -20.923   0.951  60.548  1.00  0.00     0.177 HD
BRANCH  15  17
HETATM   17  C2  UNL     1     -21.706   1.217  58.604  1.00  0.00     0.134 C 
HETATM   18  C1  UNL     1     -20.326   1.675  58.132  1.00  0.00     0.027 C 
ENDBRANCH  15  17
ENDBRANCH   1  15
BRANCH  11  19
HETATM   19  C6  UNL     1     -25.320   1.417  64.722  1.00  0.00     0.058 C 
HETATM   20  C7  UNL     1     -25.284   0.451  65.884  1.00  0.00     0.054 C 
ENDBRANCH  11  19
TORSDOF 3
ENDMDL
