MODEL 1
REMARK VINA RESULT: -6.767170395      0.000      0.000
REMARK  4 active torsions:
REMARK  status: ('A' for Active; 'I' for Inactive)
REMARK       I    between atoms: C1_4  and  N3_6 
REMARK    1  A    between atoms: N3_6  and  C2_8 
REMARK    2  A    between atoms: C2_8  and  C3_9 
REMARK    3  A    between atoms: C2_8  and  C9_20 
REMARK       I    between atoms: C3_9  and  N4_11 
REMARK    4  A    between atoms: N4_11  and  C4_13 
ROOT
HETATM    1  C2  UNL     1     -14.522   2.580  11.911  1.00  0.00     0.190 C 
ENDROOT
BRANCH   1   2
HETATM    2  N3  UNL     1     -13.726   2.477  10.757  1.00  0.00    -0.350 N 
HETATM    3  C1  UNL     1     -12.738   1.643  10.254  1.00  0.00     0.182 C 
HETATM    4  N1  UNL     1     -11.485   1.760  10.341  1.00  0.00    -0.374 N 
HETATM    5  N2  UNL     1     -13.146   0.456   9.465  1.00  0.00    -0.064 NA
ATOM      6  H12 UNL     1     -10.758   1.147   9.971  1.00  0.00     0.158 HD
ATOM      7  H11 UNL     1     -11.204   2.577  10.884  1.00  0.00     0.158 HD
ATOM      8  H3  UNL     1     -13.935   3.231  10.103  1.00  0.00     0.163 HD
ENDBRANCH   1   2
BRANCH   1   9
HETATM    9  C3  UNL     1     -15.973   2.936  11.709  1.00  0.00     0.242 C 
HETATM   10  O1  UNL     1     -16.570   2.284  10.813  1.00  0.00    -0.271 OA
HETATM   11  N4  UNL     1     -16.502   3.935  12.512  1.00  0.00    -0.350 N 
ATOM     12  H4  UNL     1     -15.839   4.406  13.127  1.00  0.00     0.163 HD
BRANCH  11  13
HETATM   13  C4  UNL     1     -17.835   4.387  12.591  1.00  0.00     0.122 C 
HETATM   14  C5  UNL     1     -17.866   5.917  12.830  1.00  0.00     0.032 C 
HETATM   15  C6  UNL     1     -19.272   6.302  12.393  1.00  0.00     0.022 C 
HETATM   16  C7  UNL     1     -20.176   5.688  13.414  1.00  0.00     0.119 C 
HETATM   17  N5  UNL     1     -20.002   4.322  13.717  1.00  0.00    -0.400 N 
HETATM   18  C8  UNL     1     -18.693   3.750  13.569  1.00  0.00     0.080 C 
ATOM     19  H5  UNL     1     -20.787   3.753  14.033  1.00  0.00     0.158 HD
ENDBRANCH  11  13
ENDBRANCH   1   9
BRANCH   1  20
HETATM   20  C9  UNL     1     -14.072   3.546  12.994  1.00  0.00     0.080 C 
HETATM   21  C10 UNL     1     -13.556   2.958  14.240  1.00  0.00     0.028 C 
HETATM   22  C11 UNL     1     -12.109   3.247  13.997  1.00  0.00     0.075 C 
HETATM   23  S1  UNL     1     -12.529   4.436  12.663  1.00  0.00    -0.162 SA
ENDBRANCH   1  20
TORSDOF 4
ENDMDL
MODEL 2
REMARK VINA RESULT: -6.546849292      1.912      2.955
REMARK  4 active torsions:
REMARK  status: ('A' for Active; 'I' for Inactive)
REMARK       I    between atoms: C1_4  and  N3_6 
REMARK    1  A    between atoms: N3_6  and  C2_8 
REMARK    2  A    between atoms: C2_8  and  C3_9 
REMARK    3  A    between atoms: C2_8  and  C9_20 
REMARK       I    between atoms: C3_9  and  N4_11 
REMARK    4  A    between atoms: N4_11  and  C4_13 
ROOT
HETATM    1  C2  UNL     1     -14.518   2.961  12.105  1.00  0.00     0.190 C 
ENDROOT
BRANCH   1   2
HETATM    2  N3  UNL     1     -14.187   2.403  13.352  1.00  0.00    -0.350 N 
HETATM    3  C1  UNL     1     -13.841   2.843  14.622  1.00  0.00     0.182 C 
HETATM    4  N1  UNL     1     -12.691   3.025  15.108  1.00  0.00    -0.374 N 
HETATM    5  N2  UNL     1     -14.922   3.113  15.598  1.00  0.00    -0.064 NA
ATOM      6  H12 UNL     1     -12.436   3.348  16.041  1.00  0.00     0.158 HD
ATOM      7  H11 UNL     1     -11.946   2.839  14.436  1.00  0.00     0.158 HD
ATOM      8  H3  UNL     1     -14.208   1.384  13.311  1.00  0.00     0.163 HD
ENDBRANCH   1   2
BRANCH   1   9
HETATM    9  C3  UNL     1     -15.983   3.175  11.820  1.00  0.00     0.242 C 
HETATM   10  O1  UNL     1     -16.487   2.400  10.966  1.00  0.00    -0.271 OA
HETATM   11  N4  UNL     1     -16.625   4.192  12.510  1.00  0.00    -0.350 N 
ATOM     12  H4  UNL     1     -16.028   4.768  13.103  1.00  0.00     0.163 HD
BRANCH  11  13
HETATM   13  C4  UNL     1     -17.991   4.536  12.501  1.00  0.00     0.122 C 
HETATM   14  C5  UNL     1     -18.154   6.076  12.493  1.00  0.00     0.032 C 
HETATM   15  C6  UNL     1     -19.575   6.266  11.984  1.00  0.00     0.022 C 
HETATM   16  C7  UNL     1     -20.451   5.747  13.080  1.00  0.00     0.119 C 
HETATM   17  N5  UNL     1     -20.172   4.466  13.599  1.00  0.00    -0.400 N 
HETATM   18  C8  UNL     1     -18.818   3.991  13.559  1.00  0.00     0.080 C 
ATOM     19  H5  UNL     1     -20.916   3.890  13.994  1.00  0.00     0.158 HD
ENDBRANCH  11  13
ENDBRANCH   1   9
BRANCH   1  20
HETATM   20  C9  UNL     1     -14.020   2.248  10.859  1.00  0.00     0.080 C 
HETATM   21  C10 UNL     1     -13.139   3.011   9.961  1.00  0.00     0.028 C 
HETATM   22  C11 UNL     1     -11.861   2.326  10.328  1.00  0.00     0.075 C 
HETATM   23  S1  UNL     1     -12.780   0.957  11.134  1.00  0.00    -0.162 SA
ENDBRANCH   1  20
TORSDOF 4
ENDMDL
MODEL 3
REMARK VINA RESULT: -6.532771272      2.314      3.151
REMARK  4 active torsions:
REMARK  status: ('A' for Active; 'I' for Inactive)
REMARK       I    between atoms: C1_4  and  N3_6 
REMARK    1  A    between atoms: N3_6  and  C2_8 
REMARK    2  A    between atoms: C2_8  and  C3_9 
REMARK    3  A    between atoms: C2_8  and  C9_20 
REMARK       I    between atoms: C3_9  and  N4_11 
REMARK    4  A    between atoms: N4_11  and  C4_13 
ROOT
HETATM    1  C2  UNL     1     -15.022   3.009  12.449  1.00  0.00     0.190 C 
ENDROOT
BRANCH   1   2
HETATM    2  N3  UNL     1     -15.009   2.288  13.656  1.00  0.00    -0.350 N 
HETATM    3  C1  UNL     1     -15.881   1.992  14.694  1.00  0.00     0.182 C 
HETATM    4  N1  UNL     1     -16.038   2.597  15.791  1.00  0.00    -0.374 N 
HETATM    5  N2  UNL     1     -16.746   0.794  14.575  1.00  0.00    -0.064 NA
ATOM      6  H12 UNL     1     -16.679   2.380  16.553  1.00  0.00     0.158 HD
ATOM      7  H11 UNL     1     -15.443   3.422  15.873  1.00  0.00     0.158 HD
ATOM      8  H3  UNL     1     -14.097   1.859  13.813  1.00  0.00     0.163 HD
ENDBRANCH   1   2
BRANCH   1   9
HETATM    9  C3  UNL     1     -16.372   3.392  11.899  1.00  0.00     0.242 C 
HETATM   10  O1  UNL     1     -16.722   2.784  10.854  1.00  0.00    -0.271 OA
HETATM   11  N4  UNL     1     -17.085   4.366  12.580  1.00  0.00    -0.350 N 
ATOM     12  H4  UNL     1     -16.599   4.803  13.363  1.00  0.00     0.163 HD
BRANCH  11  13
HETATM   13  C4  UNL     1     -18.392   4.833  12.335  1.00  0.00     0.122 C 
HETATM   14  C5  UNL     1     -18.386   6.373  12.169  1.00  0.00     0.032 C 
HETATM   15  C6  UNL     1     -19.693   6.642  11.437  1.00  0.00     0.022 C 
HETATM   16  C7  UNL     1     -20.765   6.321  12.429  1.00  0.00     0.119 C 
HETATM   17  N5  UNL     1     -20.701   5.079  13.094  1.00  0.00    -0.400 N 
HETATM   18  C8  UNL     1     -19.413   4.478  13.300  1.00  0.00     0.080 C 
ATOM     19  H5  UNL     1     -21.550   4.618  13.420  1.00  0.00     0.158 HD
ENDBRANCH  11  13
ENDBRANCH   1   9
BRANCH   1  20
HETATM   20  C9  UNL     1     -14.318   2.393  11.252  1.00  0.00     0.080 C 
HETATM   21  C10 UNL     1     -13.414   3.268  10.488  1.00  0.00     0.028 C 
HETATM   22  C11 UNL     1     -12.129   2.688  10.985  1.00  0.00     0.075 C 
HETATM   23  S1  UNL     1     -13.001   1.210  11.637  1.00  0.00    -0.162 SA
ENDBRANCH   1  20
TORSDOF 4
ENDMDL
MODEL 4
REMARK VINA RESULT: -6.410845457      3.159      7.046
REMARK  4 active torsions:
REMARK  status: ('A' for Active; 'I' for Inactive)
REMARK       I    between atoms: C1_4  and  N3_6 
REMARK    1  A    between atoms: N3_6  and  C2_8 
REMARK    2  A    between atoms: C2_8  and  C3_9 
REMARK    3  A    between atoms: C2_8  and  C9_20 
REMARK       I    between atoms: C3_9  and  N4_11 
REMARK    4  A    between atoms: N4_11  and  C4_13 
ROOT
HETATM    1  C2  UNL     1     -17.403   6.374  13.158  1.00  0.00     0.190 C 
ENDROOT
BRANCH   1   2
HETATM    2  N3  UNL     1     -17.650   7.758  13.193  1.00  0.00    -0.350 N 
HETATM    3  C1  UNL     1     -18.249   8.680  14.039  1.00  0.00     0.182 C 
HETATM    4  N1  UNL     1     -19.436   9.109  14.027  1.00  0.00    -0.374 N 
HETATM    5  N2  UNL     1     -17.425   9.313  15.097  1.00  0.00    -0.064 NA
ATOM      6  H12 UNL     1     -19.876   9.787  14.648  1.00  0.00     0.158 HD
ATOM      7  H11 UNL     1     -20.003   8.674  13.299  1.00  0.00     0.158 HD
ATOM      8  H3  UNL     1     -17.283   8.213  12.357  1.00  0.00     0.163 HD
ENDBRANCH   1   2
BRANCH   1   9
HETATM    9  C3  UNL     1     -16.108   5.927  12.528  1.00  0.00     0.242 C 
HETATM   10  O1  UNL     1     -15.456   6.828  11.938  1.00  0.00    -0.271 OA
HETATM   11  N4  UNL     1     -15.768   4.589  12.652  1.00  0.00    -0.350 N 
ATOM     12  H4  UNL     1     -16.467   3.995  13.097  1.00  0.00     0.163 HD
BRANCH  11  13
HETATM   13  C4  UNL     1     -14.585   3.941  12.244  1.00  0.00     0.122 C 
HETATM   14  C5  UNL     1     -14.878   2.997  11.051  1.00  0.00     0.032 C 
HETATM   15  C6  UNL     1     -13.502   2.791  10.434  1.00  0.00     0.022 C 
HETATM   16  C7  UNL     1     -12.742   1.988  11.441  1.00  0.00     0.119 C 
HETATM   17  N5  UNL     1     -12.732   2.441  12.777  1.00  0.00    -0.400 N 
HETATM   18  C8  UNL     1     -13.856   3.198  13.252  1.00  0.00     0.080 C 
ATOM     19  H5  UNL     1     -11.944   2.236  13.391  1.00  0.00     0.158 HD
ENDBRANCH  11  13
ENDBRANCH   1   9
BRANCH   1  20
HETATM   20  C9  UNL     1     -18.442   5.490  12.488  1.00  0.00     0.080 C 
HETATM   21  C10 UNL     1     -19.449   4.866  13.361  1.00  0.00     0.028 C 
HETATM   22  C11 UNL     1     -20.596   5.747  12.980  1.00  0.00     0.075 C 
HETATM   23  S1  UNL     1     -19.692   6.352  11.503  1.00  0.00    -0.162 SA
ENDBRANCH   1  20
TORSDOF 4
ENDMDL
MODEL 5
REMARK VINA RESULT: -6.352538263      5.196      7.698
REMARK  4 active torsions:
REMARK  status: ('A' for Active; 'I' for Inactive)
REMARK       I    between atoms: C1_4  and  N3_6 
REMARK    1  A    between atoms: N3_6  and  C2_8 
REMARK    2  A    between atoms: C2_8  and  C3_9 
REMARK    3  A    between atoms: C2_8  and  C9_20 
REMARK       I    between atoms: C3_9  and  N4_11 
REMARK    4  A    between atoms: N4_11  and  C4_13 
ROOT
HETATM    1  C2  UNL     1     -16.389   6.725  13.810  1.00  0.00     0.190 C 
ENDROOT
BRANCH   1   2
HETATM    2  N3  UNL     1     -17.017   7.485  14.811  1.00  0.00    -0.350 N 
HETATM    3  C1  UNL     1     -17.119   8.817  15.187  1.00  0.00     0.182 C 
HETATM    4  N1  UNL     1     -16.422   9.458  16.021  1.00  0.00    -0.374 N 
HETATM    5  N2  UNL     1     -18.198   9.642  14.592  1.00  0.00    -0.064 NA
ATOM      6  H12 UNL     1     -16.497  10.437  16.297  1.00  0.00     0.158 HD
ATOM      7  H11 UNL     1     -15.679   8.891  16.431  1.00  0.00     0.158 HD
ATOM      8  H3  UNL     1     -17.550   6.887  15.442  1.00  0.00     0.163 HD
ENDBRANCH   1   2
BRANCH   1   9
HETATM    9  C3  UNL     1     -15.413   7.446  12.916  1.00  0.00     0.242 C 
HETATM   10  O1  UNL     1     -15.507   7.183  11.689  1.00  0.00    -0.271 OA
HETATM   11  N4  UNL     1     -14.515   8.312  13.521  1.00  0.00    -0.350 N 
ATOM     12  H4  UNL     1     -14.538   8.331  14.541  1.00  0.00     0.163 HD
BRANCH  11  13
HETATM   13  C4  UNL     1     -13.574   9.169  12.915  1.00  0.00     0.122 C 
HETATM   14  C5  UNL     1     -12.232   8.425  12.707  1.00  0.00     0.032 C 
HETATM   15  C6  UNL     1     -11.542   9.261  11.639  1.00  0.00     0.022 C 
HETATM   16  C7  UNL     1     -11.215  10.556  12.313  1.00  0.00     0.119 C 
HETATM   17  N5  UNL     1     -12.247  11.217  13.010  1.00  0.00    -0.400 N 
HETATM   18  C8  UNL     1     -13.304  10.429  13.578  1.00  0.00     0.080 C 
ATOM     19  H5  UNL     1     -12.242  12.232  13.109  1.00  0.00     0.158 HD
ENDBRANCH  11  13
ENDBRANCH   1   9
BRANCH   1  20
HETATM   20  C9  UNL     1     -17.279   5.981  12.828  1.00  0.00     0.080 C 
HETATM   21  C10 UNL     1     -17.692   4.619  13.203  1.00  0.00     0.028 C 
HETATM   22  C11 UNL     1     -19.108   4.946  13.558  1.00  0.00     0.075 C 
HETATM   23  S1  UNL     1     -18.987   6.570  12.711  1.00  0.00    -0.162 SA
ENDBRANCH   1  20
TORSDOF 4
ENDMDL
