MODEL 1
REMARK VINA RESULT: -6.303119600      0.000      0.000
REMARK  7 active torsions:
REMARK  status: ('A' for Active; 'I' for Inactive)
REMARK    1  A    between atoms: N1_1  and  C1_5 
REMARK    2  A    between atoms: C1_5  and  C2_6 
REMARK    3  A    between atoms: C5_9  and  C6_10 
REMARK    4  A    between atoms: C6_10  and  N2_11 
REMARK    5  A    between atoms: N2_11  and  C7_13 
REMARK    6  A    between atoms: C7_13  and  N3_15 
REMARK    7  A    between atoms: N3_15  and  C8_17 
ROOT
HETATM    1  N2  UNL     1     -18.677   4.190  12.727  1.00  0.00    -0.367 N 
ATOM      2  H2  UNL     1     -18.574   4.098  11.716  1.00  0.00     0.161 HD
ENDROOT
BRANCH   1   3
HETATM    3  C6  UNL     1     -18.287   3.083  13.577  1.00  0.00     0.126 C 
BRANCH   3   4
HETATM    4  C5  UNL     1     -16.965   2.486  13.138  1.00  0.00     0.003 C 
HETATM    5  C4  UNL     1     -16.044   2.483  14.296  1.00  0.00     0.007 C 
HETATM    6  C3  UNL     1     -14.604   2.669  13.988  1.00  0.00     0.007 C 
HETATM    7  C2  UNL     1     -14.460   3.832  13.034  1.00  0.00     0.011 C 
HETATM    8  C13 UNL     1     -15.057   3.325  11.721  1.00  0.00     0.007 C 
HETATM    9  C12 UNL     1     -16.518   3.172  11.910  1.00  0.00     0.007 C 
BRANCH   7  10
HETATM   10  C1  UNL     1     -13.018   4.189  12.777  1.00  0.00     0.234 C 
BRANCH  10  11
HETATM   11  N1  UNL     1     -12.185   3.460  13.708  1.00  0.00    -0.079 N 
ATOM     12  H13 UNL     1     -12.649   3.298  14.602  1.00  0.00     0.274 HD
ATOM     13  H12 UNL     1     -12.058   2.485  13.437  1.00  0.00     0.274 HD
ATOM     14  H11 UNL     1     -11.299   3.955  13.813  1.00  0.00     0.274 HD
ENDBRANCH  10  11
ENDBRANCH   7  10
ENDBRANCH   3   4
ENDBRANCH   1   3
BRANCH   1  15
HETATM   15  C7  UNL     1     -19.198   5.398  13.261  1.00  0.00     0.169 C 
HETATM   16  S1  UNL     1     -20.682   5.923  12.872  1.00  0.00    -0.041 SA
BRANCH  15  17
HETATM   17  N3  UNL     1     -18.414   6.168  14.152  1.00  0.00    -0.338 N 
ATOM     18  H3  UNL     1     -18.120   5.767  15.043  1.00  0.00     0.164 HD
BRANCH  17  19
HETATM   19  C8  UNL     1     -18.028   7.508  13.812  1.00  0.00     0.311 C 
HETATM   20  C9  UNL     1     -17.047   8.060  14.793  1.00  0.00     0.286 C 
HETATM   21  N4  UNL     1     -15.926   8.667  14.096  1.00  0.00    -0.070 N 
HETATM   22  C10 UNL     1     -15.213   7.701  13.311  1.00  0.00     0.260 C 
ATOM     23  H42 UNL     1     -16.222   9.462  13.531  1.00  0.00     0.277 HD
ATOM     24  H41 UNL     1     -15.305   9.155  14.741  1.00  0.00     0.277 HD
HETATM   25  C11 UNL     1     -16.168   6.930  12.421  1.00  0.00     0.262 C 
HETATM   26  N5  UNL     1     -17.482   7.540  12.454  1.00  0.00    -0.051 N 
ATOM     27  H52 UNL     1     -18.116   7.111  11.780  1.00  0.00     0.279 HD
ATOM     28  H51 UNL     1     -17.471   8.486  12.073  1.00  0.00     0.279 HD
ENDBRANCH  17  19
ENDBRANCH  15  17
ENDBRANCH   1  15
TORSDOF 7
ENDMDL
MODEL 2
REMARK VINA RESULT: -6.087255932      2.834      4.232
REMARK  7 active torsions:
REMARK  status: ('A' for Active; 'I' for Inactive)
REMARK    1  A    between atoms: N1_1  and  C1_5 
REMARK    2  A    between atoms: C1_5  and  C2_6 
REMARK    3  A    between atoms: C5_9  and  C6_10 
REMARK    4  A    between atoms: C6_10  and  N2_11 
REMARK    5  A    between atoms: N2_11  and  C7_13 
REMARK    6  A    between atoms: C7_13  and  N3_15 
REMARK    7  A    between atoms: N3_15  and  C8_17 
ROOT
HETATM    1  N2  UNL     1     -18.028   7.114  14.060  1.00  0.00    -0.367 N 
ATOM      2  H2  UNL     1     -18.313   6.522  14.840  1.00  0.00     0.161 HD
ENDROOT
BRANCH   1   3
HETATM    3  C6  UNL     1     -18.567   6.849  12.741  1.00  0.00     0.126 C 
BRANCH   3   4
HETATM    4  C5  UNL     1     -18.433   5.385  12.372  1.00  0.00     0.003 C 
HETATM    5  C4  UNL     1     -19.209   4.584  13.343  1.00  0.00     0.007 C 
HETATM    6  C3  UNL     1     -18.672   3.236  13.658  1.00  0.00     0.007 C 
HETATM    7  C2  UNL     1     -17.192   3.359  13.938  1.00  0.00     0.011 C 
HETATM    8  C13 UNL     1     -16.573   3.697  12.581  1.00  0.00     0.007 C 
HETATM    9  C12 UNL     1     -17.002   5.065  12.209  1.00  0.00     0.007 C 
BRANCH   7  10
HETATM   10  C1  UNL     1     -16.587   2.062  14.409  1.00  0.00     0.234 C 
BRANCH  10  11
HETATM   11  N1  UNL     1     -16.172   2.216  15.787  1.00  0.00    -0.079 N 
ATOM     12  H13 UNL     1     -16.950   2.444  16.405  1.00  0.00     0.274 HD
ATOM     13  H12 UNL     1     -15.907   1.329  16.215  1.00  0.00     0.274 HD
ATOM     14  H11 UNL     1     -15.425   2.908  15.829  1.00  0.00     0.274 HD
ENDBRANCH  10  11
ENDBRANCH   7  10
ENDBRANCH   3   4
ENDBRANCH   1   3
BRANCH   1  15
HETATM   15  C7  UNL     1     -17.114   8.176  14.297  1.00  0.00     0.169 C 
HETATM   16  S1  UNL     1     -15.650   8.200  13.603  1.00  0.00    -0.041 SA
BRANCH  15  17
HETATM   17  N3  UNL     1     -17.481   9.239  15.155  1.00  0.00    -0.338 N 
ATOM     18  H3  UNL     1     -18.463   9.387  15.386  1.00  0.00     0.164 HD
BRANCH  17  19
HETATM   19  C8  UNL     1     -16.481  10.110  15.704  1.00  0.00     0.311 C 
HETATM   20  C9  UNL     1     -16.889  11.542  15.606  1.00  0.00     0.286 C 
HETATM   21  N4  UNL     1     -16.690  12.212  16.880  1.00  0.00    -0.070 N 
HETATM   22  C10 UNL     1     -17.502  11.629  17.909  1.00  0.00     0.260 C 
ATOM     23  H42 UNL     1     -15.705  12.228  17.144  1.00  0.00     0.277 HD
ATOM     24  H41 UNL     1     -16.848  13.217  16.802  1.00  0.00     0.277 HD
HETATM   25  C11 UNL     1     -17.313  10.127  17.949  1.00  0.00     0.262 C 
HETATM   26  N5  UNL     1     -16.208   9.741  17.095  1.00  0.00    -0.051 N 
ATOM     27  H52 UNL     1     -15.985   8.749  17.187  1.00  0.00     0.279 HD
ATOM     28  H51 UNL     1     -15.322  10.127  17.422  1.00  0.00     0.279 HD
ENDBRANCH  17  19
ENDBRANCH  15  17
ENDBRANCH   1  15
TORSDOF 7
ENDMDL
MODEL 3
REMARK VINA RESULT: -6.073668310      1.513      1.970
REMARK  7 active torsions:
REMARK  status: ('A' for Active; 'I' for Inactive)
REMARK    1  A    between atoms: N1_1  and  C1_5 
REMARK    2  A    between atoms: C1_5  and  C2_6 
REMARK    3  A    between atoms: C5_9  and  C6_10 
REMARK    4  A    between atoms: C6_10  and  N2_11 
REMARK    5  A    between atoms: N2_11  and  C7_13 
REMARK    6  A    between atoms: C7_13  and  N3_15 
REMARK    7  A    between atoms: N3_15  and  C8_17 
ROOT
HETATM    1  N2  UNL     1     -18.108   3.887  12.465  1.00  0.00    -0.367 N 
ATOM      2  H2  UNL     1     -18.437   3.639  11.532  1.00  0.00     0.161 HD
ENDROOT
BRANCH   1   3
HETATM    3  C6  UNL     1     -17.061   3.092  13.076  1.00  0.00     0.126 C 
BRANCH   3   4
HETATM    4  C5  UNL     1     -15.690   3.507  12.581  1.00  0.00     0.003 C 
HETATM    5  C4  UNL     1     -15.479   2.921  11.239  1.00  0.00     0.007 C 
HETATM    6  C3  UNL     1     -14.082   2.549  10.899  1.00  0.00     0.007 C 
HETATM    7  C2  UNL     1     -13.492   1.777  12.057  1.00  0.00     0.011 C 
HETATM    8  C13 UNL     1     -13.339   2.814  13.170  1.00  0.00     0.007 C 
HETATM    9  C12 UNL     1     -14.694   3.201  13.626  1.00  0.00     0.007 C 
BRANCH   7  10
HETATM   10  C1  UNL     1     -12.122   1.232  11.744  1.00  0.00     0.234 C 
BRANCH  10  11
HETATM   11  N1  UNL     1     -12.238  -0.182  11.463  1.00  0.00    -0.079 N 
ATOM     12  H13 UNL     1     -12.003  -0.761  12.269  1.00  0.00     0.274 HD
ATOM     13  H12 UNL     1     -13.207  -0.480  11.354  1.00  0.00     0.274 HD
ATOM     14  H11 UNL     1     -11.668  -0.402  10.646  1.00  0.00     0.274 HD
ENDBRANCH  10  11
ENDBRANCH   7  10
ENDBRANCH   3   4
ENDBRANCH   1   3
BRANCH   1  15
HETATM   15  C7  UNL     1     -18.688   4.999  13.129  1.00  0.00     0.169 C 
HETATM   16  S1  UNL     1     -20.262   5.353  12.966  1.00  0.00    -0.041 SA
BRANCH  15  17
HETATM   17  N3  UNL     1     -17.886   5.823  13.952  1.00  0.00    -0.338 N 
ATOM     18  H3  UNL     1     -17.411   5.421  14.761  1.00  0.00     0.164 HD
BRANCH  17  19
HETATM   19  C8  UNL     1     -17.732   7.220  13.658  1.00  0.00     0.311 C 
HETATM   20  C9  UNL     1     -16.974   7.925  14.734  1.00  0.00     0.286 C 
HETATM   21  N4  UNL     1     -15.927   8.750  14.155  1.00  0.00    -0.070 N 
HETATM   22  C10 UNL     1     -14.971   7.954  13.440  1.00  0.00     0.260 C 
ATOM     23  H42 UNL     1     -16.314   9.487  13.566  1.00  0.00     0.277 HD
ATOM     24  H41 UNL     1     -15.477   9.332  14.860  1.00  0.00     0.277 HD
HETATM   25  C11 UNL     1     -15.669   7.037  12.457  1.00  0.00     0.262 C 
HETATM   26  N5  UNL     1     -17.073   7.386  12.361  1.00  0.00    -0.051 N 
ATOM     27  H52 UNL     1     -17.545   6.860  11.626  1.00  0.00     0.279 HD
ATOM     28  H51 UNL     1     -17.206   8.325  11.987  1.00  0.00     0.279 HD
ENDBRANCH  17  19
ENDBRANCH  15  17
ENDBRANCH   1  15
TORSDOF 7
ENDMDL
MODEL 4
REMARK VINA RESULT: -6.049180491      3.280      7.015
REMARK  7 active torsions:
REMARK  status: ('A' for Active; 'I' for Inactive)
REMARK    1  A    between atoms: N1_1  and  C1_5 
REMARK    2  A    between atoms: C1_5  and  C2_6 
REMARK    3  A    between atoms: C5_9  and  C6_10 
REMARK    4  A    between atoms: C6_10  and  N2_11 
REMARK    5  A    between atoms: N2_11  and  C7_13 
REMARK    6  A    between atoms: C7_13  and  N3_15 
REMARK    7  A    between atoms: N3_15  and  C8_17 
ROOT
HETATM    1  N2  UNL     1     -16.539   7.833  14.403  1.00  0.00    -0.367 N 
ATOM      2  H2  UNL     1     -15.917   7.645  15.190  1.00  0.00     0.161 HD
ENDROOT
BRANCH   1   3
HETATM    3  C6  UNL     1     -17.387   9.007  14.442  1.00  0.00     0.126 C 
BRANCH   3   4
HETATM    4  C5  UNL     1     -16.770  10.110  15.279  1.00  0.00     0.003 C 
HETATM    5  C4  UNL     1     -16.285   9.521  16.546  1.00  0.00     0.007 C 
HETATM    6  C3  UNL     1     -16.349  10.398  17.742  1.00  0.00     0.007 C 
HETATM    7  C2  UNL     1     -17.714  11.044  17.796  1.00  0.00     0.011 C 
HETATM    8  C13 UNL     1     -17.720  12.021  16.620  1.00  0.00     0.007 C 
HETATM    9  C12 UNL     1     -17.726  11.231  15.367  1.00  0.00     0.007 C 
BRANCH   7  10
HETATM   10  C1  UNL     1     -17.923  11.841  19.058  1.00  0.00     0.234 C 
BRANCH  10  11
HETATM   11  N1  UNL     1     -16.990  11.377  20.061  1.00  0.00    -0.079 N 
ATOM     12  H13 UNL     1     -17.258  10.476  20.456  1.00  0.00     0.274 HD
ATOM     13  H12 UNL     1     -16.096  11.095  19.661  1.00  0.00     0.274 HD
ATOM     14  H11 UNL     1     -16.888  12.100  20.773  1.00  0.00     0.274 HD
ENDBRANCH  10  11
ENDBRANCH   7  10
ENDBRANCH   3   4
ENDBRANCH   1   3
BRANCH   1  15
HETATM   15  C7  UNL     1     -16.548   6.937  13.302  1.00  0.00     0.169 C 
HETATM   16  S1  UNL     1     -15.226   6.096  12.886  1.00  0.00    -0.041 SA
BRANCH  15  17
HETATM   17  N3  UNL     1     -17.730   6.767  12.545  1.00  0.00    -0.338 N 
ATOM     18  H3  UNL     1     -18.080   7.537  11.974  1.00  0.00     0.164 HD
BRANCH  17  19
HETATM   19  C8  UNL     1     -18.441   5.521  12.572  1.00  0.00     0.311 C 
HETATM   20  C9  UNL     1     -19.155   5.326  13.869  1.00  0.00     0.286 C 
HETATM   21  N4  UNL     1     -20.528   4.915  13.632  1.00  0.00    -0.070 N 
HETATM   22  C10 UNL     1     -21.258   5.920  12.915  1.00  0.00     0.260 C 
ATOM     23  H42 UNL     1     -20.573   4.013  13.159  1.00  0.00     0.277 HD
ATOM     24  H41 UNL     1     -20.997   4.661  14.501  1.00  0.00     0.277 HD
HETATM   25  C11 UNL     1     -20.502   6.343  11.672  1.00  0.00     0.262 C 
HETATM   26  N5  UNL     1     -19.377   5.457  11.448  1.00  0.00    -0.051 N 
ATOM     27  H52 UNL     1     -18.915   5.647  10.559  1.00  0.00     0.279 HD
ATOM     28  H51 UNL     1     -19.679   4.500  11.261  1.00  0.00     0.279 HD
ENDBRANCH  17  19
ENDBRANCH  15  17
ENDBRANCH   1  15
TORSDOF 7
ENDMDL
MODEL 5
REMARK VINA RESULT: -6.046498272      2.410      3.804
REMARK  7 active torsions:
REMARK  status: ('A' for Active; 'I' for Inactive)
REMARK    1  A    between atoms: N1_1  and  C1_5 
REMARK    2  A    between atoms: C1_5  and  C2_6 
REMARK    3  A    between atoms: C5_9  and  C6_10 
REMARK    4  A    between atoms: C6_10  and  N2_11 
REMARK    5  A    between atoms: N2_11  and  C7_13 
REMARK    6  A    between atoms: C7_13  and  N3_15 
REMARK    7  A    between atoms: N3_15  and  C8_17 
ROOT
HETATM    1  N2  UNL     1     -15.815   5.140  14.367  1.00  0.00    -0.367 N 
ATOM      2  H2  UNL     1     -15.475   5.350  15.306  1.00  0.00     0.161 HD
ENDROOT
BRANCH   1   3
HETATM    3  C6  UNL     1     -15.554   3.833  13.799  1.00  0.00     0.126 C 
BRANCH   3   4
HETATM    4  C5  UNL     1     -14.307   3.842  12.938  1.00  0.00     0.003 C 
HETATM    5  C4  UNL     1     -14.708   3.634  11.530  1.00  0.00     0.007 C 
HETATM    6  C3  UNL     1     -13.745   2.893  10.677  1.00  0.00     0.007 C 
HETATM    7  C2  UNL     1     -13.289   1.659  11.422  1.00  0.00     0.011 C 
HETATM    8  C13 UNL     1     -12.432   2.199  12.567  1.00  0.00     0.007 C 
HETATM    9  C12 UNL     1     -13.324   2.904  13.515  1.00  0.00     0.007 C 
BRANCH   7  10
HETATM   10  C1  UNL     1     -12.419   0.765  10.576  1.00  0.00     0.234 C 
BRANCH  10  11
HETATM   11  N1  UNL     1     -12.092  -0.421  11.337  1.00  0.00    -0.079 N 
ATOM     12  H13 UNL     1     -12.916  -0.865  11.741  1.00  0.00     0.274 HD
ATOM     13  H12 UNL     1     -11.792  -1.194  10.743  1.00  0.00     0.274 HD
ATOM     14  H11 UNL     1     -11.396  -0.177  12.042  1.00  0.00     0.274 HD
ENDBRANCH  10  11
ENDBRANCH   7  10
ENDBRANCH   3   4
ENDBRANCH   1   3
BRANCH   1  15
HETATM   15  C7  UNL     1     -16.530   6.139  13.654  1.00  0.00     0.169 C 
HETATM   16  S1  UNL     1     -15.775   7.168  12.654  1.00  0.00    -0.041 SA
BRANCH  15  17
HETATM   17  N3  UNL     1     -17.932   6.245  13.811  1.00  0.00    -0.338 N 
ATOM     18  H3  UNL     1     -18.328   7.063  14.275  1.00  0.00     0.164 HD
BRANCH  17  19
HETATM   19  C8  UNL     1     -18.801   5.213  13.323  1.00  0.00     0.311 C 
HETATM   20  C9  UNL     1     -20.201   5.403  13.805  1.00  0.00     0.286 C 
HETATM   21  N4  UNL     1     -21.137   5.277  12.701  1.00  0.00    -0.070 N 
HETATM   22  C10 UNL     1     -20.911   6.286  11.707  1.00  0.00     0.260 C 
ATOM     23  H42 UNL     1     -21.114   4.341  12.295  1.00  0.00     0.277 HD
ATOM     24  H41 UNL     1     -22.103   5.283  13.027  1.00  0.00     0.277 HD
HETATM   25  C11 UNL     1     -19.452   6.315  11.299  1.00  0.00     0.262 C 
HETATM   26  N5  UNL     1     -18.756   5.174  11.860  1.00  0.00    -0.051 N 
ATOM     27  H52 UNL     1     -17.799   5.105  11.512  1.00  0.00     0.279 HD
ATOM     28  H51 UNL     1     -19.115   4.292  11.493  1.00  0.00     0.279 HD
ENDBRANCH  17  19
ENDBRANCH  15  17
ENDBRANCH   1  15
TORSDOF 7
ENDMDL
