MODEL 1
REMARK VINA RESULT: -7.658439638      0.000      0.000
REMARK  5 active torsions:
REMARK  status: ('A' for Active; 'I' for Inactive)
REMARK       I    between atoms: C1_4  and  N3_6 
REMARK    1  A    between atoms: N3_6  and  C2_8 
REMARK    2  A    between atoms: N6_14  and  C4_16 
REMARK    3  A    between atoms: C4_16  and  C5_17 
REMARK    4  A    between atoms: C5_17  and  C6_18 
REMARK    5  A    between atoms: C6_18  and  N7_19 
ROOT
HETATM    1  C2  UNL     1     -17.314  11.200  16.782  1.00  0.00     0.169 A 
HETATM    2  N4  UNL     1     -18.163  11.494  15.801  1.00  0.00    -0.277 N 
ATOM      3  H4  UNL     1     -18.775  12.307  15.876  1.00  0.00     0.189 HD
HETATM    4  N5  UNL     1     -18.205  10.749  14.766  1.00  0.00    -0.278 N 
ATOM      5  H5  UNL     1     -18.848  10.956  14.002  1.00  0.00     0.189 HD
HETATM    6  C3  UNL     1     -17.390   9.694  14.702  1.00  0.00     0.162 A 
HETATM    7  N6  UNL     1     -17.288   8.818  13.725  1.00  0.00    -0.369 N 
ATOM      8  H6  UNL     1     -17.871   8.899  12.893  1.00  0.00     0.161 HD
HETATM    9  S1  UNL     1     -16.549   9.795  16.183  1.00  0.00    -0.015 SA
ENDROOT
BRANCH   7  10
HETATM   10  C4  UNL     1     -16.329   7.733  13.854  1.00  0.00     0.123 C 
BRANCH  10  11
HETATM   11  C5  UNL     1     -16.201   6.957  12.555  1.00  0.00     0.039 C 
BRANCH  11  12
HETATM   12  C6  UNL     1     -16.489   5.497  12.776  1.00  0.00     0.122 C 
BRANCH  12  13
HETATM   13  N7  UNL     1     -17.698   5.345  13.550  1.00  0.00    -0.380 N 
HETATM   14  C7  UNL     1     -18.866   5.307  13.017  1.00  0.00     0.072 C 
HETATM   15  C8  UNL     1     -20.157   5.155  13.733  1.00  0.00     0.077 C 
HETATM   16  N8  UNL     1     -19.186   5.400  11.636  1.00  0.00    -0.380 N 
HETATM   17  C9  UNL     1     -21.127   5.856  12.842  1.00  0.00     0.027 C 
HETATM   18  C10 UNL     1     -20.470   6.064  11.516  1.00  0.00     0.121 C 
ATOM     19  H8  UNL     1     -18.612   5.060  10.864  1.00  0.00     0.160 HD
ATOM     20  H7  UNL     1     -17.621   5.263  14.564  1.00  0.00     0.160 HD
ENDBRANCH  12  13
ENDBRANCH  11  12
ENDBRANCH  10  11
ENDBRANCH   7  10
BRANCH   1  21
HETATM   21  N3  UNL     1     -17.137  11.850  17.913  1.00  0.00    -0.310 N 
HETATM   22  C1  UNL     1     -17.939  11.465  19.033  1.00  0.00     0.187 C 
HETATM   23  N1  UNL     1     -17.676  10.462  19.785  1.00  0.00    -0.373 N 
HETATM   24  N2  UNL     1     -19.087  12.258  19.305  1.00  0.00    -0.064 NA
ATOM     25  H12 UNL     1     -18.248  10.187  20.584  1.00  0.00     0.158 HD
ATOM     26  H11 UNL     1     -16.852   9.894  19.590  1.00  0.00     0.158 HD
ATOM     27  H3  UNL     1     -16.452  12.602  17.988  1.00  0.00     0.170 HD
ENDBRANCH   1  21
TORSDOF 5
ENDMDL
MODEL 2
REMARK VINA RESULT: -7.577014560      2.392      4.319
REMARK  5 active torsions:
REMARK  status: ('A' for Active; 'I' for Inactive)
REMARK       I    between atoms: C1_4  and  N3_6 
REMARK    1  A    between atoms: N3_6  and  C2_8 
REMARK    2  A    between atoms: N6_14  and  C4_16 
REMARK    3  A    between atoms: C4_16  and  C5_17 
REMARK    4  A    between atoms: C5_17  and  C6_18 
REMARK    5  A    between atoms: C6_18  and  N7_19 
ROOT
HETATM    1  C2  UNL     1     -17.216   8.759  14.342  1.00  0.00     0.169 A 
HETATM    2  N4  UNL     1     -18.413   9.333  14.259  1.00  0.00    -0.277 N 
ATOM      3  H4  UNL     1     -18.556  10.281  14.606  1.00  0.00     0.189 HD
HETATM    4  N5  UNL     1     -19.382   8.684  13.741  1.00  0.00    -0.278 N 
ATOM      5  H5  UNL     1     -20.309   9.104  13.667  1.00  0.00     0.189 HD
HETATM    6  C3  UNL     1     -19.160   7.445  13.297  1.00  0.00     0.162 A 
HETATM    7  N6  UNL     1     -20.025   6.626  12.737  1.00  0.00    -0.369 N 
ATOM      8  H6  UNL     1     -20.994   6.912  12.597  1.00  0.00     0.161 HD
HETATM    9  S1  UNL     1     -17.503   7.227  13.645  1.00  0.00    -0.015 SA
ENDROOT
BRANCH   7  10
HETATM   10  C4  UNL     1     -19.575   5.307  12.322  1.00  0.00     0.123 C 
BRANCH  10  11
HETATM   11  C5  UNL     1     -19.764   4.288  13.431  1.00  0.00     0.039 C 
BRANCH  11  12
HETATM   12  C6  UNL     1     -18.492   3.523  13.674  1.00  0.00     0.122 C 
BRANCH  12  13
HETATM   13  N7  UNL     1     -17.696   3.495  12.469  1.00  0.00    -0.380 N 
HETATM   14  C7  UNL     1     -16.521   2.978  12.424  1.00  0.00     0.072 C 
HETATM   15  C8  UNL     1     -15.635   2.907  11.235  1.00  0.00     0.077 C 
HETATM   16  N8  UNL     1     -15.808   2.363  13.488  1.00  0.00    -0.380 N 
HETATM   17  C9  UNL     1     -14.266   2.907  11.829  1.00  0.00     0.027 C 
HETATM   18  C10 UNL     1     -14.395   2.618  13.289  1.00  0.00     0.121 C 
ATOM     19  H8  UNL     1     -16.220   1.835  14.258  1.00  0.00     0.160 HD
ATOM     20  H7  UNL     1     -18.083   3.902  11.619  1.00  0.00     0.160 HD
ENDBRANCH  12  13
ENDBRANCH  11  12
ENDBRANCH  10  11
ENDBRANCH   7  10
BRANCH   1  21
HETATM   21  N3  UNL     1     -16.112   9.274  14.842  1.00  0.00    -0.310 N 
HETATM   22  C1  UNL     1     -16.242  10.202  15.923  1.00  0.00     0.187 C 
HETATM   23  N1  UNL     1     -16.410   9.853  17.144  1.00  0.00    -0.373 N 
HETATM   24  N2  UNL     1     -16.177  11.584  15.596  1.00  0.00    -0.064 NA
ATOM     25  H12 UNL     1     -16.503  10.515  17.915  1.00  0.00     0.158 HD
ATOM     26  H11 UNL     1     -16.456   8.862  17.378  1.00  0.00     0.158 HD
ATOM     27  H3  UNL     1     -15.196   9.021  14.471  1.00  0.00     0.170 HD
ENDBRANCH   1  21
TORSDOF 5
ENDMDL
MODEL 3
REMARK VINA RESULT: -7.574572115      2.277      4.182
REMARK  5 active torsions:
REMARK  status: ('A' for Active; 'I' for Inactive)
REMARK       I    between atoms: C1_4  and  N3_6 
REMARK    1  A    between atoms: N3_6  and  C2_8 
REMARK    2  A    between atoms: N6_14  and  C4_16 
REMARK    3  A    between atoms: C4_16  and  C5_17 
REMARK    4  A    between atoms: C5_17  and  C6_18 
REMARK    5  A    between atoms: C6_18  and  N7_19 
ROOT
HETATM    1  C2  UNL     1     -16.669   8.721  14.359  1.00  0.00     0.169 A 
HETATM    2  N4  UNL     1     -15.960   8.199  13.362  1.00  0.00    -0.277 N 
ATOM      3  H4  UNL     1     -14.951   8.341  13.317  1.00  0.00     0.189 HD
HETATM    4  N5  UNL     1     -16.555   7.517  12.463  1.00  0.00    -0.278 N 
ATOM      5  H5  UNL     1     -16.031   7.107  11.689  1.00  0.00     0.189 HD
HETATM    6  C3  UNL     1     -17.876   7.350  12.553  1.00  0.00     0.162 A 
HETATM    7  N6  UNL     1     -18.659   6.685  11.729  1.00  0.00    -0.369 N 
ATOM      8  H6  UNL     1     -18.272   6.221  10.908  1.00  0.00     0.161 HD
HETATM    9  S1  UNL     1     -18.253   8.207  13.980  1.00  0.00    -0.015 SA
ENDROOT
BRANCH   7  10
HETATM   10  C4  UNL     1     -20.084   6.625  12.011  1.00  0.00     0.123 C 
BRANCH  10  11
HETATM   11  C5  UNL     1     -20.518   5.209  12.344  1.00  0.00     0.039 C 
BRANCH  11  12
HETATM   12  C6  UNL     1     -19.939   4.769  13.660  1.00  0.00     0.122 C 
BRANCH  12  13
HETATM   13  N7  UNL     1     -19.240   3.516  13.498  1.00  0.00    -0.380 N 
HETATM   14  C7  UNL     1     -17.968   3.405  13.643  1.00  0.00     0.072 C 
HETATM   15  C8  UNL     1     -17.170   2.162  13.494  1.00  0.00     0.077 C 
HETATM   16  N8  UNL     1     -17.045   4.433  13.975  1.00  0.00    -0.380 N 
HETATM   17  C9  UNL     1     -15.833   2.665  13.063  1.00  0.00     0.027 C 
HETATM   18  C10 UNL     1     -15.787   4.136  13.319  1.00  0.00     0.121 C 
ATOM     19  H8  UNL     1     -17.235   5.238  14.571  1.00  0.00     0.160 HD
ATOM     20  H7  UNL     1     -19.778   2.684  13.258  1.00  0.00     0.160 HD
ENDBRANCH  12  13
ENDBRANCH  11  12
ENDBRANCH  10  11
ENDBRANCH   7  10
BRANCH   1  21
HETATM   21  N3  UNL     1     -16.227   9.446  15.365  1.00  0.00    -0.310 N 
HETATM   22  C1  UNL     1     -16.249  10.869  15.219  1.00  0.00     0.187 C 
HETATM   23  N1  UNL     1     -17.293  11.587  15.404  1.00  0.00    -0.373 N 
HETATM   24  N2  UNL     1     -15.029  11.497  14.846  1.00  0.00    -0.064 NA
ATOM     25  H12 UNL     1     -17.309  12.602  15.299  1.00  0.00     0.158 HD
ATOM     26  H11 UNL     1     -18.168  11.137  15.671  1.00  0.00     0.158 HD
ATOM     27  H3  UNL     1     -15.880   9.009  16.219  1.00  0.00     0.170 HD
ENDBRANCH   1  21
TORSDOF 5
ENDMDL
MODEL 4
REMARK VINA RESULT: -7.465286094      2.378      4.252
REMARK  5 active torsions:
REMARK  status: ('A' for Active; 'I' for Inactive)
REMARK       I    between atoms: C1_4  and  N3_6 
REMARK    1  A    between atoms: N3_6  and  C2_8 
REMARK    2  A    between atoms: N6_14  and  C4_16 
REMARK    3  A    between atoms: C4_16  and  C5_17 
REMARK    4  A    between atoms: C5_17  and  C6_18 
REMARK    5  A    between atoms: C6_18  and  N7_19 
ROOT
HETATM    1  C2  UNL     1     -17.123   8.898  14.484  1.00  0.00     0.169 A 
HETATM    2  N4  UNL     1     -18.361   9.349  14.296  1.00  0.00    -0.277 N 
ATOM      3  H4  UNL     1     -18.615  10.293  14.588  1.00  0.00     0.189 HD
HETATM    4  N5  UNL     1     -19.226   8.589  13.747  1.00  0.00    -0.278 N 
ATOM      5  H5  UNL     1     -20.181   8.914  13.593  1.00  0.00     0.189 HD
HETATM    6  C3  UNL     1     -18.859   7.361  13.378  1.00  0.00     0.162 A 
HETATM    7  N6  UNL     1     -19.602   6.440  12.802  1.00  0.00    -0.369 N 
ATOM      8  H6  UNL     1     -20.581   6.625  12.585  1.00  0.00     0.161 HD
HETATM    9  S1  UNL     1     -17.217   7.319  13.843  1.00  0.00    -0.015 SA
ENDROOT
BRANCH   7  10
HETATM   10  C4  UNL     1     -19.003   5.155  12.479  1.00  0.00     0.123 C 
BRANCH  10  11
HETATM   11  C5  UNL     1     -19.309   4.122  13.549  1.00  0.00     0.039 C 
BRANCH  11  12
HETATM   12  C6  UNL     1     -18.329   2.984  13.487  1.00  0.00     0.122 C 
BRANCH  12  13
HETATM   13  N7  UNL     1     -17.181   3.276  14.314  1.00  0.00    -0.380 N 
HETATM   14  C7  UNL     1     -15.983   3.320  13.852  1.00  0.00     0.072 C 
HETATM   15  C8  UNL     1     -14.751   3.610  14.626  1.00  0.00     0.077 C 
HETATM   16  N8  UNL     1     -15.569   3.105  12.510  1.00  0.00    -0.380 N 
HETATM   17  C9  UNL     1     -13.693   2.874  13.873  1.00  0.00     0.027 C 
HETATM   18  C10 UNL     1     -14.251   2.500  12.539  1.00  0.00     0.121 C 
ATOM     19  H8  UNL     1     -16.105   3.336  11.674  1.00  0.00     0.160 HD
ATOM     20  H7  UNL     1     -17.328   3.455  15.307  1.00  0.00     0.160 HD
ENDBRANCH  12  13
ENDBRANCH  11  12
ENDBRANCH  10  11
ENDBRANCH   7  10
BRANCH   1  21
HETATM   21  N3  UNL     1     -16.110   9.538  15.030  1.00  0.00    -0.310 N 
HETATM   22  C1  UNL     1     -16.398  10.462  16.083  1.00  0.00     0.187 C 
HETATM   23  N1  UNL     1     -16.594  10.115  17.301  1.00  0.00    -0.373 N 
HETATM   24  N2  UNL     1     -16.464  11.838  15.732  1.00  0.00    -0.064 NA
ATOM     25  H12 UNL     1     -16.799  10.775  18.052  1.00  0.00     0.158 HD
ATOM     26  H11 UNL     1     -16.546   9.129  17.553  1.00  0.00     0.158 HD
ATOM     27  H3  UNL     1     -15.154   9.380  14.713  1.00  0.00     0.170 HD
ENDBRANCH   1  21
TORSDOF 5
ENDMDL
MODEL 5
REMARK VINA RESULT: -7.388866975      2.171      2.789
REMARK  5 active torsions:
REMARK  status: ('A' for Active; 'I' for Inactive)
REMARK       I    between atoms: C1_4  and  N3_6 
REMARK    1  A    between atoms: N3_6  and  C2_8 
REMARK    2  A    between atoms: N6_14  and  C4_16 
REMARK    3  A    between atoms: C4_16  and  C5_17 
REMARK    4  A    between atoms: C5_17  and  C6_18 
REMARK    5  A    between atoms: C6_18  and  N7_19 
ROOT
HETATM    1  C2  UNL     1     -17.264  11.213  16.866  1.00  0.00     0.169 A 
HETATM    2  N4  UNL     1     -18.099  11.562  15.890  1.00  0.00    -0.277 N 
ATOM      3  H4  UNL     1     -18.678  12.397  15.982  1.00  0.00     0.189 HD
HETATM    4  N5  UNL     1     -18.167  10.842  14.839  1.00  0.00    -0.278 N 
ATOM      5  H5  UNL     1     -18.800  11.091  14.079  1.00  0.00     0.189 HD
HETATM    6  C3  UNL     1     -17.395   9.757  14.753  1.00  0.00     0.162 A 
HETATM    7  N6  UNL     1     -17.326   8.899  13.758  1.00  0.00    -0.369 N 
ATOM      8  H6  UNL     1     -17.904   9.021  12.926  1.00  0.00     0.161 HD
HETATM    9  S1  UNL     1     -16.555   9.792  16.238  1.00  0.00    -0.015 SA
ENDROOT
BRANCH   7  10
HETATM   10  C4  UNL     1     -16.411   7.773  13.864  1.00  0.00     0.123 C 
BRANCH  10  11
HETATM   11  C5  UNL     1     -16.099   7.189  12.498  1.00  0.00     0.039 C 
BRANCH  11  12
HETATM   12  C6  UNL     1     -15.242   5.960  12.628  1.00  0.00     0.122 C 
BRANCH  12  13
HETATM   13  N7  UNL     1     -16.067   4.776  12.580  1.00  0.00    -0.380 N 
HETATM   14  C7  UNL     1     -16.222   3.994  13.588  1.00  0.00     0.072 C 
HETATM   15  C8  UNL     1     -17.047   2.761  13.629  1.00  0.00     0.077 C 
HETATM   16  N8  UNL     1     -15.648   4.131  14.880  1.00  0.00    -0.380 N 
HETATM   17  C9  UNL     1     -16.359   1.924  14.655  1.00  0.00     0.027 C 
HETATM   18  C10 UNL     1     -15.417   2.802  15.412  1.00  0.00     0.121 C 
ATOM     19  H8  UNL     1     -15.435   5.011  15.351  1.00  0.00     0.160 HD
ATOM     20  H7  UNL     1     -16.547   4.550  11.710  1.00  0.00     0.160 HD
ENDBRANCH  12  13
ENDBRANCH  11  12
ENDBRANCH  10  11
ENDBRANCH   7  10
BRANCH   1  21
HETATM   21  N3  UNL     1     -17.064  11.831  18.011  1.00  0.00    -0.310 N 
HETATM   22  C1  UNL     1     -17.897  11.468  19.116  1.00  0.00     0.187 C 
HETATM   23  N1  UNL     1     -17.696  10.438  19.851  1.00  0.00    -0.373 N 
HETATM   24  N2  UNL     1     -19.004  12.316  19.393  1.00  0.00    -0.064 NA
ATOM     25  H12 UNL     1     -18.290  10.180  20.639  1.00  0.00     0.158 HD
ATOM     26  H11 UNL     1     -16.902   9.830  19.652  1.00  0.00     0.158 HD
ATOM     27  H3  UNL     1     -16.341  12.543  18.107  1.00  0.00     0.170 HD
ENDBRANCH   1  21
TORSDOF 5
ENDMDL
