MODEL 1
REMARK VINA RESULT: -6.981286671      0.000      0.000
REMARK  7 active torsions:
REMARK  status: ('A' for Active; 'I' for Inactive)
REMARK    1  A    between atoms: C6_9  and  C7_10 
REMARK    2  A    between atoms: C9_12  and  N2_13 
REMARK    3  A    between atoms: N2_13  and  C10_15 
REMARK    4  A    between atoms: C10_15  and  C11_19 
REMARK    5  A    between atoms: C14_22  and  C15_23 
REMARK    6  A    between atoms: C15_23  and  N4_24 
REMARK    7  A    between atoms: C15_23  and  O1_28 
ROOT
HETATM    1  C1  UNL     1     -21.385   5.687  12.238  1.00  0.00     0.014 C 
HETATM    2  C2  UNL     1     -20.325   6.274  12.331  1.00  0.00    -0.082 C 
HETATM    3  C3  UNL     1     -19.045   6.965  12.462  1.00  0.00     0.286 C 
HETATM    4  N1  UNL     1     -19.291   8.174  13.202  1.00  0.00    -0.059 N 
ATOM      5  H11 UNL     1     -20.273   8.239  13.471  1.00  0.00     0.278 HD
ATOM      6  H12 UNL     1     -19.229   8.990  12.592  1.00  0.00     0.278 HD
HETATM    7  C4  UNL     1     -18.435   8.329  14.350  1.00  0.00     0.234 C 
HETATM    8  C5  UNL     1     -17.019   8.247  13.861  1.00  0.00     0.034 C 
HETATM    9  C6  UNL     1     -16.748   6.791  13.471  1.00  0.00     0.012 C 
HETATM   10  C9  UNL     1     -17.990   6.091  13.070  1.00  0.00     0.129 C 
ENDROOT
BRANCH  10  11
HETATM   11  N2  UNL     1     -17.732   4.862  12.401  1.00  0.00    -0.372 N 
ATOM     12  H2  UNL     1     -17.553   4.940  11.400  1.00  0.00     0.161 HD
BRANCH  11  13
HETATM   13  C10 UNL     1     -17.686   3.552  12.921  1.00  0.00     0.075 C 
HETATM   14  N3  UNL     1     -18.707   3.010  13.436  1.00  0.00    -0.389 N 
ATOM     15  H32 UNL     1     -19.589   3.522  13.476  1.00  0.00     0.157 HD
ATOM     16  H31 UNL     1     -18.674   2.063  13.812  1.00  0.00     0.157 HD
BRANCH  13  17
HETATM   17  C11 UNL     1     -16.412   2.811  12.864  1.00  0.00     0.061 C 
HETATM   18  C12 UNL     1     -15.737   2.852  11.494  1.00  0.00     0.013 C 
HETATM   19  C13 UNL     1     -14.421   2.972  12.232  1.00  0.00     0.010 C 
HETATM   20  C14 UNL     1     -15.211   3.487  13.422  1.00  0.00     0.053 C 
BRANCH  20  21
HETATM   21  C15 UNL     1     -14.733   2.796  14.678  1.00  0.00     0.321 C 
BRANCH  21  22
HETATM   22  N4  UNL     1     -13.321   3.089  14.852  1.00  0.00    -0.053 N 
ATOM     23  H43 UNL     1     -12.772   2.883  14.017  1.00  0.00     0.277 HD
ATOM     24  H42 UNL     1     -13.132   4.089  14.900  1.00  0.00     0.277 HD
ATOM     25  H41 UNL     1     -12.988   2.586  15.675  1.00  0.00     0.277 HD
ENDBRANCH  21  22
BRANCH  21  26
HETATM   26  O1  UNL     1     -15.480   3.119  15.795  1.00  0.00    -0.370 OA
ATOM     27  H1  UNL     1     -14.965   3.514  16.489  1.00  0.00     0.212 HD
ENDBRANCH  21  26
ENDBRANCH  20  21
ENDBRANCH  13  17
ENDBRANCH  11  13
ENDBRANCH  10  11
BRANCH   9  28
HETATM   28  C7  UNL     1     -15.653   6.874  12.440  1.00  0.00     0.002 C 
HETATM   29  C8  UNL     1     -14.596   7.877  12.952  1.00  0.00     0.005 C 
ENDBRANCH   9  28
TORSDOF 7
ENDMDL
MODEL 2
REMARK VINA RESULT: -6.664995978      2.075      3.715
REMARK  7 active torsions:
REMARK  status: ('A' for Active; 'I' for Inactive)
REMARK    1  A    between atoms: C6_9  and  C7_10 
REMARK    2  A    between atoms: C9_12  and  N2_13 
REMARK    3  A    between atoms: N2_13  and  C10_15 
REMARK    4  A    between atoms: C10_15  and  C11_19 
REMARK    5  A    between atoms: C14_22  and  C15_23 
REMARK    6  A    between atoms: C15_23  and  N4_24 
REMARK    7  A    between atoms: C15_23  and  O1_28 
ROOT
HETATM    1  C1  UNL     1     -17.079   9.376  14.361  1.00  0.00     0.014 C 
HETATM    2  C2  UNL     1     -17.755   8.389  14.149  1.00  0.00    -0.082 C 
HETATM    3  C3  UNL     1     -18.555   7.198  13.875  1.00  0.00     0.286 C 
HETATM    4  N1  UNL     1     -19.707   7.624  13.127  1.00  0.00    -0.059 N 
ATOM      5  H11 UNL     1     -19.672   8.628  12.951  1.00  0.00     0.278 HD
ATOM      6  H12 UNL     1     -20.548   7.581  13.703  1.00  0.00     0.278 HD
HETATM    7  C4  UNL     1     -19.894   6.897  11.898  1.00  0.00     0.234 C 
HETATM    8  C5  UNL     1     -19.960   5.439  12.250  1.00  0.00     0.034 C 
HETATM    9  C6  UNL     1     -18.551   4.998  12.656  1.00  0.00     0.012 C 
HETATM   10  C9  UNL     1     -17.756   6.126  13.195  1.00  0.00     0.129 C 
ENDROOT
BRANCH  10  11
HETATM   11  N2  UNL     1     -16.582   5.693  13.872  1.00  0.00    -0.372 N 
ATOM     12  H2  UNL     1     -16.738   5.274  14.789  1.00  0.00     0.161 HD
BRANCH  11  13
HETATM   13  C10 UNL     1     -15.235   5.758  13.460  1.00  0.00     0.075 C 
HETATM   14  N3  UNL     1     -14.748   6.814  12.963  1.00  0.00    -0.389 N 
ATOM     15  H32 UNL     1     -15.332   7.644  12.858  1.00  0.00     0.157 HD
ATOM     16  H31 UNL     1     -13.774   6.861  12.665  1.00  0.00     0.157 HD
BRANCH  13  17
HETATM   17  C11 UNL     1     -14.390   4.559  13.611  1.00  0.00     0.061 C 
HETATM   18  C12 UNL     1     -14.964   3.518  14.570  1.00  0.00     0.013 C 
HETATM   19  C13 UNL     1     -14.457   2.465  13.608  1.00  0.00     0.010 C 
HETATM   20  C14 UNL     1     -14.467   3.537  12.534  1.00  0.00     0.053 C 
BRANCH  20  21
HETATM   21  C15 UNL     1     -13.175   3.474  11.751  1.00  0.00     0.321 C 
BRANCH  21  22
HETATM   22  N4  UNL     1     -13.466   2.950  10.429  1.00  0.00    -0.053 N 
ATOM     23  H43 UNL     1     -13.976   3.616   9.847  1.00  0.00     0.277 HD
ATOM     24  H42 UNL     1     -12.633   2.867   9.848  1.00  0.00     0.277 HD
ATOM     25  H41 UNL     1     -13.960   2.065  10.536  1.00  0.00     0.277 HD
ENDBRANCH  21  22
BRANCH  21  26
HETATM   26  O1  UNL     1     -12.508   4.684  11.704  1.00  0.00    -0.370 OA
ATOM     27  H1  UNL     1     -11.751   4.717  12.277  1.00  0.00     0.212 HD
ENDBRANCH  21  26
ENDBRANCH  20  21
ENDBRANCH  13  17
ENDBRANCH  11  13
ENDBRANCH  10  11
BRANCH   9  28
HETATM   28  C7  UNL     1     -18.772   3.824  13.574  1.00  0.00     0.002 C 
HETATM   29  C8  UNL     1     -17.961   2.632  13.020  1.00  0.00     0.005 C 
ENDBRANCH   9  28
TORSDOF 7
ENDMDL
MODEL 3
REMARK VINA RESULT: -6.468191726      1.560      1.849
REMARK  7 active torsions:
REMARK  status: ('A' for Active; 'I' for Inactive)
REMARK    1  A    between atoms: C6_9  and  C7_10 
REMARK    2  A    between atoms: C9_12  and  N2_13 
REMARK    3  A    between atoms: N2_13  and  C10_15 
REMARK    4  A    between atoms: C10_15  and  C11_19 
REMARK    5  A    between atoms: C14_22  and  C15_23 
REMARK    6  A    between atoms: C15_23  and  N4_24 
REMARK    7  A    between atoms: C15_23  and  O1_28 
ROOT
HETATM    1  C1  UNL     1     -21.264   5.581  12.119  1.00  0.00     0.014 C 
HETATM    2  C2  UNL     1     -20.259   6.251  12.249  1.00  0.00    -0.082 C 
HETATM    3  C3  UNL     1     -19.043   7.041  12.424  1.00  0.00     0.286 C 
HETATM    4  N1  UNL     1     -19.398   8.197  13.203  1.00  0.00    -0.059 N 
ATOM      5  H11 UNL     1     -20.385   8.169  13.461  1.00  0.00     0.278 HD
ATOM      6  H12 UNL     1     -19.398   9.037  12.625  1.00  0.00     0.278 HD
HETATM    7  C4  UNL     1     -18.572   8.379  14.369  1.00  0.00     0.234 C 
HETATM    8  C5  UNL     1     -17.148   8.434  13.898  1.00  0.00     0.034 C 
HETATM    9  C6  UNL     1     -16.751   7.022  13.459  1.00  0.00     0.012 C 
HETATM   10  C9  UNL     1     -17.925   6.236  13.015  1.00  0.00     0.129 C 
ENDROOT
BRANCH  10  11
HETATM   11  N2  UNL     1     -17.557   5.058  12.305  1.00  0.00    -0.372 N 
ATOM     12  H2  UNL     1     -17.727   5.085  11.299  1.00  0.00     0.161 HD
BRANCH  11  13
HETATM   13  C10 UNL     1     -16.991   3.861  12.789  1.00  0.00     0.075 C 
HETATM   14  N3  UNL     1     -17.710   2.863  13.084  1.00  0.00    -0.389 N 
ATOM     15  H32 UNL     1     -18.722   2.914  12.968  1.00  0.00     0.157 HD
ATOM     16  H31 UNL     1     -17.300   1.997  13.435  1.00  0.00     0.157 HD
BRANCH  13  17
HETATM   17  C11 UNL     1     -15.527   3.788  12.956  1.00  0.00     0.061 C 
HETATM   18  C12 UNL     1     -15.062   3.967  14.400  1.00  0.00     0.013 C 
HETATM   19  C13 UNL     1     -14.028   2.899  14.118  1.00  0.00     0.010 C 
HETATM   20  C14 UNL     1     -14.916   2.433  12.979  1.00  0.00     0.053 C 
BRANCH  20  21
HETATM   21  C15 UNL     1     -14.070   2.197  11.748  1.00  0.00     0.321 C 
BRANCH  21  22
HETATM   22  N4  UNL     1     -13.014   1.262  12.092  1.00  0.00    -0.053 N 
ATOM     23  H43 UNL     1     -13.226   0.721  12.930  1.00  0.00     0.277 HD
ATOM     24  H42 UNL     1     -12.951   0.484  11.436  1.00  0.00     0.277 HD
ATOM     25  H41 UNL     1     -12.140   1.781  12.171  1.00  0.00     0.277 HD
ENDBRANCH  21  22
BRANCH  21  26
HETATM   26  O1  UNL     1     -14.807   1.782  10.654  1.00  0.00    -0.370 OA
ATOM     27  H1  UNL     1     -14.783   2.400   9.932  1.00  0.00     0.212 HD
ENDBRANCH  21  26
ENDBRANCH  20  21
ENDBRANCH  13  17
ENDBRANCH  11  13
ENDBRANCH  10  11
BRANCH   9  28
HETATM   28  C7  UNL     1     -15.655   7.235  12.448  1.00  0.00     0.002 C 
HETATM   29  C8  UNL     1     -14.571   8.117  13.105  1.00  0.00     0.005 C 
ENDBRANCH   9  28
TORSDOF 7
ENDMDL
MODEL 4
REMARK VINA RESULT: -6.395450967      1.708      5.121
REMARK  7 active torsions:
REMARK  status: ('A' for Active; 'I' for Inactive)
REMARK    1  A    between atoms: C6_9  and  C7_10 
REMARK    2  A    between atoms: C9_12  and  N2_13 
REMARK    3  A    between atoms: N2_13  and  C10_15 
REMARK    4  A    between atoms: C10_15  and  C11_19 
REMARK    5  A    between atoms: C14_22  and  C15_23 
REMARK    6  A    between atoms: C15_23  and  N4_24 
REMARK    7  A    between atoms: C15_23  and  O1_28 
ROOT
HETATM    1  C1  UNL     1     -16.807   1.062  15.232  1.00  0.00     0.014 C 
HETATM    2  C2  UNL     1     -16.259   2.059  14.805  1.00  0.00    -0.082 C 
HETATM    3  C3  UNL     1     -15.598   3.246  14.269  1.00  0.00     0.286 C 
HETATM    4  N1  UNL     1     -14.200   3.131  14.584  1.00  0.00    -0.059 N 
ATOM      5  H11 UNL     1     -14.010   2.255  15.071  1.00  0.00     0.278 HD
ATOM      6  H12 UNL     1     -13.939   3.792  15.317  1.00  0.00     0.278 HD
HETATM    7  C4  UNL     1     -13.339   3.275  13.438  1.00  0.00     0.234 C 
HETATM    8  C5  UNL     1     -13.665   4.594  12.801  1.00  0.00     0.034 C 
HETATM    9  C6  UNL     1     -15.039   4.460  12.138  1.00  0.00     0.012 C 
HETATM   10  C9  UNL     1     -15.873   3.435  12.807  1.00  0.00     0.129 C 
ENDROOT
BRANCH  10  11
HETATM   11  N2  UNL     1     -17.244   3.516  12.432  1.00  0.00    -0.372 N 
ATOM     12  H2  UNL     1     -17.516   2.926  11.645  1.00  0.00     0.161 HD
BRANCH  11  13
HETATM   13  C10 UNL     1     -18.280   4.294  12.989  1.00  0.00     0.075 C 
HETATM   14  N3  UNL     1     -18.991   3.860  13.942  1.00  0.00    -0.389 N 
ATOM     15  H32 UNL     1     -18.816   2.931  14.325  1.00  0.00     0.157 HD
ATOM     16  H31 UNL     1     -19.740   4.422  14.344  1.00  0.00     0.157 HD
BRANCH  13  17
HETATM   17  C11 UNL     1     -18.533   5.637  12.436  1.00  0.00     0.061 C 
HETATM   18  C12 UNL     1     -19.670   5.679  11.416  1.00  0.00     0.013 C 
HETATM   19  C13 UNL     1     -20.064   7.006  12.027  1.00  0.00     0.010 C 
HETATM   20  C14 UNL     1     -19.318   6.578  13.277  1.00  0.00     0.053 C 
BRANCH  20  21
HETATM   21  C15 UNL     1     -18.455   7.722  13.762  1.00  0.00     0.321 C 
BRANCH  21  22
HETATM   22  N4  UNL     1     -19.303   8.885  13.952  1.00  0.00    -0.053 N 
ATOM     23  H43 UNL     1     -19.372   9.462  13.113  1.00  0.00     0.277 HD
ATOM     24  H42 UNL     1     -20.290   8.642  14.034  1.00  0.00     0.277 HD
ATOM     25  H41 UNL     1     -18.959   9.405  14.758  1.00  0.00     0.277 HD
ENDBRANCH  21  22
BRANCH  21  26
HETATM   26  O1  UNL     1     -17.726   7.410  14.893  1.00  0.00    -0.370 OA
ATOM     27  H1  UNL     1     -16.805   7.260  14.715  1.00  0.00     0.212 HD
ENDBRANCH  21  26
ENDBRANCH  20  21
ENDBRANCH  13  17
ENDBRANCH  11  13
ENDBRANCH  10  11
BRANCH   9  28
HETATM   28  C7  UNL     1     -15.583   5.864  12.109  1.00  0.00     0.002 C 
HETATM   29  C8  UNL     1     -14.768   6.708  13.114  1.00  0.00     0.005 C 
ENDBRANCH   9  28
TORSDOF 7
ENDMDL
MODEL 5
REMARK VINA RESULT: -6.313827250      1.769      3.472
REMARK  7 active torsions:
REMARK  status: ('A' for Active; 'I' for Inactive)
REMARK    1  A    between atoms: C6_9  and  C7_10 
REMARK    2  A    between atoms: C9_12  and  N2_13 
REMARK    3  A    between atoms: N2_13  and  C10_15 
REMARK    4  A    between atoms: C10_15  and  C11_19 
REMARK    5  A    between atoms: C14_22  and  C15_23 
REMARK    6  A    between atoms: C15_23  and  N4_24 
REMARK    7  A    between atoms: C15_23  and  O1_28 
ROOT
HETATM    1  C1  UNL     1     -17.040   9.428  14.645  1.00  0.00     0.014 C 
HETATM    2  C2  UNL     1     -17.674   8.452  14.297  1.00  0.00    -0.082 C 
HETATM    3  C3  UNL     1     -18.422   7.275  13.860  1.00  0.00     0.286 C 
HETATM    4  N1  UNL     1     -19.568   7.749  13.132  1.00  0.00    -0.059 N 
ATOM      5  H11 UNL     1     -19.565   8.768  13.077  1.00  0.00     0.278 HD
ATOM      6  H12 UNL     1     -20.422   7.611  13.673  1.00  0.00     0.278 HD
HETATM    7  C4  UNL     1     -19.696   7.168  11.820  1.00  0.00     0.234 C 
HETATM    8  C5  UNL     1     -19.718   5.677  11.996  1.00  0.00     0.034 C 
HETATM    9  C6  UNL     1     -18.305   5.238  12.390  1.00  0.00     0.012 C 
HETATM   10  C9  UNL     1     -17.567   6.320  13.083  1.00  0.00     0.129 C 
ENDROOT
BRANCH  10  11
HETATM   11  N2  UNL     1     -16.396   5.847  13.740  1.00  0.00    -0.372 N 
ATOM     12  H2  UNL     1     -16.524   5.577  14.716  1.00  0.00     0.161 HD
BRANCH  11  13
HETATM   13  C10 UNL     1     -15.086   5.699  13.240  1.00  0.00     0.075 C 
HETATM   14  N3  UNL     1     -14.399   6.700  12.884  1.00  0.00    -0.389 N 
ATOM     15  H32 UNL     1     -14.789   7.639  12.962  1.00  0.00     0.157 HD
ATOM     16  H31 UNL     1     -13.451   6.592  12.522  1.00  0.00     0.157 HD
BRANCH  13  17
HETATM   17  C11 UNL     1     -14.522   4.341  13.127  1.00  0.00     0.061 C 
HETATM   18  C12 UNL     1     -13.011   4.319  12.908  1.00  0.00     0.013 C 
HETATM   19  C13 UNL     1     -12.972   3.120  13.831  1.00  0.00     0.010 C 
HETATM   20  C14 UNL     1     -14.301   3.593  14.393  1.00  0.00     0.053 C 
BRANCH  20  21
HETATM   21  C15 UNL     1     -15.246   2.419  14.502  1.00  0.00     0.321 C 
BRANCH  21  22
HETATM   22  N4  UNL     1     -16.141   2.655  15.621  1.00  0.00    -0.053 N 
ATOM     23  H43 UNL     1     -17.121   2.686  15.340  1.00  0.00     0.277 HD
ATOM     24  H42 UNL     1     -16.202   1.854  16.250  1.00  0.00     0.277 HD
ATOM     25  H41 UNL     1     -15.842   3.506  16.097  1.00  0.00     0.277 HD
ENDBRANCH  21  22
BRANCH  21  26
HETATM   26  O1  UNL     1     -15.927   2.157  13.328  1.00  0.00    -0.370 OA
ATOM     27  H1  UNL     1     -15.668   1.338  12.921  1.00  0.00     0.212 HD
ENDBRANCH  21  26
ENDBRANCH  20  21
ENDBRANCH  13  17
ENDBRANCH  11  13
ENDBRANCH  10  11
BRANCH   9  28
HETATM   28  C7  UNL     1     -18.507   3.956  13.156  1.00  0.00     0.002 C 
HETATM   29  C8  UNL     1     -19.979   3.913  13.623  1.00  0.00     0.005 C 
ENDBRANCH   9  28
TORSDOF 7
ENDMDL
