MODEL 1
REMARK VINA RESULT: -7.382614274      0.000      0.000
REMARK  8 active torsions:
REMARK  status: ('A' for Active; 'I' for Inactive)
REMARK    1  A    between atoms: C2_2  and  N2_6 
REMARK    2  A    between atoms: N2_6  and  C3_8 
REMARK    3  A    between atoms: C4_11  and  N4_12 
REMARK    4  A    between atoms: C5_17  and  N6_18 
REMARK    5  A    between atoms: N6_18  and  C6_20 
REMARK    6  A    between atoms: C6_20  and  C7_21 
REMARK    7  A    between atoms: C7_21  and  C8_22 
REMARK    8  A    between atoms: C8_22  and  N7_23 
ROOT
HETATM    1  C3  UNL     1     -18.895   7.688  13.760  1.00  0.00     0.712 A 
HETATM    2  N3  UNL     1     -18.683   8.962  14.136  1.00  0.00    -0.021 N 
ATOM      3  H3  UNL     1     -19.453   9.631  14.121  1.00  0.00     0.203 HD
HETATM    4  C4  UNL     1     -17.463   9.357  14.532  1.00  0.00     0.705 A 
HETATM    5  N5  UNL     1     -16.456   8.458  14.545  1.00  0.00    -0.022 N 
ATOM      6  H5  UNL     1     -15.528   8.758  14.845  1.00  0.00     0.203 HD
HETATM    7  C5  UNL     1     -16.641   7.176  14.174  1.00  0.00     0.707 A 
HETATM    8  N8  UNL     1     -17.875   6.826  13.786  1.00  0.00    -0.021 N 
ATOM      9  H8  UNL     1     -18.043   5.862  13.500  1.00  0.00     0.203 HD
ENDROOT
BRANCH   7  10
HETATM   10  N6  UNL     1     -15.692   6.306  14.180  1.00  0.00    -0.225 N 
ATOM     11  H6  UNL     1     -15.534   5.730  15.007  1.00  0.00     0.177 HD
BRANCH  10  12
HETATM   12  C6  UNL     1     -14.856   6.146  13.018  1.00  0.00     0.140 C 
BRANCH  12  13
HETATM   13  C7  UNL     1     -15.244   4.891  12.260  1.00  0.00     0.050 C 
BRANCH  13  14
HETATM   14  C8  UNL     1     -14.187   3.839  12.315  1.00  0.00     0.274 C 
BRANCH  14  15
HETATM   15  N7  UNL     1     -14.699   2.716  13.080  1.00  0.00     0.088 N 
HETATM   16  C9  UNL     1     -14.083   2.761  14.375  1.00  0.00     0.272 C 
HETATM   17  C10 UNL     1     -15.027   3.195  15.466  1.00  0.00     0.030 C 
HETATM   18  C11 UNL     1     -16.104   2.131  15.529  1.00  0.00     0.003 C 
HETATM   19  C12 UNL     1     -16.777   2.016  14.217  1.00  0.00     0.030 C 
HETATM   20  C13 UNL     1     -16.123   2.730  13.085  1.00  0.00     0.272 C 
ENDBRANCH  14  15
ENDBRANCH  13  14
ENDBRANCH  12  13
ENDBRANCH  10  12
ENDBRANCH   7  10
BRANCH   4  21
HETATM   21  N4  UNL     1     -17.223  10.585  14.902  1.00  0.00    -0.234 N 
ATOM     22  H42 UNL     1     -17.592  10.916  15.794  1.00  0.00     0.174 HD
ATOM     23  H41 UNL     1     -16.677  11.224  14.324  1.00  0.00     0.174 HD
ENDBRANCH   4  21
BRANCH   1  24
HETATM   24  N2  UNL     1     -20.056   7.276  13.374  1.00  0.00    -0.180 N 
ATOM     25  H2  UNL     1     -20.844   7.923  13.363  1.00  0.00     0.185 HD
BRANCH  24  26
HETATM   26  C2  UNL     1     -20.244   5.938  12.968  1.00  0.00     0.087 C 
HETATM   27  C1  UNL     1     -20.072   5.585  11.537  1.00  0.00     0.089 C 
HETATM   28  N1  UNL     1     -20.560   5.055  13.851  1.00  0.00    -0.389 N 
ATOM     29  H12 UNL     1     -20.696   4.088  13.557  1.00  0.00     0.157 HD
ATOM     30  H11 UNL     1     -20.677   5.298  14.835  1.00  0.00     0.157 HD
ENDBRANCH  24  26
ENDBRANCH   1  24
TORSDOF 8
ENDMDL
MODEL 2
REMARK VINA RESULT: -7.168734687      1.546      4.080
REMARK  8 active torsions:
REMARK  status: ('A' for Active; 'I' for Inactive)
REMARK    1  A    between atoms: C2_2  and  N2_6 
REMARK    2  A    between atoms: N2_6  and  C3_8 
REMARK    3  A    between atoms: C4_11  and  N4_12 
REMARK    4  A    between atoms: C5_17  and  N6_18 
REMARK    5  A    between atoms: N6_18  and  C6_20 
REMARK    6  A    between atoms: C6_20  and  C7_21 
REMARK    7  A    between atoms: C7_21  and  C8_22 
REMARK    8  A    between atoms: C8_22  and  N7_23 
ROOT
HETATM    1  C3  UNL     1     -18.526   6.778  13.105  1.00  0.00     0.712 A 
HETATM    2  N3  UNL     1     -19.846   6.949  12.913  1.00  0.00    -0.021 N 
ATOM      3  H3  UNL     1     -20.203   7.858  12.615  1.00  0.00     0.203 HD
HETATM    4  C4  UNL     1     -20.697   5.930  13.109  1.00  0.00     0.705 A 
HETATM    5  N5  UNL     1     -20.208   4.735  13.502  1.00  0.00    -0.022 N 
ATOM      6  H5  UNL     1     -20.854   3.961  13.653  1.00  0.00     0.203 HD
HETATM    7  C5  UNL     1     -18.891   4.536  13.702  1.00  0.00     0.707 A 
HETATM    8  N8  UNL     1     -18.078   5.581  13.494  1.00  0.00    -0.021 N 
ATOM      9  H8  UNL     1     -17.076   5.458  13.639  1.00  0.00     0.203 HD
ENDROOT
BRANCH   7  10
HETATM   10  N6  UNL     1     -18.407   3.404  14.078  1.00  0.00    -0.225 N 
ATOM     11  H6  UNL     1     -18.860   2.877  14.824  1.00  0.00     0.177 HD
BRANCH  10  12
HETATM   12  C6  UNL     1     -17.223   2.882  13.442  1.00  0.00     0.140 C 
BRANCH  12  13
HETATM   13  C7  UNL     1     -16.159   2.584  14.480  1.00  0.00     0.050 C 
BRANCH  13  14
HETATM   14  C8  UNL     1     -15.044   3.577  14.459  1.00  0.00     0.274 C 
BRANCH  14  15
HETATM   15  N7  UNL     1     -13.879   2.943  13.867  1.00  0.00     0.088 N 
HETATM   16  C9  UNL     1     -13.648   3.567  12.597  1.00  0.00     0.272 C 
HETATM   17  C10 UNL     1     -12.444   4.473  12.592  1.00  0.00     0.030 C 
HETATM   18  C11 UNL     1     -11.252   3.579  12.864  1.00  0.00     0.003 C 
HETATM   19  C12 UNL     1     -11.427   2.885  14.159  1.00  0.00     0.030 C 
HETATM   20  C13 UNL     1     -12.780   2.985  14.773  1.00  0.00     0.272 C 
ENDBRANCH  14  15
ENDBRANCH  13  14
ENDBRANCH  12  13
ENDBRANCH  10  12
ENDBRANCH   7  10
BRANCH   4  21
HETATM   21  N4  UNL     1     -21.983   6.063  12.931  1.00  0.00    -0.234 N 
ATOM     22  H42 UNL     1     -22.327   6.813  12.331  1.00  0.00     0.174 HD
ATOM     23  H41 UNL     1     -22.654   5.437  13.376  1.00  0.00     0.174 HD
ENDBRANCH   4  21
BRANCH   1  24
HETATM   24  N2  UNL     1     -17.681   7.737  12.925  1.00  0.00    -0.180 N 
ATOM     25  H2  UNL     1     -17.890   8.476  12.254  1.00  0.00     0.185 HD
BRANCH  24  26
HETATM   26  C2  UNL     1     -16.471   7.772  13.650  1.00  0.00     0.087 C 
HETATM   27  C1  UNL     1     -15.220   7.318  12.993  1.00  0.00     0.089 C 
HETATM   28  N1  UNL     1     -16.483   8.199  14.865  1.00  0.00    -0.389 N 
ATOM     29  H12 UNL     1     -15.608   8.224  15.389  1.00  0.00     0.157 HD
ATOM     30  H11 UNL     1     -17.343   8.511  15.316  1.00  0.00     0.157 HD
ENDBRANCH  24  26
ENDBRANCH   1  24
TORSDOF 8
ENDMDL
MODEL 3
REMARK VINA RESULT: -7.164760921      1.455      3.907
REMARK  8 active torsions:
REMARK  status: ('A' for Active; 'I' for Inactive)
REMARK    1  A    between atoms: C2_2  and  N2_6 
REMARK    2  A    between atoms: N2_6  and  C3_8 
REMARK    3  A    between atoms: C4_11  and  N4_12 
REMARK    4  A    between atoms: C5_17  and  N6_18 
REMARK    5  A    between atoms: N6_18  and  C6_20 
REMARK    6  A    between atoms: C6_20  and  C7_21 
REMARK    7  A    between atoms: C7_21  and  C8_22 
REMARK    8  A    between atoms: C8_22  and  N7_23 
ROOT
HETATM    1  C3  UNL     1     -18.526   6.946  13.197  1.00  0.00     0.712 A 
HETATM    2  N3  UNL     1     -19.849   7.025  12.968  1.00  0.00    -0.021 N 
ATOM      3  H3  UNL     1     -20.258   7.904  12.653  1.00  0.00     0.203 HD
HETATM    4  C4  UNL     1     -20.633   5.951  13.152  1.00  0.00     0.705 A 
HETATM    5  N5  UNL     1     -20.074   4.796  13.570  1.00  0.00    -0.022 N 
ATOM      6  H5  UNL     1     -20.670   3.980  13.710  1.00  0.00     0.203 HD
HETATM    7  C5  UNL     1     -18.752   4.689  13.807  1.00  0.00     0.707 A 
HETATM    8  N8  UNL     1     -18.008   5.786  13.610  1.00  0.00    -0.021 N 
ATOM      9  H8  UNL     1     -17.004   5.733  13.783  1.00  0.00     0.203 HD
ENDROOT
BRANCH   7  10
HETATM   10  N6  UNL     1     -18.202   3.596  14.206  1.00  0.00    -0.225 N 
ATOM     11  H6  UNL     1     -18.100   3.410  15.204  1.00  0.00     0.177 HD
BRANCH  10  12
HETATM   12  C6  UNL     1     -17.729   2.635  13.241  1.00  0.00     0.140 C 
BRANCH  12  13
HETATM   13  C7  UNL     1     -16.213   2.641  13.195  1.00  0.00     0.050 C 
BRANCH  13  14
HETATM   14  C8  UNL     1     -15.600   2.858  14.539  1.00  0.00     0.274 C 
BRANCH  14  15
HETATM   15  N7  UNL     1     -14.464   3.749  14.383  1.00  0.00     0.088 N 
HETATM   16  C9  UNL     1     -13.287   3.013  14.744  1.00  0.00     0.272 C 
HETATM   17  C10 UNL     1     -12.430   2.647  13.560  1.00  0.00     0.030 C 
HETATM   18  C11 UNL     1     -11.961   3.959  12.967  1.00  0.00     0.003 C 
HETATM   19  C12 UNL     1     -13.128   4.785  12.582  1.00  0.00     0.030 C 
HETATM   20  C13 UNL     1     -14.451   4.310  13.074  1.00  0.00     0.272 C 
ENDBRANCH  14  15
ENDBRANCH  13  14
ENDBRANCH  12  13
ENDBRANCH  10  12
ENDBRANCH   7  10
BRANCH   4  21
HETATM   21  N4  UNL     1     -21.919   5.994  12.939  1.00  0.00    -0.234 N 
ATOM     22  H42 UNL     1     -22.282   5.707  12.030  1.00  0.00     0.174 HD
ATOM     23  H41 UNL     1     -22.573   6.306  13.657  1.00  0.00     0.174 HD
ENDBRANCH   4  21
BRANCH   1  24
HETATM   24  N2  UNL     1     -17.743   7.959  13.031  1.00  0.00    -0.180 N 
ATOM     25  H2  UNL     1     -17.956   8.649  12.311  1.00  0.00     0.185 HD
BRANCH  24  26
HETATM   26  C2  UNL     1     -16.597   8.121  13.837  1.00  0.00     0.087 C 
HETATM   27  C1  UNL     1     -15.254   7.948  13.230  1.00  0.00     0.089 C 
HETATM   28  N1  UNL     1     -16.746   8.416  15.082  1.00  0.00    -0.389 N 
ATOM     29  H12 UNL     1     -15.917   8.533  15.665  1.00  0.00     0.157 HD
ATOM     30  H11 UNL     1     -17.669   8.536  15.499  1.00  0.00     0.157 HD
ENDBRANCH  24  26
ENDBRANCH   1  24
TORSDOF 8
ENDMDL
MODEL 4
REMARK VINA RESULT: -7.138350602      1.043      3.319
REMARK  8 active torsions:
REMARK  status: ('A' for Active; 'I' for Inactive)
REMARK    1  A    between atoms: C2_2  and  N2_6 
REMARK    2  A    between atoms: N2_6  and  C3_8 
REMARK    3  A    between atoms: C4_11  and  N4_12 
REMARK    4  A    between atoms: C5_17  and  N6_18 
REMARK    5  A    between atoms: N6_18  and  C6_20 
REMARK    6  A    between atoms: C6_20  and  C7_21 
REMARK    7  A    between atoms: C7_21  and  C8_22 
REMARK    8  A    between atoms: C8_22  and  N7_23 
ROOT
HETATM    1  C3  UNL     1     -17.211   9.267  14.381  1.00  0.00     0.712 A 
HETATM    2  N3  UNL     1     -18.469   8.927  14.048  1.00  0.00    -0.021 N 
ATOM      3  H3  UNL     1     -19.204   9.635  14.051  1.00  0.00     0.203 HD
HETATM    4  C4  UNL     1     -18.761   7.661  13.710  1.00  0.00     0.705 A 
HETATM    5  N5  UNL     1     -17.776   6.739  13.712  1.00  0.00    -0.022 N 
ATOM      6  H5  UNL     1     -17.998   5.777  13.457  1.00  0.00     0.203 HD
HETATM    7  C5  UNL     1     -16.508   7.052  14.042  1.00  0.00     0.707 A 
HETATM    8  N8  UNL     1     -16.262   8.328  14.372  1.00  0.00    -0.021 N 
ATOM      9  H8  UNL     1     -15.310   8.592  14.627  1.00  0.00     0.203 HD
ENDROOT
BRANCH   7  10
HETATM   10  N6  UNL     1     -15.556   6.186  14.049  1.00  0.00    -0.225 N 
ATOM     11  H6  UNL     1     -15.380   5.628  14.885  1.00  0.00     0.177 HD
BRANCH  10  12
HETATM   12  C6  UNL     1     -14.739   6.006  12.876  1.00  0.00     0.140 C 
BRANCH  12  13
HETATM   13  C7  UNL     1     -15.115   4.719  12.168  1.00  0.00     0.050 C 
BRANCH  13  14
HETATM   14  C8  UNL     1     -14.075   3.658  12.317  1.00  0.00     0.274 C 
BRANCH  14  15
HETATM   15  N7  UNL     1     -14.628   2.588  13.129  1.00  0.00     0.088 N 
HETATM   16  C9  UNL     1     -14.043   2.692  14.435  1.00  0.00     0.272 C 
HETATM   17  C10 UNL     1     -15.005   3.203  15.476  1.00  0.00     0.030 C 
HETATM   18  C11 UNL     1     -16.104   2.164  15.570  1.00  0.00     0.003 C 
HETATM   19  C12 UNL     1     -16.747   1.990  14.249  1.00  0.00     0.030 C 
HETATM   20  C13 UNL     1     -16.052   2.629  13.097  1.00  0.00     0.272 C 
ENDBRANCH  14  15
ENDBRANCH  13  14
ENDBRANCH  12  13
ENDBRANCH  10  12
ENDBRANCH   7  10
BRANCH   4  21
HETATM   21  N4  UNL     1     -19.970   7.299  13.382  1.00  0.00    -0.234 N 
ATOM     22  H42 UNL     1     -20.542   7.928  12.817  1.00  0.00     0.174 HD
ATOM     23  H41 UNL     1     -20.361   6.403  13.674  1.00  0.00     0.174 HD
ENDBRANCH   4  21
BRANCH   1  24
HETATM   24  N2  UNL     1     -16.896  10.475  14.711  1.00  0.00    -0.180 N 
ATOM     25  H2  UNL     1     -16.276  11.018  14.110  1.00  0.00     0.185 HD
BRANCH  24  26
HETATM   26  C2  UNL     1     -17.401  11.051  15.896  1.00  0.00     0.087 C 
HETATM   27  C1  UNL     1     -16.856  10.611  17.204  1.00  0.00     0.089 C 
HETATM   28  N1  UNL     1     -18.324  11.945  15.811  1.00  0.00    -0.389 N 
ATOM     29  H12 UNL     1     -18.690  12.361  16.668  1.00  0.00     0.157 HD
ATOM     30  H11 UNL     1     -18.698  12.247  14.912  1.00  0.00     0.157 HD
ENDBRANCH  24  26
ENDBRANCH   1  24
TORSDOF 8
ENDMDL
MODEL 5
REMARK VINA RESULT: -7.096654838      1.573      4.031
REMARK  8 active torsions:
REMARK  status: ('A' for Active; 'I' for Inactive)
REMARK    1  A    between atoms: C2_2  and  N2_6 
REMARK    2  A    between atoms: N2_6  and  C3_8 
REMARK    3  A    between atoms: C4_11  and  N4_12 
REMARK    4  A    between atoms: C5_17  and  N6_18 
REMARK    5  A    between atoms: N6_18  and  C6_20 
REMARK    6  A    between atoms: C6_20  and  C7_21 
REMARK    7  A    between atoms: C7_21  and  C8_22 
REMARK    8  A    between atoms: C8_22  and  N7_23 
ROOT
HETATM    1  C3  UNL     1     -18.494   6.740  13.002  1.00  0.00     0.712 A 
HETATM    2  N3  UNL     1     -19.816   6.916  12.829  1.00  0.00    -0.021 N 
ATOM      3  H3  UNL     1     -20.170   7.813  12.494  1.00  0.00     0.203 HD
HETATM    4  C4  UNL     1     -20.672   5.917  13.094  1.00  0.00     0.705 A 
HETATM    5  N5  UNL     1     -20.186   4.738  13.536  1.00  0.00    -0.022 N 
ATOM      6  H5  UNL     1     -20.837   3.979  13.739  1.00  0.00     0.203 HD
HETATM    7  C5  UNL     1     -18.867   4.534  13.718  1.00  0.00     0.707 A 
HETATM    8  N8  UNL     1     -18.049   5.559  13.441  1.00  0.00    -0.021 N 
ATOM      9  H8  UNL     1     -17.045   5.433  13.570  1.00  0.00     0.203 HD
ENDROOT
BRANCH   7  10
HETATM   10  N6  UNL     1     -18.386   3.417  14.139  1.00  0.00    -0.225 N 
ATOM     11  H6  UNL     1     -18.618   3.082  15.074  1.00  0.00     0.177 HD
BRANCH  10  12
HETATM   12  C6  UNL     1     -17.519   2.642  13.288  1.00  0.00     0.140 C 
BRANCH  12  13
HETATM   13  C7  UNL     1     -16.118   2.599  13.866  1.00  0.00     0.050 C 
BRANCH  13  14
HETATM   14  C8  UNL     1     -15.094   3.142  12.926  1.00  0.00     0.274 C 
BRANCH  14  15
HETATM   15  N7  UNL     1     -13.802   2.585  13.287  1.00  0.00     0.088 N 
HETATM   16  C9  UNL     1     -12.870   2.959  12.263  1.00  0.00     0.272 C 
HETATM   17  C10 UNL     1     -11.895   4.018  12.706  1.00  0.00     0.030 C 
HETATM   18  C11 UNL     1     -11.087   3.395  13.826  1.00  0.00     0.003 C 
HETATM   19  C12 UNL     1     -11.988   2.968  14.920  1.00  0.00     0.030 C 
HETATM   20  C13 UNL     1     -13.444   2.984  14.607  1.00  0.00     0.272 C 
ENDBRANCH  14  15
ENDBRANCH  13  14
ENDBRANCH  12  13
ENDBRANCH  10  12
ENDBRANCH   7  10
BRANCH   4  21
HETATM   21  N4  UNL     1     -21.960   6.055  12.938  1.00  0.00    -0.234 N 
ATOM     22  H42 UNL     1     -22.309   6.754  12.281  1.00  0.00     0.174 HD
ATOM     23  H41 UNL     1     -22.629   5.483  13.453  1.00  0.00     0.174 HD
ENDBRANCH   4  21
BRANCH   1  24
HETATM   24  N2  UNL     1     -17.643   7.679  12.756  1.00  0.00    -0.180 N 
ATOM     25  H2  UNL     1     -17.479   7.974  11.794  1.00  0.00     0.185 HD
BRANCH  24  26
HETATM   26  C2  UNL     1     -16.938   8.302  13.808  1.00  0.00     0.087 C 
HETATM   27  C1  UNL     1     -17.595   9.387  14.578  1.00  0.00     0.089 C 
HETATM   28  N1  UNL     1     -15.740   7.912  14.074  1.00  0.00    -0.389 N 
ATOM     29  H12 UNL     1     -15.230   8.362  14.834  1.00  0.00     0.157 HD
ATOM     30  H11 UNL     1     -15.289   7.165  13.545  1.00  0.00     0.157 HD
ENDBRANCH  24  26
ENDBRANCH   1  24
TORSDOF 8
ENDMDL
