MODEL 1
REMARK VINA RESULT: -7.294805441      0.000      0.000
REMARK  4 active torsions:
REMARK  status: ('A' for Active; 'I' for Inactive)
REMARK    1  A    between atoms: C2_2  and  N1_3 
REMARK       I    between atoms: N1_3  and  C3_5 
REMARK       I    between atoms: C3_5  and  N3_11 
REMARK       I    between atoms: N2_6  and  C4_8 
REMARK    2  A    between atoms: N3_11  and  O2_13 
REMARK    3  A    between atoms: O2_13  and  C6_14 
REMARK    4  A    between atoms: C9_17  and  N4_18 
REMARK       I    between atoms: N4_18  and  C10_20 
ROOT
HETATM    1  C6  UNL     1     -13.428  10.439  12.736  1.00  0.00     0.153 C 
HETATM    2  C7  UNL     1     -12.071  10.287  13.328  1.00  0.00     0.036 C 
HETATM    3  C8  UNL     1     -11.215  11.480  12.961  1.00  0.00     0.028 C 
HETATM    4  C9  UNL     1     -11.977  12.789  13.078  1.00  0.00     0.084 C 
HETATM    5  C11 UNL     1     -13.205  12.805  12.215  1.00  0.00     0.028 C 
HETATM    6  C12 UNL     1     -13.340  11.434  11.568  1.00  0.00     0.036 C 
ENDROOT
BRANCH   1   7
HETATM    7  O2  UNL     1     -14.008   9.271  12.277  1.00  0.00    -0.261 OA
BRANCH   7   8
HETATM    8  N3  UNL     1     -14.408   8.554  13.366  1.00  0.00    -0.096 N 
HETATM    9  C3  UNL     1     -15.738   8.191  13.633  1.00  0.00     0.700 C 
HETATM   10  N1  UNL     1     -16.347   8.740  14.804  1.00  0.00    -0.225 N 
HETATM   11  N2  UNL     1     -16.408   7.387  12.861  1.00  0.00    -0.159 N 
ATOM     12  H1  UNL     1     -16.301   8.252  15.699  1.00  0.00     0.177 HD
HETATM   13  C4  UNL     1     -17.761   7.032  13.163  1.00  0.00     0.232 C 
ATOM     14  H2  UNL     1     -15.963   7.003  12.027  1.00  0.00     0.187 HD
HETATM   15  C5  UNL     1     -18.740   6.848  12.065  1.00  0.00     0.118 C 
HETATM   16  O1  UNL     1     -18.083   6.884  14.369  1.00  0.00    -0.273 OA
ATOM     17  H3  UNL     1     -13.691   8.261  14.031  1.00  0.00     0.213 HD
BRANCH  10  18
HETATM   18  C2  UNL     1     -17.030  10.005  14.678  1.00  0.00     0.134 C 
HETATM   19  C1  UNL     1     -16.182  11.050  15.397  1.00  0.00     0.027 C 
ENDBRANCH  10  18
ENDBRANCH   7   8
ENDBRANCH   1   7
BRANCH   4  20
HETATM   20  N4  UNL     1     -11.089  13.837  12.620  1.00  0.00    -0.360 N 
HETATM   21  C10 UNL     1     -10.002  14.233  13.460  1.00  0.00     0.182 C 
HETATM   22  N5  UNL     1     -10.110  14.285  14.737  1.00  0.00    -0.374 N 
HETATM   23  N6  UNL     1      -8.788  14.568  12.772  1.00  0.00    -0.064 NA
ATOM     24  H52 UNL     1     -10.973  14.047  15.226  1.00  0.00     0.158 HD
ATOM     25  H51 UNL     1      -9.334  14.567  15.336  1.00  0.00     0.158 HD
ATOM     26  H4  UNL     1     -11.237  14.285  11.716  1.00  0.00     0.162 HD
ENDBRANCH   4  20
TORSDOF 4
ENDMDL
MODEL 2
REMARK VINA RESULT: -7.280884153      5.017      8.282
REMARK  4 active torsions:
REMARK  status: ('A' for Active; 'I' for Inactive)
REMARK    1  A    between atoms: C2_2  and  N1_3 
REMARK       I    between atoms: N1_3  and  C3_5 
REMARK       I    between atoms: C3_5  and  N3_11 
REMARK       I    between atoms: N2_6  and  C4_8 
REMARK    2  A    between atoms: N3_11  and  O2_13 
REMARK    3  A    between atoms: O2_13  and  C6_14 
REMARK    4  A    between atoms: C9_17  and  N4_18 
REMARK       I    between atoms: N4_18  and  C10_20 
ROOT
HETATM    1  C6  UNL     1     -14.773   4.659  13.400  1.00  0.00     0.153 C 
HETATM    2  C7  UNL     1     -14.204   3.538  14.198  1.00  0.00     0.036 C 
HETATM    3  C8  UNL     1     -14.021   2.322  13.314  1.00  0.00     0.028 C 
HETATM    4  C9  UNL     1     -13.447   2.684  11.955  1.00  0.00     0.084 C 
HETATM    5  C11 UNL     1     -14.310   3.673  11.225  1.00  0.00     0.028 C 
HETATM    6  C12 UNL     1     -15.449   4.072  12.151  1.00  0.00     0.036 C 
ENDROOT
BRANCH   1   7
HETATM    7  O2  UNL     1     -15.689   5.453  14.065  1.00  0.00    -0.261 OA
BRANCH   7   8
HETATM    8  N3  UNL     1     -15.865   6.585  13.326  1.00  0.00    -0.096 N 
HETATM    9  C3  UNL     1     -16.505   7.746  13.791  1.00  0.00     0.700 C 
HETATM   10  N1  UNL     1     -17.722   8.129  13.147  1.00  0.00    -0.225 N 
HETATM   11  N2  UNL     1     -16.026   8.460  14.768  1.00  0.00    -0.159 N 
ATOM     12  H1  UNL     1     -17.717   8.760  12.345  1.00  0.00     0.177 HD
HETATM   13  C4  UNL     1     -16.700   9.641  15.216  1.00  0.00     0.232 C 
ATOM     14  H2  UNL     1     -15.158   8.175  15.220  1.00  0.00     0.187 HD
HETATM   15  C5  UNL     1     -16.705   9.986  16.658  1.00  0.00     0.118 C 
HETATM   16  O1  UNL     1     -17.275  10.360  14.361  1.00  0.00    -0.273 OA
ATOM     17  H3  UNL     1     -15.507   6.590  12.371  1.00  0.00     0.213 HD
BRANCH  10  18
HETATM   18  C2  UNL     1     -18.958   7.597  13.669  1.00  0.00     0.134 C 
HETATM   19  C1  UNL     1     -19.640   6.840  12.533  1.00  0.00     0.027 C 
ENDBRANCH  10  18
ENDBRANCH   7   8
ENDBRANCH   1   7
BRANCH   4  20
HETATM   20  N4  UNL     1     -13.401   1.464  11.176  1.00  0.00    -0.360 N 
HETATM   21  C10 UNL     1     -12.294   0.578  11.353  1.00  0.00     0.182 C 
HETATM   22  N5  UNL     1     -11.101   1.007  11.555  1.00  0.00    -0.374 N 
HETATM   23  N6  UNL     1     -12.611  -0.820  11.284  1.00  0.00    -0.064 NA
ATOM     24  H52 UNL     1     -10.876   2.000  11.603  1.00  0.00     0.158 HD
ATOM     25  H51 UNL     1     -10.311   0.374  11.680  1.00  0.00     0.158 HD
ATOM     26  H4  UNL     1     -14.145   1.241  10.515  1.00  0.00     0.162 HD
ENDBRANCH   4  20
TORSDOF 4
ENDMDL
MODEL 3
REMARK VINA RESULT: -7.127080827      5.056      8.353
REMARK  4 active torsions:
REMARK  status: ('A' for Active; 'I' for Inactive)
REMARK    1  A    between atoms: C2_2  and  N1_3 
REMARK       I    between atoms: N1_3  and  C3_5 
REMARK       I    between atoms: C3_5  and  N3_11 
REMARK       I    between atoms: N2_6  and  C4_8 
REMARK    2  A    between atoms: N3_11  and  O2_13 
REMARK    3  A    between atoms: O2_13  and  C6_14 
REMARK    4  A    between atoms: C9_17  and  N4_18 
REMARK       I    between atoms: N4_18  and  C10_20 
ROOT
HETATM    1  C6  UNL     1     -15.276   4.083  13.645  1.00  0.00     0.153 C 
HETATM    2  C7  UNL     1     -16.136   3.562  12.547  1.00  0.00     0.036 C 
HETATM    3  C8  UNL     1     -15.273   3.142  11.376  1.00  0.00     0.028 C 
HETATM    4  C9  UNL     1     -14.032   2.388  11.822  1.00  0.00     0.084 C 
HETATM    5  C11 UNL     1     -13.189   3.198  12.764  1.00  0.00     0.028 C 
HETATM    6  C12 UNL     1     -13.923   4.499  13.048  1.00  0.00     0.036 C 
ENDROOT
BRANCH   1   7
HETATM    7  O2  UNL     1     -15.797   5.154  14.347  1.00  0.00    -0.261 OA
BRANCH   7   8
HETATM    8  N3  UNL     1     -15.892   6.205  13.483  1.00  0.00    -0.096 N 
HETATM    9  C3  UNL     1     -16.515   7.427  13.785  1.00  0.00     0.700 C 
HETATM   10  N1  UNL     1     -17.681   7.775  13.036  1.00  0.00    -0.225 N 
HETATM   11  N2  UNL     1     -16.064   8.229  14.706  1.00  0.00    -0.159 N 
ATOM     12  H1  UNL     1     -17.610   8.315  12.173  1.00  0.00     0.177 HD
HETATM   13  C4  UNL     1     -16.718   9.470  14.987  1.00  0.00     0.232 C 
ATOM     14  H2  UNL     1     -15.232   7.968  15.235  1.00  0.00     0.187 HD
HETATM   15  C5  UNL     1     -16.788   9.969  16.381  1.00  0.00     0.118 C 
HETATM   16  O1  UNL     1     -17.220  10.110  14.029  1.00  0.00    -0.273 OA
ATOM     17  H3  UNL     1     -15.484   6.096  12.555  1.00  0.00     0.213 HD
BRANCH  10  18
HETATM   18  C2  UNL     1     -18.961   7.339  13.539  1.00  0.00     0.134 C 
HETATM   19  C1  UNL     1     -19.752   6.794  12.354  1.00  0.00     0.027 C 
ENDBRANCH  10  18
ENDBRANCH   7   8
ENDBRANCH   1   7
BRANCH   4  20
HETATM   20  N4  UNL     1     -13.250   2.120  10.633  1.00  0.00    -0.360 N 
HETATM   21  C10 UNL     1     -12.753   0.796  10.422  1.00  0.00     0.182 C 
HETATM   22  N5  UNL     1     -12.338   0.060  11.387  1.00  0.00    -0.374 N 
HETATM   23  N6  UNL     1     -12.750   0.354   9.057  1.00  0.00    -0.064 NA
ATOM     24  H52 UNL     1     -12.340   0.375  12.358  1.00  0.00     0.158 HD
ATOM     25  H51 UNL     1     -11.983  -0.884  11.237  1.00  0.00     0.158 HD
ATOM     26  H4  UNL     1     -13.057   2.861   9.960  1.00  0.00     0.162 HD
ENDBRANCH   4  20
TORSDOF 4
ENDMDL
MODEL 4
REMARK VINA RESULT: -6.924986638      3.008      8.304
REMARK  4 active torsions:
REMARK  status: ('A' for Active; 'I' for Inactive)
REMARK    1  A    between atoms: C2_2  and  N1_3 
REMARK       I    between atoms: N1_3  and  C3_5 
REMARK       I    between atoms: C3_5  and  N3_11 
REMARK       I    between atoms: N2_6  and  C4_8 
REMARK    2  A    between atoms: N3_11  and  O2_13 
REMARK    3  A    between atoms: O2_13  and  C6_14 
REMARK    4  A    between atoms: C9_17  and  N4_18 
REMARK       I    between atoms: N4_18  and  C10_20 
ROOT
HETATM    1  C6  UNL     1     -15.123   6.663  13.134  1.00  0.00     0.153 C 
HETATM    2  C7  UNL     1     -16.242   7.644  13.087  1.00  0.00     0.036 C 
HETATM    3  C8  UNL     1     -17.460   7.001  12.459  1.00  0.00     0.028 C 
HETATM    4  C9  UNL     1     -17.683   5.585  12.962  1.00  0.00     0.084 C 
HETATM    5  C11 UNL     1     -16.496   4.702  12.703  1.00  0.00     0.028 C 
HETATM    6  C12 UNL     1     -15.397   5.562  12.097  1.00  0.00     0.036 C 
ENDROOT
BRANCH   1   7
HETATM    7  O2  UNL     1     -13.866   7.188  12.898  1.00  0.00    -0.261 OA
BRANCH   7   8
HETATM    8  N3  UNL     1     -13.807   8.405  13.509  1.00  0.00    -0.096 N 
HETATM    9  C3  UNL     1     -12.957   9.452  13.114  1.00  0.00     0.700 C 
HETATM   10  N1  UNL     1     -11.947   9.864  14.036  1.00  0.00    -0.225 N 
HETATM   11  N2  UNL     1     -13.070  10.040  11.958  1.00  0.00    -0.159 N 
ATOM     12  H1  UNL     1     -12.124  10.603  14.716  1.00  0.00     0.177 HD
HETATM   13  C4  UNL     1     -12.192  11.107  11.586  1.00  0.00     0.232 C 
ATOM     14  H2  UNL     1     -13.794   9.736  11.307  1.00  0.00     0.187 HD
HETATM   15  C5  UNL     1     -11.742  11.238  10.179  1.00  0.00     0.118 C 
HETATM   16  O1  UNL     1     -11.823  11.914  12.477  1.00  0.00    -0.273 OA
ATOM     17  H3  UNL     1     -14.422   8.567  14.307  1.00  0.00     0.213 HD
BRANCH  10  18
HETATM   18  C2  UNL     1     -10.667   9.199  13.975  1.00  0.00     0.134 C 
HETATM   19  C1  UNL     1     -10.108   9.161  15.394  1.00  0.00     0.027 C 
ENDBRANCH  10  18
ENDBRANCH   7   8
ENDBRANCH   1   7
BRANCH   4  20
HETATM   20  N4  UNL     1     -18.812   5.049  12.232  1.00  0.00    -0.360 N 
HETATM   21  C10 UNL     1     -20.115   5.152  12.810  1.00  0.00     0.182 C 
HETATM   22  N5  UNL     1     -20.316   5.023  14.071  1.00  0.00    -0.374 N 
HETATM   23  N6  UNL     1     -21.179   5.406  11.880  1.00  0.00    -0.064 NA
ATOM     24  H52 UNL     1     -19.560   4.842  14.731  1.00  0.00     0.158 HD
ATOM     25  H51 UNL     1     -21.245   5.096  14.483  1.00  0.00     0.158 HD
ATOM     26  H4  UNL     1     -18.681   4.607  11.322  1.00  0.00     0.162 HD
ENDBRANCH   4  20
TORSDOF 4
ENDMDL
MODEL 5
REMARK VINA RESULT: -6.872107519      2.474      8.165
REMARK  4 active torsions:
REMARK  status: ('A' for Active; 'I' for Inactive)
REMARK    1  A    between atoms: C2_2  and  N1_3 
REMARK       I    between atoms: N1_3  and  C3_5 
REMARK       I    between atoms: C3_5  and  N3_11 
REMARK       I    between atoms: N2_6  and  C4_8 
REMARK    2  A    between atoms: N3_11  and  O2_13 
REMARK    3  A    between atoms: O2_13  and  C6_14 
REMARK    4  A    between atoms: C9_17  and  N4_18 
REMARK       I    between atoms: N4_18  and  C10_20 
ROOT
HETATM    1  C6  UNL     1     -15.532   8.578  13.503  1.00  0.00     0.153 C 
HETATM    2  C7  UNL     1     -15.177   7.177  13.144  1.00  0.00     0.036 C 
HETATM    3  C8  UNL     1     -16.278   6.239  13.592  1.00  0.00     0.028 C 
HETATM    4  C9  UNL     1     -17.660   6.797  13.296  1.00  0.00     0.084 C 
HETATM    5  C11 UNL     1     -17.881   8.131  13.949  1.00  0.00     0.028 C 
HETATM    6  C12 UNL     1     -16.581   8.541  14.625  1.00  0.00     0.036 C 
ENDROOT
BRANCH   1   7
HETATM    7  O2  UNL     1     -14.475   9.369  13.914  1.00  0.00    -0.261 OA
BRANCH   7   8
HETATM    8  N3  UNL     1     -13.578   9.423  12.888  1.00  0.00    -0.096 N 
HETATM    9  C3  UNL     1     -12.259   9.889  13.010  1.00  0.00     0.700 C 
HETATM   10  N1  UNL     1     -11.907  11.069  12.284  1.00  0.00    -0.225 N 
HETATM   11  N2  UNL     1     -11.374   9.285  13.748  1.00  0.00    -0.159 N 
ATOM     12  H1  UNL     1     -11.530  11.011  11.338  1.00  0.00     0.177 HD
HETATM   13  C4  UNL     1     -10.035   9.782  13.848  1.00  0.00     0.232 C 
ATOM     14  H2  UNL     1     -11.637   8.445  14.263  1.00  0.00     0.187 HD
HETATM   15  C5  UNL     1      -9.307   9.688  15.136  1.00  0.00     0.118 C 
HETATM   16  O1  UNL     1      -9.510  10.290  12.826  1.00  0.00    -0.273 OA
ATOM     17  H3  UNL     1     -13.887   9.104  11.970  1.00  0.00     0.213 HD
BRANCH  10  18
HETATM   18  C2  UNL     1     -12.102  12.343  12.933  1.00  0.00     0.134 C 
HETATM   19  C1  UNL     1     -13.113  13.125  12.100  1.00  0.00     0.027 C 
ENDBRANCH  10  18
ENDBRANCH   7   8
ENDBRANCH   1   7
BRANCH   4  20
HETATM   20  N4  UNL     1     -18.619   5.861  13.844  1.00  0.00    -0.360 N 
HETATM   21  C10 UNL     1     -19.181   4.869  12.983  1.00  0.00     0.182 C 
HETATM   22  N5  UNL     1     -19.468   5.113  11.756  1.00  0.00    -0.374 N 
HETATM   23  N6  UNL     1     -19.403   3.587  13.588  1.00  0.00    -0.064 NA
ATOM     24  H52 UNL     1     -19.310   6.024  11.326  1.00  0.00     0.158 HD
ATOM     25  H51 UNL     1     -19.869   4.405  11.141  1.00  0.00     0.158 HD
ATOM     26  H4  UNL     1     -18.889   5.909  14.827  1.00  0.00     0.162 HD
ENDBRANCH   4  20
TORSDOF 4
ENDMDL
