MODEL 1
REMARK VINA RESULT: -8.150425350      0.000      0.000
REMARK  9 active torsions:
REMARK  status: ('A' for Active; 'I' for Inactive)
REMARK    1  A    between atoms: C1_4  and  C2_6 
REMARK    2  A    between atoms: N3_8  and  C4_9 
REMARK    3  A    between atoms: C8_13  and  N4_14 
REMARK    4  A    between atoms: C10_16  and  C11_17 
REMARK    5  A    between atoms: C11_17  and  N6_21 
REMARK    6  A    between atoms: N6_21  and  N7_23 
REMARK       I    between atoms: N7_23  and  C12_25 
REMARK    7  A    between atoms: C12_25  and  C13_27 
REMARK    8  A    between atoms: C13_27  and  N8_28 
REMARK    9  A    between atoms: C16_31  and  O2_32 
ROOT
HETATM    1  N4  UNL     1      17.051  19.404  51.843  1.00  0.00    -0.251 N 
HETATM    2  C9  UNL     1      17.370  20.689  51.625  1.00  0.00     0.153 A 
HETATM    3  C10 UNL     1      18.231  21.075  52.608  1.00  0.00     0.111 A 
HETATM    4  N10 UNL     1      18.425  20.007  53.413  1.00  0.00    -0.281 N 
ATOM      5  H10 UNL     1      19.019  19.972  54.241  1.00  0.00     0.188 HD
HETATM    6  N11 UNL     1      17.702  19.022  52.928  1.00  0.00    -0.235 N 
ATOM      7  H11 UNL     1      17.651  18.087  53.334  1.00  0.00     0.209 HD
ENDROOT
BRANCH   3   8
HETATM    8  C11 UNL     1      18.809  22.401  52.731  1.00  0.00     0.143 C 
HETATM    9  N5  UNL     1      19.609  22.798  51.809  1.00  0.00    -0.383 N 
ATOM     10  H52 UNL     1      19.836  22.200  51.014  1.00  0.00     0.157 HD
ATOM     11  H51 UNL     1      20.016  23.730  51.895  1.00  0.00     0.157 HD
BRANCH   8  12
HETATM   12  N6  UNL     1      18.498  23.220  53.819  1.00  0.00    -0.281 N 
ATOM     13  H6  UNL     1      17.877  24.021  53.702  1.00  0.00     0.188 HD
BRANCH  12  14
HETATM   14  N7  UNL     1      19.048  22.929  55.060  1.00  0.00    -0.267 N 
HETATM   15  C12 UNL     1      18.287  22.266  56.039  1.00  0.00     0.255 C 
HETATM   16  O1  UNL     1      17.115  21.940  55.768  1.00  0.00    -0.270 OA
ATOM     17  H7  UNL     1      20.010  23.198  55.264  1.00  0.00     0.190 HD
BRANCH  15  18
HETATM   18  C13 UNL     1      18.893  21.971  57.358  1.00  0.00     0.252 C 
BRANCH  18  19
HETATM   19  N8  UNL     1      20.140  21.277  57.120  1.00  0.00    -0.292 N 
HETATM   20  C14 UNL     1      20.192  19.978  56.764  1.00  0.00     0.115 A 
HETATM   21  C15 UNL     1      21.519  19.653  56.625  1.00  0.00     0.076 A 
HETATM   22  C16 UNL     1      22.233  20.794  56.910  1.00  0.00     0.156 A 
HETATM   23  N9  UNL     1      21.352  21.776  57.211  1.00  0.00    -0.278 N 
ATOM     24  H9  UNL     1      21.587  22.735  57.463  1.00  0.00     0.189 HD
BRANCH  22  25
HETATM   25  O2  UNL     1      23.624  20.888  56.883  1.00  0.00    -0.345 OA
ATOM     26  H2  UNL     1      24.140  21.434  57.466  1.00  0.00     0.219 HD
ENDBRANCH  22  25
ENDBRANCH  18  19
ENDBRANCH  15  18
ENDBRANCH  12  14
ENDBRANCH   8  12
ENDBRANCH   3   8
BRANCH   1  27
HETATM   27  C8  UNL     1      16.170  18.654  51.025  1.00  0.00     0.059 A 
HETATM   28  C7  UNL     1      14.886  19.106  50.836  1.00  0.00     0.032 A 
HETATM   29  C6  UNL     1      13.972  18.408  50.046  1.00  0.00     0.005 A 
HETATM   30  C5  UNL     1      14.376  17.236  49.442  1.00  0.00     0.032 A 
HETATM   31  C4  UNL     1      15.657  16.757  49.612  1.00  0.00     0.059 A 
HETATM   32  C17 UNL     1      16.516  17.484  50.403  1.00  0.00     0.063 A 
BRANCH  31  33
HETATM   33  N3  UNL     1      16.092  15.554  48.993  1.00  0.00    -0.251 N 
HETATM   34  C3  UNL     1      17.214  15.370  48.306  1.00  0.00     0.152 A 
HETATM   35  C2  UNL     1      17.219  14.041  47.898  1.00  0.00     0.107 A 
HETATM   36  N13 UNL     1      16.094  13.474  48.357  1.00  0.00    -0.281 N 
HETATM   37  N12 UNL     1      15.450  14.402  49.004  1.00  0.00    -0.235 N 
ATOM     38  H13 UNL     1      15.801  12.506  48.225  1.00  0.00     0.188 HD
ATOM     39  H12 UNL     1      14.552  14.256  49.465  1.00  0.00     0.209 HD
BRANCH  35  40
HETATM   40  C1  UNL     1      18.250  13.371  47.119  1.00  0.00     0.139 C 
HETATM   41  N1  UNL     1      17.901  12.447  46.311  1.00  0.00    -0.386 N 
ATOM     42  H12 UNL     1      18.623  11.977  45.765  1.00  0.00     0.157 HD
ATOM     43  H11 UNL     1      16.928  12.162  46.194  1.00  0.00     0.157 HD
HETATM   44  N2  UNL     1      19.604  13.767  47.282  1.00  0.00    -0.081 NA
ENDBRANCH  35  40
ENDBRANCH  31  33
ENDBRANCH   1  27
TORSDOF 9
ENDMDL
MODEL 2
REMARK VINA RESULT: -8.135074543      2.181      3.173
REMARK  9 active torsions:
REMARK  status: ('A' for Active; 'I' for Inactive)
REMARK    1  A    between atoms: C1_4  and  C2_6 
REMARK    2  A    between atoms: N3_8  and  C4_9 
REMARK    3  A    between atoms: C8_13  and  N4_14 
REMARK    4  A    between atoms: C10_16  and  C11_17 
REMARK    5  A    between atoms: C11_17  and  N6_21 
REMARK    6  A    between atoms: N6_21  and  N7_23 
REMARK       I    between atoms: N7_23  and  C12_25 
REMARK    7  A    between atoms: C12_25  and  C13_27 
REMARK    8  A    between atoms: C13_27  and  N8_28 
REMARK    9  A    between atoms: C16_31  and  O2_32 
ROOT
HETATM    1  N4  UNL     1      15.882  21.300  53.149  1.00  0.00    -0.251 N 
HETATM    2  C9  UNL     1      16.247  21.534  54.418  1.00  0.00     0.153 A 
HETATM    3  C10 UNL     1      15.210  22.160  55.041  1.00  0.00     0.111 A 
HETATM    4  N10 UNL     1      14.221  22.297  54.131  1.00  0.00    -0.281 N 
ATOM      5  H10 UNL     1      13.309  22.727  54.286  1.00  0.00     0.188 HD
HETATM    6  N11 UNL     1      14.655  21.772  53.006  1.00  0.00    -0.235 N 
ATOM      7  H11 UNL     1      14.118  21.734  52.139  1.00  0.00     0.209 HD
ENDROOT
BRANCH   3   8
HETATM    8  C11 UNL     1      15.211  22.588  56.428  1.00  0.00     0.143 C 
HETATM    9  N5  UNL     1      14.133  22.431  57.108  1.00  0.00    -0.383 N 
ATOM     10  H52 UNL     1      13.299  22.022  56.687  1.00  0.00     0.157 HD
ATOM     11  H51 UNL     1      14.133  22.732  58.083  1.00  0.00     0.157 HD
BRANCH   8  12
HETATM   12  N6  UNL     1      16.353  23.148  57.004  1.00  0.00    -0.281 N 
ATOM     13  H6  UNL     1      16.620  24.110  56.793  1.00  0.00     0.188 HD
BRANCH  12  14
HETATM   14  N7  UNL     1      17.120  22.378  57.869  1.00  0.00    -0.267 N 
HETATM   15  C12 UNL     1      18.440  22.033  57.534  1.00  0.00     0.255 C 
HETATM   16  O1  UNL     1      18.909  22.435  56.452  1.00  0.00    -0.270 OA
ATOM     17  H7  UNL     1      16.721  22.061  58.752  1.00  0.00     0.190 HD
BRANCH  15  18
HETATM   18  C13 UNL     1      19.237  21.206  58.470  1.00  0.00     0.252 C 
BRANCH  18  19
HETATM   19  N8  UNL     1      20.403  20.737  57.756  1.00  0.00    -0.292 N 
HETATM   20  C14 UNL     1      20.411  19.588  57.051  1.00  0.00     0.115 A 
HETATM   21  C15 UNL     1      21.667  19.457  56.511  1.00  0.00     0.076 A 
HETATM   22  C16 UNL     1      22.385  20.557  56.920  1.00  0.00     0.156 A 
HETATM   23  N9  UNL     1      21.576  21.325  57.685  1.00  0.00    -0.278 N 
ATOM     24  H9  UNL     1      21.832  22.206  58.130  1.00  0.00     0.189 HD
BRANCH  22  25
HETATM   25  O2  UNL     1      23.716  20.806  56.586  1.00  0.00    -0.345 OA
ATOM     26  H2  UNL     1      23.999  21.274  55.809  1.00  0.00     0.219 HD
ENDBRANCH  22  25
ENDBRANCH  18  19
ENDBRANCH  15  18
ENDBRANCH  12  14
ENDBRANCH   8  12
ENDBRANCH   3   8
BRANCH   1  27
HETATM   27  C8  UNL     1      16.706  20.664  52.188  1.00  0.00     0.059 A 
HETATM   28  C7  UNL     1      17.853  21.295  51.769  1.00  0.00     0.032 A 
HETATM   29  C6  UNL     1      18.702  20.720  50.823  1.00  0.00     0.005 A 
HETATM   30  C5  UNL     1      18.374  19.487  50.299  1.00  0.00     0.032 A 
HETATM   31  C4  UNL     1      17.230  18.829  50.699  1.00  0.00     0.059 A 
HETATM   32  C17 UNL     1      16.429  19.442  51.634  1.00  0.00     0.063 A 
BRANCH  31  33
HETATM   33  N3  UNL     1      16.880  17.556  50.174  1.00  0.00    -0.251 N 
HETATM   34  C3  UNL     1      17.710  16.625  49.716  1.00  0.00     0.152 A 
HETATM   35  C2  UNL     1      16.923  15.551  49.316  1.00  0.00     0.107 A 
HETATM   36  N13 UNL     1      15.644  15.879  49.548  1.00  0.00    -0.281 N 
HETATM   37  N12 UNL     1      15.657  17.076  50.059  1.00  0.00    -0.235 N 
ATOM     38  H13 UNL     1      14.823  15.304  49.361  1.00  0.00     0.188 HD
ATOM     39  H12 UNL     1      14.818  17.585  50.338  1.00  0.00     0.209 HD
BRANCH  35  40
HETATM   40  C1  UNL     1      17.387  14.292  48.750  1.00  0.00     0.139 C 
HETATM   41  N1  UNL     1      16.533  13.370  48.531  1.00  0.00    -0.386 N 
ATOM     42  H12 UNL     1      16.857  12.488  48.135  1.00  0.00     0.157 HD
ATOM     43  H11 UNL     1      15.540  13.484  48.739  1.00  0.00     0.157 HD
HETATM   44  N2  UNL     1      18.769  14.133  48.461  1.00  0.00    -0.081 NA
ENDBRANCH  35  40
ENDBRANCH  31  33
ENDBRANCH   1  27
TORSDOF 9
ENDMDL
MODEL 3
REMARK VINA RESULT: -8.121602452      3.390      5.595
REMARK  9 active torsions:
REMARK  status: ('A' for Active; 'I' for Inactive)
REMARK    1  A    between atoms: C1_4  and  C2_6 
REMARK    2  A    between atoms: N3_8  and  C4_9 
REMARK    3  A    between atoms: C8_13  and  N4_14 
REMARK    4  A    between atoms: C10_16  and  C11_17 
REMARK    5  A    between atoms: C11_17  and  N6_21 
REMARK    6  A    between atoms: N6_21  and  N7_23 
REMARK       I    between atoms: N7_23  and  C12_25 
REMARK    7  A    between atoms: C12_25  and  C13_27 
REMARK    8  A    between atoms: C13_27  and  N8_28 
REMARK    9  A    between atoms: C16_31  and  O2_32 
ROOT
HETATM    1  N4  UNL     1      18.998  20.376  54.687  1.00  0.00    -0.251 N 
HETATM    2  C9  UNL     1      18.625  21.365  55.514  1.00  0.00     0.153 A 
HETATM    3  C10 UNL     1      19.097  21.068  56.756  1.00  0.00     0.111 A 
HETATM    4  N10 UNL     1      19.757  19.893  56.664  1.00  0.00    -0.281 N 
ATOM      5  H10 UNL     1      20.228  19.400  57.423  1.00  0.00     0.188 HD
HETATM    6  N11 UNL     1      19.679  19.503  55.410  1.00  0.00    -0.235 N 
ATOM      7  H11 UNL     1      20.088  18.644  55.044  1.00  0.00     0.209 HD
ENDROOT
BRANCH   3   8
HETATM    8  C11 UNL     1      18.901  21.890  57.937  1.00  0.00     0.143 C 
HETATM    9  N5  UNL     1      19.690  21.711  58.934  1.00  0.00    -0.383 N 
ATOM     10  H52 UNL     1      20.431  21.011  58.901  1.00  0.00     0.157 HD
ATOM     11  H51 UNL     1      19.552  22.289  59.764  1.00  0.00     0.157 HD
BRANCH   8  12
HETATM   12  N6  UNL     1      17.886  22.848  57.982  1.00  0.00    -0.281 N 
ATOM     13  H6  UNL     1      18.108  23.829  58.154  1.00  0.00     0.188 HD
BRANCH  12  14
HETATM   14  N7  UNL     1      16.570  22.447  57.791  1.00  0.00    -0.267 N 
HETATM   15  C12 UNL     1      15.810  22.979  56.735  1.00  0.00     0.255 C 
HETATM   16  O1  UNL     1      16.340  23.811  55.974  1.00  0.00    -0.270 OA
ATOM     17  H7  UNL     1      16.154  21.762  58.420  1.00  0.00     0.190 HD
BRANCH  15  18
HETATM   18  C13 UNL     1      14.407  22.539  56.555  1.00  0.00     0.252 C 
BRANCH  18  19
HETATM   19  N8  UNL     1      13.551  23.591  57.058  1.00  0.00    -0.292 N 
HETATM   20  C14 UNL     1      13.344  24.743  56.388  1.00  0.00     0.115 A 
HETATM   21  C15 UNL     1      12.489  25.502  57.149  1.00  0.00     0.076 A 
HETATM   22  C16 UNL     1      12.208  24.763  58.275  1.00  0.00     0.156 A 
HETATM   23  N9  UNL     1      12.878  23.591  58.186  1.00  0.00    -0.278 N 
ATOM     24  H9  UNL     1      12.864  22.839  58.875  1.00  0.00     0.189 HD
BRANCH  22  25
HETATM   25  O2  UNL     1      11.372  25.179  59.310  1.00  0.00    -0.345 OA
ATOM     26  H2  UNL     1      11.663  25.640  60.088  1.00  0.00     0.219 HD
ENDBRANCH  22  25
ENDBRANCH  18  19
ENDBRANCH  15  18
ENDBRANCH  12  14
ENDBRANCH   8  12
ENDBRANCH   3   8
BRANCH   1  27
HETATM   27  C8  UNL     1      18.685  20.333  53.306  1.00  0.00     0.059 A 
HETATM   28  C7  UNL     1      18.657  21.506  52.590  1.00  0.00     0.032 A 
HETATM   29  C6  UNL     1      18.351  21.527  51.229  1.00  0.00     0.005 A 
HETATM   30  C5  UNL     1      18.072  20.335  50.593  1.00  0.00     0.032 A 
HETATM   31  C4  UNL     1      18.092  19.142  51.284  1.00  0.00     0.059 A 
HETATM   32  C17 UNL     1      18.399  19.180  52.624  1.00  0.00     0.063 A 
BRANCH  31  33
HETATM   33  N3  UNL     1      17.812  17.905  50.644  1.00  0.00    -0.251 N 
HETATM   34  C3  UNL     1      18.298  17.479  49.482  1.00  0.00     0.152 A 
HETATM   35  C2  UNL     1      17.755  16.218  49.262  1.00  0.00     0.107 A 
HETATM   36  N13 UNL     1      16.960  15.933  50.303  1.00  0.00    -0.281 N 
HETATM   37  N12 UNL     1      17.020  16.957  51.104  1.00  0.00    -0.235 N 
ATOM     38  H13 UNL     1      16.417  15.081  50.440  1.00  0.00     0.188 HD
ATOM     39  H12 UNL     1      16.511  17.020  51.986  1.00  0.00     0.209 HD
BRANCH  35  40
HETATM   40  C1  UNL     1      18.000  15.350  48.118  1.00  0.00     0.139 C 
HETATM   41  N1  UNL     1      17.430  15.627  47.010  1.00  0.00    -0.386 N 
ATOM     42  H12 UNL     1      17.600  15.020  46.208  1.00  0.00     0.157 HD
ATOM     43  H11 UNL     1      16.810  16.430  46.899  1.00  0.00     0.157 HD
HETATM   44  N2  UNL     1      18.861  14.232  48.272  1.00  0.00    -0.081 NA
ENDBRANCH  35  40
ENDBRANCH  31  33
ENDBRANCH   1  27
TORSDOF 9
ENDMDL
MODEL 4
REMARK VINA RESULT: -7.963236754      3.097      5.059
REMARK  9 active torsions:
REMARK  status: ('A' for Active; 'I' for Inactive)
REMARK    1  A    between atoms: C1_4  and  C2_6 
REMARK    2  A    between atoms: N3_8  and  C4_9 
REMARK    3  A    between atoms: C8_13  and  N4_14 
REMARK    4  A    between atoms: C10_16  and  C11_17 
REMARK    5  A    between atoms: C11_17  and  N6_21 
REMARK    6  A    between atoms: N6_21  and  N7_23 
REMARK       I    between atoms: N7_23  and  C12_25 
REMARK    7  A    between atoms: C12_25  and  C13_27 
REMARK    8  A    between atoms: C13_27  and  N8_28 
REMARK    9  A    between atoms: C16_31  and  O2_32 
ROOT
HETATM    1  N4  UNL     1      18.790  21.783  52.445  1.00  0.00    -0.251 N 
HETATM    2  C9  UNL     1      18.865  21.107  53.601  1.00  0.00     0.153 A 
HETATM    3  C10 UNL     1      19.137  22.004  54.589  1.00  0.00     0.111 A 
HETATM    4  N10 UNL     1      19.222  23.223  54.012  1.00  0.00    -0.281 N 
ATOM      5  H10 UNL     1      19.415  24.106  54.485  1.00  0.00     0.188 HD
HETATM    6  N11 UNL     1      19.010  23.056  52.725  1.00  0.00    -0.235 N 
ATOM      7  H11 UNL     1      19.015  23.807  52.035  1.00  0.00     0.209 HD
ENDROOT
BRANCH   3   8
HETATM    8  C11 UNL     1      19.301  21.669  55.993  1.00  0.00     0.143 C 
HETATM    9  N5  UNL     1      20.476  21.357  56.405  1.00  0.00    -0.383 N 
ATOM     10  H52 UNL     1      21.271  21.341  55.767  1.00  0.00     0.157 HD
ATOM     11  H51 UNL     1      20.591  21.121  57.391  1.00  0.00     0.157 HD
BRANCH   8  12
HETATM   12  N6  UNL     1      18.211  21.690  56.867  1.00  0.00    -0.281 N 
ATOM     13  H6  UNL     1      18.354  21.823  57.868  1.00  0.00     0.188 HD
BRANCH  12  14
HETATM   14  N7  UNL     1      16.931  21.527  56.353  1.00  0.00    -0.267 N 
HETATM   15  C12 UNL     1      16.189  22.640  55.922  1.00  0.00     0.255 C 
HETATM   16  O1  UNL     1      16.703  23.773  56.006  1.00  0.00    -0.270 OA
ATOM     17  H7  UNL     1      16.528  20.593  56.288  1.00  0.00     0.190 HD
BRANCH  15  18
HETATM   18  C13 UNL     1      14.824  22.441  55.383  1.00  0.00     0.252 C 
BRANCH  18  19
HETATM   19  N8  UNL     1      13.908  23.173  56.230  1.00  0.00    -0.292 N 
HETATM   20  C14 UNL     1      12.974  24.012  55.736  1.00  0.00     0.115 A 
HETATM   21  C15 UNL     1      12.292  24.529  56.810  1.00  0.00     0.076 A 
HETATM   22  C16 UNL     1      12.853  23.971  57.935  1.00  0.00     0.156 A 
HETATM   23  N9  UNL     1      13.846  23.140  57.541  1.00  0.00    -0.278 N 
ATOM     24  H9  UNL     1      14.441  22.585  58.155  1.00  0.00     0.189 HD
BRANCH  22  25
HETATM   25  O2  UNL     1      12.445  24.236  59.242  1.00  0.00    -0.345 OA
ATOM     26  H2  UNL     1      13.026  24.496  59.948  1.00  0.00     0.219 HD
ENDBRANCH  22  25
ENDBRANCH  18  19
ENDBRANCH  15  18
ENDBRANCH  12  14
ENDBRANCH   8  12
ENDBRANCH   3   8
BRANCH   1  27
HETATM   27  C8  UNL     1      18.524  21.183  51.189  1.00  0.00     0.059 A 
HETATM   28  C7  UNL     1      18.694  21.925  50.045  1.00  0.00     0.032 A 
HETATM   29  C6  UNL     1      18.444  21.390  48.781  1.00  0.00     0.005 A 
HETATM   30  C5  UNL     1      18.017  20.082  48.686  1.00  0.00     0.032 A 
HETATM   31  C4  UNL     1      17.837  19.313  49.815  1.00  0.00     0.059 A 
HETATM   32  C17 UNL     1      18.097  19.890  51.036  1.00  0.00     0.063 A 
BRANCH  31  33
HETATM   33  N3  UNL     1      17.403  17.962  49.735  1.00  0.00    -0.251 N 
HETATM   34  C3  UNL     1      18.071  16.937  49.216  1.00  0.00     0.152 A 
HETATM   35  C2  UNL     1      17.261  15.817  49.365  1.00  0.00     0.107 A 
HETATM   36  N13 UNL     1      16.132  16.212  49.971  1.00  0.00    -0.281 N 
HETATM   37  N12 UNL     1      16.252  17.492  50.176  1.00  0.00    -0.235 N 
ATOM     38  H13 UNL     1      15.337  15.625  50.221  1.00  0.00     0.188 HD
ATOM     39  H12 UNL     1      15.538  18.065  50.626  1.00  0.00     0.209 HD
BRANCH  35  40
HETATM   40  C1  UNL     1      17.570  14.455  48.950  1.00  0.00     0.139 C 
HETATM   41  N1  UNL     1      16.678  13.555  49.100  1.00  0.00    -0.386 N 
ATOM     42  H12 UNL     1      16.894  12.601  48.810  1.00  0.00     0.157 HD
ATOM     43  H11 UNL     1      15.761  13.755  49.500  1.00  0.00     0.157 HD
HETATM   44  N2  UNL     1      18.847  14.177  48.394  1.00  0.00    -0.081 NA
ENDBRANCH  35  40
ENDBRANCH  31  33
ENDBRANCH   1  27
TORSDOF 9
ENDMDL
MODEL 5
REMARK VINA RESULT: -7.916277788      2.160      4.059
REMARK  9 active torsions:
REMARK  status: ('A' for Active; 'I' for Inactive)
REMARK    1  A    between atoms: C1_4  and  C2_6 
REMARK    2  A    between atoms: N3_8  and  C4_9 
REMARK    3  A    between atoms: C8_13  and  N4_14 
REMARK    4  A    between atoms: C10_16  and  C11_17 
REMARK    5  A    between atoms: C11_17  and  N6_21 
REMARK    6  A    between atoms: N6_21  and  N7_23 
REMARK       I    between atoms: N7_23  and  C12_25 
REMARK    7  A    between atoms: C12_25  and  C13_27 
REMARK    8  A    between atoms: C13_27  and  N8_28 
REMARK    9  A    between atoms: C16_31  and  O2_32 
ROOT
HETATM    1  N4  UNL     1      18.218  22.390  53.791  1.00  0.00    -0.251 N 
HETATM    2  C9  UNL     1      17.475  21.911  54.801  1.00  0.00     0.153 A 
HETATM    3  C10 UNL     1      17.641  22.741  55.868  1.00  0.00     0.111 A 
HETATM    4  N10 UNL     1      18.490  23.721  55.486  1.00  0.00    -0.281 N 
ATOM      5  H10 UNL     1      18.814  24.500  56.059  1.00  0.00     0.188 HD
HETATM    6  N11 UNL     1      18.818  23.481  54.235  1.00  0.00    -0.235 N 
ATOM      7  H11 UNL     1      19.451  24.059  53.682  1.00  0.00     0.209 HD
ENDROOT
BRANCH   3   8
HETATM    8  C11 UNL     1      17.007  22.566  57.163  1.00  0.00     0.143 C 
HETATM    9  N5  UNL     1      15.727  22.473  57.199  1.00  0.00    -0.383 N 
ATOM     10  H52 UNL     1      15.170  22.524  56.346  1.00  0.00     0.157 HD
ATOM     11  H51 UNL     1      15.281  22.350  58.108  1.00  0.00     0.157 HD
BRANCH   8  12
HETATM   12  N6  UNL     1      17.769  22.497  58.331  1.00  0.00    -0.281 N 
ATOM     13  H6  UNL     1      17.708  23.235  59.033  1.00  0.00     0.188 HD
BRANCH  12  14
HETATM   14  N7  UNL     1      18.611  21.410  58.523  1.00  0.00    -0.267 N 
HETATM   15  C12 UNL     1      19.926  21.430  58.026  1.00  0.00     0.255 C 
HETATM   16  O1  UNL     1      20.320  22.443  57.415  1.00  0.00    -0.270 OA
ATOM     17  H7  UNL     1      18.274  20.592  59.029  1.00  0.00     0.190 HD
BRANCH  15  18
HETATM   18  C13 UNL     1      20.804  20.256  58.239  1.00  0.00     0.252 C 
BRANCH  18  19
HETATM   19  N8  UNL     1      20.499  19.290  57.207  1.00  0.00    -0.292 N 
HETATM   20  C14 UNL     1      20.599  17.959  57.405  1.00  0.00     0.115 A 
HETATM   21  C15 UNL     1      20.239  17.351  56.228  1.00  0.00     0.076 A 
HETATM   22  C16 UNL     1      19.929  18.359  55.346  1.00  0.00     0.156 A 
HETATM   23  N9  UNL     1      20.100  19.541  55.982  1.00  0.00    -0.278 N 
ATOM     24  H9  UNL     1      19.945  20.465  55.580  1.00  0.00     0.189 HD
BRANCH  22  25
HETATM   25  O2  UNL     1      19.513  18.162  54.029  1.00  0.00    -0.345 OA
ATOM     26  H2  UNL     1      20.045  18.338  53.262  1.00  0.00     0.219 HD
ENDBRANCH  22  25
ENDBRANCH  18  19
ENDBRANCH  15  18
ENDBRANCH  12  14
ENDBRANCH   8  12
ENDBRANCH   3   8
BRANCH   1  27
HETATM   27  C8  UNL     1      18.303  21.788  52.512  1.00  0.00     0.059 A 
HETATM   28  C7  UNL     1      18.689  22.553  51.437  1.00  0.00     0.032 A 
HETATM   29  C6  UNL     1      18.787  22.016  50.153  1.00  0.00     0.005 A 
HETATM   30  C5  UNL     1      18.488  20.684  49.966  1.00  0.00     0.032 A 
HETATM   31  C4  UNL     1      18.097  19.890  51.023  1.00  0.00     0.059 A 
HETATM   32  C17 UNL     1      18.017  20.471  52.268  1.00  0.00     0.063 A 
BRANCH  31  33
HETATM   33  N3  UNL     1      17.790  18.514  50.849  1.00  0.00    -0.251 N 
HETATM   34  C3  UNL     1      17.790  17.833  49.708  1.00  0.00     0.152 A 
HETATM   35  C2  UNL     1      17.437  16.526  50.023  1.00  0.00     0.107 A 
HETATM   36  N13 UNL     1      17.237  16.470  51.347  1.00  0.00    -0.281 N 
HETATM   37  N12 UNL     1      17.456  17.668  51.805  1.00  0.00    -0.235 N 
ATOM     38  H13 UNL     1      16.966  15.649  51.889  1.00  0.00     0.188 HD
ATOM     39  H12 UNL     1      17.379  17.925  52.789  1.00  0.00     0.209 HD
BRANCH  35  40
HETATM   40  C1  UNL     1      17.309  15.409  49.097  1.00  0.00     0.139 C 
HETATM   41  N1  UNL     1      16.148  14.926  48.881  1.00  0.00    -0.386 N 
ATOM     42  H12 UNL     1      16.058  14.144  48.232  1.00  0.00     0.157 HD
ATOM     43  H11 UNL     1      15.310  15.293  49.333  1.00  0.00     0.157 HD
HETATM   44  N2  UNL     1      18.475  14.899  48.467  1.00  0.00    -0.081 NA
ENDBRANCH  35  40
ENDBRANCH  31  33
ENDBRANCH   1  27
TORSDOF 9
ENDMDL
