MODEL 1
REMARK VINA RESULT: -7.094097712      0.000      0.000
REMARK  12 active torsions:
REMARK  status: ('A' for Active; 'I' for Inactive)
REMARK    1  A    between atoms: C2_9  and  S1_10 
REMARK    2  A    between atoms: S1_10  and  C3_11 
REMARK    3  A    between atoms: C3_11  and  N5_12 
REMARK    4  A    between atoms: C4_15  and  C5_16 
REMARK    5  A    between atoms: C6_17  and  C7_18 
REMARK    6  A    between atoms: C7_18  and  O1_19 
REMARK    7  A    between atoms: C7_18  and  C8_21 
REMARK    8  A    between atoms: C8_21  and  C11_24 
REMARK    9  A    between atoms: C11_24  and  O2_26 
REMARK   10  A    between atoms: C11_24  and  C13_28 
REMARK   11  A    between atoms: C13_28  and  N7_29 
REMARK   12  A    between atoms: C13_28  and  O3_33 
ROOT
HETATM    1  N5  UNL     1      18.389  20.768  52.523  1.00  0.00    -0.265 N 
HETATM    2  N6  UNL     1      17.877  19.547  52.325  1.00  0.00    -0.286 N 
ATOM      3  H6  UNL     1      17.488  18.951  53.056  1.00  0.00     0.188 HD
HETATM    4  C4  UNL     1      17.951  19.222  51.037  1.00  0.00     0.126 A 
HETATM    5  C14 UNL     1      18.538  20.294  50.398  1.00  0.00     0.126 A 
HETATM    6  C15 UNL     1      18.829  20.417  49.007  1.00  0.00     0.106 C 
HETATM    7  N8  UNL     1      19.060  20.498  47.858  1.00  0.00    -0.191 NA
HETATM    8  C16 UNL     1      18.811  21.265  51.348  1.00  0.00     0.140 A 
HETATM    9  N9  UNL     1      19.359  22.407  51.077  1.00  0.00    -0.383 N 
ATOM     10  H91 UNL     1      19.678  22.785  50.185  1.00  0.00     0.157 HD
ATOM     11  H92 UNL     1      19.559  23.122  51.776  1.00  0.00     0.157 HD
ENDROOT
BRANCH   4  12
HETATM   12  C5  UNL     1      17.506  17.994  50.434  1.00  0.00    -0.043 C 
HETATM   13  C6  UNL     1      17.146  16.941  49.915  1.00  0.00    -0.067 C 
BRANCH  13  14
HETATM   14  C7  UNL     1      16.731  15.675  49.331  1.00  0.00     0.208 C 
BRANCH  14  15
HETATM   15  O1  UNL     1      15.340  15.529  49.457  1.00  0.00    -0.382 OA
ATOM     16  H1  UNL     1      15.136  14.655  49.768  1.00  0.00     0.211 HD
ENDBRANCH  14  15
BRANCH  14  17
HETATM   17  C8  UNL     1      17.194  15.502  47.930  1.00  0.00     0.024 C 
HETATM   18  C9  UNL     1      17.968  16.734  47.491  1.00  0.00     0.022 C 
HETATM   19  C10 UNL     1      15.964  15.451  47.009  1.00  0.00     0.022 C 
BRANCH  17  20
HETATM   20  C11 UNL     1      17.941  14.241  47.697  1.00  0.00     0.115 C 
HETATM   21  C12 UNL     1      16.972  13.070  47.538  1.00  0.00     0.051 C 
BRANCH  20  22
HETATM   22  O2  UNL     1      18.671  13.924  48.860  1.00  0.00    -0.385 OA
ATOM     23  H2  UNL     1      19.456  13.452  48.610  1.00  0.00     0.210 HD
ENDBRANCH  20  22
BRANCH  20  24
HETATM   24  C13 UNL     1      18.885  14.234  46.548  1.00  0.00     0.351 C 
BRANCH  24  25
HETATM   25  N7  UNL     1      18.452  13.372  45.472  1.00  0.00    -0.050 N 
ATOM     26  H73 UNL     1      17.491  13.062  45.617  1.00  0.00     0.277 HD
ATOM     27  H72 UNL     1      18.327  13.900  44.608  1.00  0.00     0.277 HD
ATOM     28  H71 UNL     1      19.073  12.576  45.327  1.00  0.00     0.277 HD
ENDBRANCH  24  25
BRANCH  24  29
HETATM   29  O3  UNL     1      20.142  13.746  46.972  1.00  0.00    -0.368 OA
ATOM     30  H3  UNL     1      20.779  13.865  46.278  1.00  0.00     0.212 HD
ENDBRANCH  24  29
ENDBRANCH  20  24
ENDBRANCH  17  20
ENDBRANCH  14  17
ENDBRANCH  13  14
ENDBRANCH   4  12
BRANCH   1  31
HETATM   31  C3  UNL     1      18.496  21.458  53.779  1.00  0.00     0.233 C 
BRANCH  31  32
HETATM   32  S1  UNL     1      18.768  20.294  55.129  1.00  0.00    -0.069 SA
BRANCH  32  33
HETATM   33  C2  UNL     1      20.115  20.764  56.171  1.00  0.00     0.179 A 
HETATM   34  N1  UNL     1      21.138  20.016  56.587  1.00  0.00    -0.259 N 
HETATM   35  C1  UNL     1      21.275  18.605  56.214  1.00  0.00     0.181 C 
HETATM   36  N2  UNL     1      21.954  20.726  57.348  1.00  0.00    -0.224 N 
HETATM   37  N3  UNL     1      21.444  21.934  57.415  1.00  0.00    -0.226 N 
ATOM     38  H2  UNL     1      22.811  20.399  57.794  1.00  0.00     0.210 HD
HETATM   39  N4  UNL     1      20.331  21.993  56.714  1.00  0.00    -0.263 N 
ATOM     40  H3  UNL     1      21.851  22.712  57.933  1.00  0.00     0.210 HD
ATOM     41  H4  UNL     1      19.736  22.813  56.599  1.00  0.00     0.190 HD
ENDBRANCH  32  33
ENDBRANCH  31  32
ENDBRANCH   1  31
TORSDOF 12
ENDMDL
MODEL 2
REMARK VINA RESULT: -7.055674260      0.984      1.154
REMARK  12 active torsions:
REMARK  status: ('A' for Active; 'I' for Inactive)
REMARK    1  A    between atoms: C2_9  and  S1_10 
REMARK    2  A    between atoms: S1_10  and  C3_11 
REMARK    3  A    between atoms: C3_11  and  N5_12 
REMARK    4  A    between atoms: C4_15  and  C5_16 
REMARK    5  A    between atoms: C6_17  and  C7_18 
REMARK    6  A    between atoms: C7_18  and  O1_19 
REMARK    7  A    between atoms: C7_18  and  C8_21 
REMARK    8  A    between atoms: C8_21  and  C11_24 
REMARK    9  A    between atoms: C11_24  and  O2_26 
REMARK   10  A    between atoms: C11_24  and  C13_28 
REMARK   11  A    between atoms: C13_28  and  N7_29 
REMARK   12  A    between atoms: C13_28  and  O3_33 
ROOT
HETATM    1  N5  UNL     1      18.550  20.911  52.874  1.00  0.00    -0.265 N 
HETATM    2  N6  UNL     1      18.091  19.674  52.641  1.00  0.00    -0.286 N 
ATOM      3  H6  UNL     1      17.784  19.020  53.361  1.00  0.00     0.188 HD
HETATM    4  C4  UNL     1      18.095  19.422  51.335  1.00  0.00     0.126 A 
HETATM    5  C14 UNL     1      18.580  20.558  50.721  1.00  0.00     0.126 A 
HETATM    6  C15 UNL     1      18.768  20.769  49.322  1.00  0.00     0.106 C 
HETATM    7  N8  UNL     1      18.916  20.924  48.167  1.00  0.00    -0.191 NA
HETATM    8  C16 UNL     1      18.863  21.492  51.704  1.00  0.00     0.140 A 
HETATM    9  N9  UNL     1      19.330  22.676  51.461  1.00  0.00    -0.383 N 
ATOM     10  H91 UNL     1      19.568  23.117  50.574  1.00  0.00     0.157 HD
ATOM     11  H92 UNL     1      19.538  23.363  52.185  1.00  0.00     0.157 HD
ENDROOT
BRANCH   4  12
HETATM   12  C5  UNL     1      17.676  18.204  50.694  1.00  0.00    -0.043 C 
HETATM   13  C6  UNL     1      17.312  17.157  50.165  1.00  0.00    -0.067 C 
BRANCH  13  14
HETATM   14  C7  UNL     1      16.845  15.930  49.541  1.00  0.00     0.208 C 
BRANCH  14  15
HETATM   15  O1  UNL     1      15.450  15.836  49.663  1.00  0.00    -0.382 OA
ATOM     16  H1  UNL     1      15.169  14.950  49.467  1.00  0.00     0.211 HD
ENDBRANCH  14  15
BRANCH  14  17
HETATM   17  C8  UNL     1      17.301  15.784  48.134  1.00  0.00     0.024 C 
HETATM   18  C9  UNL     1      18.189  16.959  47.759  1.00  0.00     0.022 C 
HETATM   19  C10 UNL     1      16.079  15.892  47.208  1.00  0.00     0.022 C 
BRANCH  17  20
HETATM   20  C11 UNL     1      17.931  14.473  47.840  1.00  0.00     0.115 C 
HETATM   21  C12 UNL     1      16.861  13.395  47.666  1.00  0.00     0.051 C 
BRANCH  20  22
HETATM   22  O2  UNL     1      18.657  14.053  48.974  1.00  0.00    -0.385 OA
ATOM     23  H2  UNL     1      18.869  14.814  49.501  1.00  0.00     0.210 HD
ENDBRANCH  20  22
BRANCH  20  24
HETATM   24  C13 UNL     1      18.846  14.425  46.668  1.00  0.00     0.351 C 
BRANCH  24  25
HETATM   25  N7  UNL     1      18.288  13.697  45.551  1.00  0.00    -0.050 N 
ATOM     26  H73 UNL     1      17.289  13.881  45.458  1.00  0.00     0.277 HD
ATOM     27  H72 UNL     1      18.612  14.084  44.665  1.00  0.00     0.277 HD
ATOM     28  H71 UNL     1      18.471  12.694  45.602  1.00  0.00     0.277 HD
ENDBRANCH  24  25
BRANCH  24  29
HETATM   29  O3  UNL     1      20.039  13.759  47.027  1.00  0.00    -0.368 OA
ATOM     30  H3  UNL     1      20.715  14.399  47.216  1.00  0.00     0.212 HD
ENDBRANCH  24  29
ENDBRANCH  20  24
ENDBRANCH  17  20
ENDBRANCH  14  17
ENDBRANCH  13  14
ENDBRANCH   4  12
BRANCH   1  31
HETATM   31  C3  UNL     1      18.704  21.539  54.157  1.00  0.00     0.233 C 
BRANCH  31  32
HETATM   32  S1  UNL     1      18.913  20.304  55.454  1.00  0.00    -0.069 SA
BRANCH  32  33
HETATM   33  C2  UNL     1      19.131  21.026  57.052  1.00  0.00     0.179 A 
HETATM   34  N1  UNL     1      20.270  21.269  57.701  1.00  0.00    -0.259 N 
HETATM   35  C1  UNL     1      21.578  20.931  57.132  1.00  0.00     0.181 C 
HETATM   36  N2  UNL     1      20.027  21.832  58.872  1.00  0.00    -0.224 N 
HETATM   37  N3  UNL     1      18.723  21.946  58.967  1.00  0.00    -0.226 N 
ATOM     38  H2  UNL     1      20.718  22.120  59.566  1.00  0.00     0.210 HD
HETATM   39  N4  UNL     1      18.148  21.469  57.883  1.00  0.00    -0.263 N 
ATOM     40  H3  UNL     1      18.228  22.347  59.763  1.00  0.00     0.210 HD
ATOM     41  H4  UNL     1      17.146  21.437  57.699  1.00  0.00     0.190 HD
ENDBRANCH  32  33
ENDBRANCH  31  32
ENDBRANCH   1  31
TORSDOF 12
ENDMDL
MODEL 3
REMARK VINA RESULT: -7.029001965      0.815      1.252
REMARK  12 active torsions:
REMARK  status: ('A' for Active; 'I' for Inactive)
REMARK    1  A    between atoms: C2_9  and  S1_10 
REMARK    2  A    between atoms: S1_10  and  C3_11 
REMARK    3  A    between atoms: C3_11  and  N5_12 
REMARK    4  A    between atoms: C4_15  and  C5_16 
REMARK    5  A    between atoms: C6_17  and  C7_18 
REMARK    6  A    between atoms: C7_18  and  O1_19 
REMARK    7  A    between atoms: C7_18  and  C8_21 
REMARK    8  A    between atoms: C8_21  and  C11_24 
REMARK    9  A    between atoms: C11_24  and  O2_26 
REMARK   10  A    between atoms: C11_24  and  C13_28 
REMARK   11  A    between atoms: C13_28  and  N7_29 
REMARK   12  A    between atoms: C13_28  and  O3_33 
ROOT
HETATM    1  N5  UNL     1      18.440  20.792  52.725  1.00  0.00    -0.265 N 
HETATM    2  N6  UNL     1      17.942  19.572  52.486  1.00  0.00    -0.286 N 
ATOM      3  H6  UNL     1      17.585  18.937  53.201  1.00  0.00     0.188 HD
HETATM    4  C4  UNL     1      17.979  19.308  51.184  1.00  0.00     0.126 A 
HETATM    5  C14 UNL     1      18.528  20.418  50.577  1.00  0.00     0.126 A 
HETATM    6  C15 UNL     1      18.772  20.609  49.184  1.00  0.00     0.106 C 
HETATM    7  N8  UNL     1      18.964  20.747  48.033  1.00  0.00    -0.191 NA
HETATM    8  C16 UNL     1      18.815  21.350  51.562  1.00  0.00     0.140 A 
HETATM    9  N9  UNL     1      19.336  22.512  51.326  1.00  0.00    -0.383 N 
ATOM     10  H91 UNL     1      19.620  22.936  50.444  1.00  0.00     0.157 HD
ATOM     11  H92 UNL     1      19.546  23.198  52.051  1.00  0.00     0.157 HD
ENDROOT
BRANCH   4  12
HETATM   12  C5  UNL     1      17.535  18.101  50.538  1.00  0.00    -0.043 C 
HETATM   13  C6  UNL     1      17.170  17.060  49.998  1.00  0.00    -0.067 C 
BRANCH  13  14
HETATM   14  C7  UNL     1      16.722  15.818  49.390  1.00  0.00     0.208 C 
BRANCH  14  15
HETATM   15  O1  UNL     1      15.323  15.725  49.479  1.00  0.00    -0.382 OA
ATOM     16  H1  UNL     1      14.993  15.175  48.777  1.00  0.00     0.211 HD
ENDBRANCH  14  15
BRANCH  14  17
HETATM   17  C8  UNL     1      17.213  15.641  47.999  1.00  0.00     0.024 C 
HETATM   18  C9  UNL     1      18.048  16.845  47.594  1.00  0.00     0.022 C 
HETATM   19  C10 UNL     1      16.006  15.651  47.046  1.00  0.00     0.022 C 
BRANCH  17  20
HETATM   20  C11 UNL     1      17.914  14.354  47.770  1.00  0.00     0.115 C 
HETATM   21  C12 UNL     1      16.904  13.215  47.628  1.00  0.00     0.051 C 
BRANCH  20  22
HETATM   22  O2  UNL     1      18.644  14.020  48.929  1.00  0.00    -0.385 OA
ATOM     23  H2  UNL     1      18.148  13.383  49.430  1.00  0.00     0.210 HD
ENDBRANCH  20  22
BRANCH  20  24
HETATM   24  C13 UNL     1      18.848  14.304  46.612  1.00  0.00     0.351 C 
BRANCH  24  25
HETATM   25  N7  UNL     1      18.382  13.439  45.553  1.00  0.00    -0.050 N 
ATOM     26  H73 UNL     1      19.034  12.672  45.394  1.00  0.00     0.277 HD
ATOM     27  H72 UNL     1      17.566  12.903  45.851  1.00  0.00     0.277 HD
ATOM     28  H71 UNL     1      18.192  13.942  44.686  1.00  0.00     0.277 HD
ENDBRANCH  24  25
BRANCH  24  29
HETATM   29  O3  UNL     1      20.095  13.790  47.033  1.00  0.00    -0.368 OA
ATOM     30  H3  UNL     1      20.769  14.445  46.900  1.00  0.00     0.212 HD
ENDBRANCH  24  29
ENDBRANCH  20  24
ENDBRANCH  17  20
ENDBRANCH  14  17
ENDBRANCH  13  14
ENDBRANCH   4  12
BRANCH   1  31
HETATM   31  C3  UNL     1      18.576  21.426  54.007  1.00  0.00     0.233 C 
BRANCH  31  32
HETATM   32  S1  UNL     1      18.515  20.206  55.335  1.00  0.00    -0.069 SA
BRANCH  32  33
HETATM   33  C2  UNL     1      19.500  20.666  56.727  1.00  0.00     0.179 A 
HETATM   34  N1  UNL     1      19.147  21.399  57.783  1.00  0.00    -0.259 N 
HETATM   35  C1  UNL     1      17.802  21.967  57.924  1.00  0.00     0.181 C 
HETATM   36  N2  UNL     1      20.158  21.518  58.627  1.00  0.00    -0.224 N 
HETATM   37  N3  UNL     1      21.161  20.854  58.101  1.00  0.00    -0.226 N 
ATOM     38  H2  UNL     1      20.159  22.025  59.512  1.00  0.00     0.210 HD
HETATM   39  N4  UNL     1      20.798  20.325  56.951  1.00  0.00    -0.263 N 
ATOM     40  H3  UNL     1      22.085  20.761  58.522  1.00  0.00     0.210 HD
ATOM     41  H4  UNL     1      21.386  19.761  56.337  1.00  0.00     0.190 HD
ENDBRANCH  32  33
ENDBRANCH  31  32
ENDBRANCH   1  31
TORSDOF 12
ENDMDL
MODEL 4
REMARK VINA RESULT: -6.888219000      5.040      9.352
REMARK  12 active torsions:
REMARK  status: ('A' for Active; 'I' for Inactive)
REMARK    1  A    between atoms: C2_9  and  S1_10 
REMARK    2  A    between atoms: S1_10  and  C3_11 
REMARK    3  A    between atoms: C3_11  and  N5_12 
REMARK    4  A    between atoms: C4_15  and  C5_16 
REMARK    5  A    between atoms: C6_17  and  C7_18 
REMARK    6  A    between atoms: C7_18  and  O1_19 
REMARK    7  A    between atoms: C7_18  and  C8_21 
REMARK    8  A    between atoms: C8_21  and  C11_24 
REMARK    9  A    between atoms: C11_24  and  O2_26 
REMARK   10  A    between atoms: C11_24  and  C13_28 
REMARK   11  A    between atoms: C13_28  and  N7_29 
REMARK   12  A    between atoms: C13_28  and  O3_33 
ROOT
HETATM    1  N5  UNL     1      15.956  17.279  49.520  1.00  0.00    -0.265 N 
HETATM    2  N6  UNL     1      15.928  17.811  50.749  1.00  0.00    -0.286 N 
ATOM      3  H6  UNL     1      15.113  17.823  51.361  1.00  0.00     0.188 HD
HETATM    4  C4  UNL     1      17.117  18.322  51.054  1.00  0.00     0.126 A 
HETATM    5  C14 UNL     1      17.930  18.098  49.962  1.00  0.00     0.126 A 
HETATM    6  C15 UNL     1      19.300  18.466  49.815  1.00  0.00     0.106 C 
HETATM    7  N8  UNL     1      20.429  18.778  49.714  1.00  0.00    -0.191 NA
HETATM    8  C16 UNL     1      17.184  17.437  48.999  1.00  0.00     0.140 A 
HETATM    9  N9  UNL     1      17.653  17.071  47.849  1.00  0.00    -0.383 N 
ATOM     10  H91 UNL     1      18.586  17.191  47.453  1.00  0.00     0.157 HD
ATOM     11  H92 UNL     1      17.105  16.584  47.140  1.00  0.00     0.157 HD
ENDROOT
BRANCH   4  12
HETATM   12  C5  UNL     1      17.481  18.978  52.282  1.00  0.00    -0.043 C 
HETATM   13  C6  UNL     1      17.795  19.520  53.338  1.00  0.00    -0.067 C 
BRANCH  13  14
HETATM   14  C7  UNL     1      18.203  20.156  54.580  1.00  0.00     0.208 C 
BRANCH  14  15
HETATM   15  O1  UNL     1      19.591  20.020  54.749  1.00  0.00    -0.382 OA
ATOM     16  H1  UNL     1      19.777  19.234  55.249  1.00  0.00     0.211 HD
ENDBRANCH  14  15
BRANCH  14  17
HETATM   17  C8  UNL     1      17.757  21.569  54.683  1.00  0.00     0.024 C 
HETATM   18  C9  UNL     1      16.251  21.646  54.489  1.00  0.00     0.022 C 
HETATM   19  C10 UNL     1      18.354  22.361  53.508  1.00  0.00     0.022 C 
BRANCH  17  20
HETATM   20  C11 UNL     1      18.211  22.254  55.919  1.00  0.00     0.115 C 
HETATM   21  C12 UNL     1      17.581  23.642  56.021  1.00  0.00     0.051 C 
BRANCH  20  22
HETATM   22  O2  UNL     1      19.593  22.513  55.813  1.00  0.00    -0.385 OA
ATOM     23  H2  UNL     1      19.767  22.907  54.966  1.00  0.00     0.210 HD
ENDBRANCH  20  22
BRANCH  20  24
HETATM   24  C13 UNL     1      17.978  21.533  57.200  1.00  0.00     0.351 C 
BRANCH  24  25
HETATM   25  N7  UNL     1      17.340  22.358  58.199  1.00  0.00    -0.050 N 
ATOM     26  H73 UNL     1      17.895  23.191  58.394  1.00  0.00     0.277 HD
ATOM     27  H72 UNL     1      16.502  22.802  57.825  1.00  0.00     0.277 HD
ATOM     28  H71 UNL     1      17.132  21.850  59.059  1.00  0.00     0.277 HD
ENDBRANCH  24  25
BRANCH  24  29
HETATM   29  O3  UNL     1      19.217  21.126  57.745  1.00  0.00    -0.368 OA
ATOM     30  H3  UNL     1      19.408  20.237  57.471  1.00  0.00     0.212 HD
ENDBRANCH  24  29
ENDBRANCH  20  24
ENDBRANCH  17  20
ENDBRANCH  14  17
ENDBRANCH  13  14
ENDBRANCH   4  12
BRANCH   1  31
HETATM   31  C3  UNL     1      14.863  16.644  48.837  1.00  0.00     0.233 C 
BRANCH  31  32
HETATM   32  S1  UNL     1      13.614  17.855  48.361  1.00  0.00    -0.069 SA
BRANCH  32  33
HETATM   33  C2  UNL     1      12.321  18.004  49.556  1.00  0.00     0.179 A 
HETATM   34  N1  UNL     1      11.753  19.115  50.025  1.00  0.00    -0.259 N 
HETATM   35  C1  UNL     1      12.170  20.450  49.584  1.00  0.00     0.181 C 
HETATM   36  N2  UNL     1      10.808  18.820  50.901  1.00  0.00    -0.224 N 
HETATM   37  N3  UNL     1      10.777  17.511  50.989  1.00  0.00    -0.226 N 
ATOM     38  H2  UNL     1      10.219  19.480  51.409  1.00  0.00     0.210 HD
HETATM   39  N4  UNL     1      11.680  16.984  50.188  1.00  0.00    -0.263 N 
ATOM     40  H3  UNL     1      10.146  16.980  51.589  1.00  0.00     0.210 HD
ATOM     41  H4  UNL     1      11.865  15.988  50.064  1.00  0.00     0.190 HD
ENDBRANCH  32  33
ENDBRANCH  31  32
ENDBRANCH   1  31
TORSDOF 12
ENDMDL
MODEL 5
REMARK VINA RESULT: -6.874068097      4.320      9.823
REMARK  12 active torsions:
REMARK  status: ('A' for Active; 'I' for Inactive)
REMARK    1  A    between atoms: C2_9  and  S1_10 
REMARK    2  A    between atoms: S1_10  and  C3_11 
REMARK    3  A    between atoms: C3_11  and  N5_12 
REMARK    4  A    between atoms: C4_15  and  C5_16 
REMARK    5  A    between atoms: C6_17  and  C7_18 
REMARK    6  A    between atoms: C7_18  and  O1_19 
REMARK    7  A    between atoms: C7_18  and  C8_21 
REMARK    8  A    between atoms: C8_21  and  C11_24 
REMARK    9  A    between atoms: C11_24  and  O2_26 
REMARK   10  A    between atoms: C11_24  and  C13_28 
REMARK   11  A    between atoms: C13_28  and  N7_29 
REMARK   12  A    between atoms: C13_28  and  O3_33 
ROOT
HETATM    1  N5  UNL     1      17.513  16.945  49.094  1.00  0.00    -0.265 N 
HETATM    2  N6  UNL     1      18.194  17.398  50.154  1.00  0.00    -0.286 N 
ATOM      3  H6  UNL     1      19.181  17.214  50.336  1.00  0.00     0.188 HD
HETATM    4  C4  UNL     1      17.399  18.122  50.936  1.00  0.00     0.126 A 
HETATM    5  C14 UNL     1      16.157  18.122  50.335  1.00  0.00     0.126 A 
HETATM    6  C15 UNL     1      14.973  18.768  50.800  1.00  0.00     0.106 C 
HETATM    7  N8  UNL     1      14.008  19.306  51.200  1.00  0.00    -0.191 NA
HETATM    8  C16 UNL     1      16.242  17.375  49.171  1.00  0.00     0.140 A 
HETATM    9  N9  UNL     1      15.248  17.182  48.364  1.00  0.00    -0.383 N 
ATOM     10  H91 UNL     1      14.284  17.508  48.421  1.00  0.00     0.157 HD
ATOM     11  H92 UNL     1      15.311  16.632  47.507  1.00  0.00     0.157 HD
ENDROOT
BRANCH   4  12
HETATM   12  C5  UNL     1      17.764  18.774  52.166  1.00  0.00    -0.043 C 
HETATM   13  C6  UNL     1      18.063  19.347  53.210  1.00  0.00    -0.067 C 
BRANCH  13  14
HETATM   14  C7  UNL     1      18.383  20.014  54.461  1.00  0.00     0.208 C 
BRANCH  14  15
HETATM   15  O1  UNL     1      19.730  19.788  54.788  1.00  0.00    -0.382 OA
ATOM     16  H1  UNL     1      20.050  19.027  54.318  1.00  0.00     0.211 HD
ENDBRANCH  14  15
BRANCH  14  17
HETATM   17  C8  UNL     1      18.038  21.459  54.454  1.00  0.00     0.024 C 
HETATM   18  C9  UNL     1      16.594  21.639  54.013  1.00  0.00     0.022 C 
HETATM   19  C10 UNL     1      18.878  22.160  53.374  1.00  0.00     0.022 C 
BRANCH  17  20
HETATM   20  C11 UNL     1      18.338  22.154  55.730  1.00  0.00     0.115 C 
HETATM   21  C12 UNL     1      17.747  23.564  55.721  1.00  0.00     0.051 C 
BRANCH  20  22
HETATM   22  O2  UNL     1      19.729  22.368  55.815  1.00  0.00    -0.385 OA
ATOM     23  H2  UNL     1      19.951  23.144  55.314  1.00  0.00     0.210 HD
ENDBRANCH  20  22
BRANCH  20  24
HETATM   24  C13 UNL     1      17.904  21.468  56.977  1.00  0.00     0.351 C 
BRANCH  24  25
HETATM   25  N7  UNL     1      17.201  22.345  57.884  1.00  0.00    -0.050 N 
ATOM     26  H73 UNL     1      16.894  21.841  58.715  1.00  0.00     0.277 HD
ATOM     27  H72 UNL     1      17.842  23.009  58.320  1.00  0.00     0.277 HD
ATOM     28  H71 UNL     1      16.420  22.829  57.441  1.00  0.00     0.277 HD
ENDBRANCH  24  25
BRANCH  24  29
HETATM   29  O3  UNL     1      19.039  20.994  57.674  1.00  0.00    -0.368 OA
ATOM     30  H3  UNL     1      18.817  20.862  58.588  1.00  0.00     0.212 HD
ENDBRANCH  24  29
ENDBRANCH  20  24
ENDBRANCH  17  20
ENDBRANCH  14  17
ENDBRANCH  13  14
ENDBRANCH   4  12
BRANCH   1  31
HETATM   31  C3  UNL     1      18.025  16.121  48.035  1.00  0.00     0.233 C 
BRANCH  31  32
HETATM   32  S1  UNL     1      17.942  14.376  48.483  1.00  0.00    -0.069 SA
BRANCH  32  33
HETATM   33  C2  UNL     1      16.615  13.530  47.680  1.00  0.00     0.179 A 
HETATM   34  N1  UNL     1      16.685  12.592  46.735  1.00  0.00    -0.259 N 
HETATM   35  C1  UNL     1      17.965  12.120  46.197  1.00  0.00     0.181 C 
HETATM   36  N2  UNL     1      15.475  12.187  46.390  1.00  0.00    -0.224 N 
HETATM   37  N3  UNL     1      14.630  12.875  47.122  1.00  0.00    -0.226 N 
ATOM     38  H2  UNL     1      15.243  11.480  45.692  1.00  0.00     0.210 HD
HETATM   39  N4  UNL     1      15.286  13.697  47.915  1.00  0.00    -0.263 N 
ATOM     40  H3  UNL     1      13.615  12.785  47.083  1.00  0.00     0.210 HD
ATOM     41  H4  UNL     1      14.870  14.344  48.585  1.00  0.00     0.190 HD
ENDBRANCH  32  33
ENDBRANCH  31  32
ENDBRANCH   1  31
TORSDOF 12
ENDMDL
