MODEL 1
REMARK VINA RESULT: -7.769139547      0.000      0.000
REMARK  9 active torsions:
REMARK  status: ('A' for Active; 'I' for Inactive)
REMARK       I    between atoms: C2_2  and  N1_4 
REMARK    1  A    between atoms: N1_4  and  N2_5 
REMARK    2  A    between atoms: C3_7  and  C4_8 
REMARK    3  A    between atoms: C3_7  and  C15_30 
REMARK    4  A    between atoms: C7_14  and  C8_15 
REMARK    5  A    between atoms: C8_15  and  N5_16 
REMARK    6  A    between atoms: N5_16  and  N6_17 
REMARK       I    between atoms: N6_17  and  C9_18 
REMARK    7  A    between atoms: C9_18  and  C10_20 
REMARK    8  A    between atoms: C14_27  and  O3_28 
REMARK    9  A    between atoms: C16_36  and  N11_37 
ROOT
HETATM    1  C10 UNL     1      21.046  19.763  56.341  1.00  0.00     0.103 A 
HETATM    2  C11 UNL     1      19.889  20.149  56.975  1.00  0.00     0.064 A 
HETATM    3  C12 UNL     1      20.152  21.195  57.817  1.00  0.00     0.117 A 
HETATM    4  C13 UNL     1      19.234  21.924  58.690  1.00  0.00     0.117 C 
HETATM    5  N7  UNL     1      18.505  22.475  59.384  1.00  0.00    -0.190 NA
HETATM    6  N8  UNL     1      21.476  21.450  57.696  1.00  0.00    -0.328 N 
ATOM      7  H8  UNL     1      21.978  22.181  58.201  1.00  0.00     0.168 HD
HETATM    8  C14 UNL     1      22.041  20.594  56.806  1.00  0.00     0.158 A 
ENDROOT
BRANCH   1   9
HETATM    9  C9  UNL     1      21.190  18.656  55.332  1.00  0.00     0.365 C 
HETATM   10  N6  UNL     1      20.149  18.378  54.534  1.00  0.00    -0.204 NA
HETATM   11  O2  UNL     1      22.318  18.093  55.351  1.00  0.00    -0.248 OA
BRANCH  10  12
HETATM   12  N5  UNL     1      19.181  18.121  53.791  1.00  0.00    -0.257 NA
BRANCH  12  13
HETATM   13  C8  UNL     1      18.316  17.926  52.988  1.00  0.00     0.240 C 
BRANCH  13  14
HETATM   14  C7  UNL     1      18.373  18.638  51.686  1.00  0.00     0.043 A 
HETATM   15  C4  UNL     1      17.859  19.825  51.362  1.00  0.00     0.093 A 
HETATM   16  N3  UNL     1      18.140  20.011  50.085  1.00  0.00    -0.296 N 
HETATM   17  N4  UNL     1      18.802  19.035  49.552  1.00  0.00    -0.306 N 
ATOM     18  H3  UNL     1      17.863  20.846  49.569  1.00  0.00     0.187 HD
HETATM   19  C5  UNL     1      19.243  18.967  48.183  1.00  0.00     0.177 C 
HETATM   20  C6  UNL     1      18.977  18.131  50.534  1.00  0.00     0.126 A 
BRANCH  15  21
HETATM   21  C3  UNL     1      17.191  20.795  52.261  1.00  0.00     0.122 C 
HETATM   22  N2  UNL     1      15.939  20.834  52.289  1.00  0.00    -0.228 N 
ATOM     23  H2  UNL     1      15.553  20.144  51.645  1.00  0.00     0.202 HD
BRANCH  22  24
HETATM   24  N1  UNL     1      14.974  21.481  52.882  1.00  0.00    -0.287 NA
HETATM   25  C2  UNL     1      13.973  22.150  53.496  1.00  0.00     0.308 C 
HETATM   26  C1  UNL     1      12.630  22.476  52.888  1.00  0.00     0.137 C 
HETATM   27  O1  UNL     1      14.056  22.602  54.697  1.00  0.00    -0.256 OA
ENDBRANCH  22  24
BRANCH  21  28
HETATM   28  C15 UNL     1      17.927  21.696  53.104  1.00  0.00     0.133 A 
HETATM   29  N9  UNL     1      17.687  21.798  54.444  1.00  0.00    -0.236 N 
HETATM   30  O4  UNL     1      18.499  22.623  54.999  1.00  0.00    -0.155 OA
ATOM     31  H9  UNL     1      16.958  21.284  54.940  1.00  0.00     0.197 HD
HETATM   32  N10 UNL     1      19.308  23.121  54.118  1.00  0.00    -0.224 N 
HETATM   33  C16 UNL     1      18.965  22.545  52.892  1.00  0.00     0.152 A 
ATOM     34  H10 UNL     1      20.050  23.799  54.287  1.00  0.00     0.198 HD
BRANCH  33  35
HETATM   35  N11 UNL     1      19.577  22.866  51.821  1.00  0.00    -0.382 N 
ATOM     36 2H11 UNL     1      19.361  23.734  51.331  1.00  0.00     0.157 HD
ATOM     37 1H11 UNL     1      20.295  22.375  51.288  1.00  0.00     0.157 HD
ENDBRANCH  33  35
ENDBRANCH  21  28
ENDBRANCH  15  21
ENDBRANCH  13  14
ENDBRANCH  12  13
ENDBRANCH  10  12
ENDBRANCH   1   9
BRANCH   8  38
HETATM   38  O3  UNL     1      23.366  20.528  56.407  1.00  0.00    -0.345 OA
ATOM     39  H3  UNL     1      24.017  21.193  56.595  1.00  0.00     0.219 HD
ENDBRANCH   8  38
TORSDOF 9
ENDMDL
MODEL 2
REMARK VINA RESULT: -7.753602972      2.684      7.378
REMARK  9 active torsions:
REMARK  status: ('A' for Active; 'I' for Inactive)
REMARK       I    between atoms: C2_2  and  N1_4 
REMARK    1  A    between atoms: N1_4  and  N2_5 
REMARK    2  A    between atoms: C3_7  and  C4_8 
REMARK    3  A    between atoms: C3_7  and  C15_30 
REMARK    4  A    between atoms: C7_14  and  C8_15 
REMARK    5  A    between atoms: C8_15  and  N5_16 
REMARK    6  A    between atoms: N5_16  and  N6_17 
REMARK       I    between atoms: N6_17  and  C9_18 
REMARK    7  A    between atoms: C9_18  and  C10_20 
REMARK    8  A    between atoms: C14_27  and  O3_28 
REMARK    9  A    between atoms: C16_36  and  N11_37 
ROOT
HETATM    1  C10 UNL     1      17.786  17.881  50.250  1.00  0.00     0.103 A 
HETATM    2  C11 UNL     1      17.799  16.748  49.472  1.00  0.00     0.064 A 
HETATM    3  C12 UNL     1      16.522  16.280  49.318  1.00  0.00     0.117 A 
HETATM    4  C13 UNL     1      16.057  15.109  48.579  1.00  0.00     0.117 C 
HETATM    5  N7  UNL     1      15.709  14.175  48.008  1.00  0.00    -0.190 NA
HETATM    6  N8  UNL     1      15.725  17.132  50.004  1.00  0.00    -0.328 N 
ATOM      7  H8  UNL     1      14.711  17.050  50.079  1.00  0.00     0.168 HD
HETATM    8  C14 UNL     1      16.469  18.112  50.579  1.00  0.00     0.158 A 
ENDROOT
BRANCH   1   9
HETATM    9  C9  UNL     1      18.977  18.707  50.653  1.00  0.00     0.365 C 
HETATM   10  N6  UNL     1      18.786  19.740  51.487  1.00  0.00    -0.204 NA
HETATM   11  O2  UNL     1      20.063  18.319  50.142  1.00  0.00    -0.248 OA
BRANCH  10  12
HETATM   12  N5  UNL     1      18.609  20.699  52.262  1.00  0.00    -0.257 NA
BRANCH  12  13
HETATM   13  C8  UNL     1      18.462  21.694  52.911  1.00  0.00     0.240 C 
BRANCH  13  14
HETATM   14  C7  UNL     1      17.341  21.758  53.882  1.00  0.00     0.043 A 
HETATM   15  C4  UNL     1      17.306  21.328  55.143  1.00  0.00     0.093 A 
HETATM   16  N3  UNL     1      16.085  21.576  55.583  1.00  0.00    -0.296 N 
HETATM   17  N4  UNL     1      15.321  22.138  54.702  1.00  0.00    -0.306 N 
ATOM     18  H3  UNL     1      15.774  21.347  56.527  1.00  0.00     0.187 HD
HETATM   19  C5  UNL     1      13.948  22.522  54.902  1.00  0.00     0.177 C 
HETATM   20  C6  UNL     1      16.077  22.277  53.596  1.00  0.00     0.126 A 
BRANCH  15  21
HETATM   21  C3  UNL     1      18.425  20.774  55.940  1.00  0.00     0.122 C 
HETATM   22  N2  UNL     1      19.041  19.773  55.506  1.00  0.00    -0.228 N 
ATOM     23  H2  UNL     1      18.647  19.480  54.612  1.00  0.00     0.202 HD
BRANCH  22  24
HETATM   24  N1  UNL     1      20.028  18.986  55.838  1.00  0.00    -0.287 NA
HETATM   25  C2  UNL     1      21.051  18.173  56.181  1.00  0.00     0.308 C 
HETATM   26  C1  UNL     1      22.459  18.255  55.643  1.00  0.00     0.137 C 
HETATM   27  O1  UNL     1      20.936  17.207  57.023  1.00  0.00    -0.256 OA
ENDBRANCH  22  24
BRANCH  21  28
HETATM   28  C15 UNL     1      18.833  21.342  57.195  1.00  0.00     0.133 A 
HETATM   29  N9  UNL     1      17.949  21.584  58.206  1.00  0.00    -0.236 N 
HETATM   30  O4  UNL     1      18.548  22.041  59.245  1.00  0.00    -0.155 OA
ATOM     31  H9  UNL     1      16.944  21.423  58.144  1.00  0.00     0.197 HD
HETATM   32  N10 UNL     1      19.820  22.141  59.026  1.00  0.00    -0.224 N 
HETATM   33  C16 UNL     1      20.035  21.700  57.718  1.00  0.00     0.152 A 
ATOM     34  H10 UNL     1      20.527  22.475  59.680  1.00  0.00     0.198 HD
BRANCH  33  35
HETATM   35  N11 UNL     1      21.201  21.708  57.204  1.00  0.00    -0.382 N 
ATOM     36 2H11 UNL     1      21.330  21.702  56.192  1.00  0.00     0.157 HD
ATOM     37 1H11 UNL     1      22.124  21.695  57.638  1.00  0.00     0.157 HD
ENDBRANCH  33  35
ENDBRANCH  21  28
ENDBRANCH  15  21
ENDBRANCH  13  14
ENDBRANCH  12  13
ENDBRANCH  10  12
ENDBRANCH   1   9
BRANCH   8  38
HETATM   38  O3  UNL     1      16.032  19.170  51.360  1.00  0.00    -0.345 OA
ATOM     39  H3  UNL     1      16.063  20.081  51.096  1.00  0.00     0.219 HD
ENDBRANCH   8  38
TORSDOF 9
ENDMDL
MODEL 3
REMARK VINA RESULT: -7.683766702      2.738      6.506
REMARK  9 active torsions:
REMARK  status: ('A' for Active; 'I' for Inactive)
REMARK       I    between atoms: C2_2  and  N1_4 
REMARK    1  A    between atoms: N1_4  and  N2_5 
REMARK    2  A    between atoms: C3_7  and  C4_8 
REMARK    3  A    between atoms: C3_7  and  C15_30 
REMARK    4  A    between atoms: C7_14  and  C8_15 
REMARK    5  A    between atoms: C8_15  and  N5_16 
REMARK    6  A    between atoms: N5_16  and  N6_17 
REMARK       I    between atoms: N6_17  and  C9_18 
REMARK    7  A    between atoms: C9_18  and  C10_20 
REMARK    8  A    between atoms: C14_27  and  O3_28 
REMARK    9  A    between atoms: C16_36  and  N11_37 
ROOT
HETATM    1  C10 UNL     1      17.275  18.232  50.850  1.00  0.00     0.103 A 
HETATM    2  C11 UNL     1      16.817  17.816  49.622  1.00  0.00     0.064 A 
HETATM    3  C12 UNL     1      15.451  17.892  49.590  1.00  0.00     0.117 A 
HETATM    4  C13 UNL     1      14.539  17.553  48.500  1.00  0.00     0.117 C 
HETATM    5  N7  UNL     1      13.833  17.266  47.641  1.00  0.00    -0.190 NA
HETATM    6  N8  UNL     1      15.073  18.358  50.803  1.00  0.00    -0.328 N 
ATOM      7  H8  UNL     1      14.107  18.525  51.089  1.00  0.00     0.168 HD
HETATM    8  C14 UNL     1      16.162  18.571  51.586  1.00  0.00     0.158 A 
ENDROOT
BRANCH   1   9
HETATM    9  C9  UNL     1      18.710  18.307  51.294  1.00  0.00     0.365 C 
HETATM   10  N6  UNL     1      18.978  18.247  52.607  1.00  0.00    -0.204 NA
HETATM   11  O2  UNL     1      19.533  18.422  50.345  1.00  0.00    -0.248 OA
BRANCH  10  12
HETATM   12  N5  UNL     1      19.226  18.190  53.827  1.00  0.00    -0.257 NA
BRANCH  12  13
HETATM   13  C8  UNL     1      19.373  18.216  55.014  1.00  0.00     0.240 C 
BRANCH  13  14
HETATM   14  C7  UNL     1      19.973  19.424  55.636  1.00  0.00     0.043 A 
HETATM   15  C4  UNL     1      19.577  20.694  55.540  1.00  0.00     0.093 A 
HETATM   16  N3  UNL     1      20.446  21.403  56.238  1.00  0.00    -0.296 N 
HETATM   17  N4  UNL     1      21.379  20.690  56.784  1.00  0.00    -0.306 N 
ATOM     18  H3  UNL     1      20.387  22.416  56.338  1.00  0.00     0.187 HD
HETATM   19  C5  UNL     1      22.454  21.193  57.598  1.00  0.00     0.177 C 
HETATM   20  C6  UNL     1      21.121  19.417  56.429  1.00  0.00     0.126 A 
BRANCH  15  21
HETATM   21  C3  UNL     1      18.359  21.213  54.875  1.00  0.00     0.122 C 
HETATM   22  N2  UNL     1      18.362  21.354  53.630  1.00  0.00    -0.228 N 
ATOM     23  H2  UNL     1      19.263  21.069  53.247  1.00  0.00     0.202 HD
BRANCH  22  24
HETATM   24  N1  UNL     1      17.573  21.752  52.669  1.00  0.00    -0.287 NA
HETATM   25  C2  UNL     1      16.758  22.163  51.673  1.00  0.00     0.308 C 
HETATM   26  C1  UNL     1      17.007  21.972  50.196  1.00  0.00     0.137 C 
HETATM   27  O1  UNL     1      15.651  22.785  51.876  1.00  0.00    -0.256 OA
ENDBRANCH  22  24
BRANCH  21  28
HETATM   28  C15 UNL     1      17.171  21.560  55.605  1.00  0.00     0.133 A 
HETATM   29  N9  UNL     1      15.924  21.228  55.165  1.00  0.00    -0.236 N 
HETATM   30  O4  UNL     1      15.023  21.593  56.003  1.00  0.00    -0.155 OA
ATOM     31  H9  UNL     1      15.731  20.751  54.284  1.00  0.00     0.197 HD
HETATM   32  N10 UNL     1      15.568  22.175  57.024  1.00  0.00    -0.224 N 
HETATM   33  C16 UNL     1      16.946  22.170  56.798  1.00  0.00     0.152 A 
ATOM     34  H10 UNL     1      15.085  22.561  57.835  1.00  0.00     0.198 HD
BRANCH  33  35
HETATM   35  N11 UNL     1      17.751  22.705  57.628  1.00  0.00    -0.382 N 
ATOM     36 2H11 UNL     1      18.554  23.248  57.308  1.00  0.00     0.157 HD
ATOM     37 1H11 UNL     1      17.774  22.682  58.648  1.00  0.00     0.157 HD
ENDBRANCH  33  35
ENDBRANCH  21  28
ENDBRANCH  15  21
ENDBRANCH  13  14
ENDBRANCH  12  13
ENDBRANCH  10  12
ENDBRANCH   1   9
BRANCH   8  38
HETATM   38  O3  UNL     1      16.199  19.042  52.888  1.00  0.00    -0.345 OA
ATOM     39  H3  UNL     1      15.913  19.908  53.154  1.00  0.00     0.219 HD
ENDBRANCH   8  38
TORSDOF 9
ENDMDL
MODEL 4
REMARK VINA RESULT: -7.643886823      2.715      6.618
REMARK  9 active torsions:
REMARK  status: ('A' for Active; 'I' for Inactive)
REMARK       I    between atoms: C2_2  and  N1_4 
REMARK    1  A    between atoms: N1_4  and  N2_5 
REMARK    2  A    between atoms: C3_7  and  C4_8 
REMARK    3  A    between atoms: C3_7  and  C15_30 
REMARK    4  A    between atoms: C7_14  and  C8_15 
REMARK    5  A    between atoms: C8_15  and  N5_16 
REMARK    6  A    between atoms: N5_16  and  N6_17 
REMARK       I    between atoms: N6_17  and  C9_18 
REMARK    7  A    between atoms: C9_18  and  C10_20 
REMARK    8  A    between atoms: C14_27  and  O3_28 
REMARK    9  A    between atoms: C16_36  and  N11_37 
ROOT
HETATM    1  C10 UNL     1      17.811  17.734  50.224  1.00  0.00     0.103 A 
HETATM    2  C11 UNL     1      18.035  16.941  49.123  1.00  0.00     0.064 A 
HETATM    3  C12 UNL     1      16.871  16.321  48.758  1.00  0.00     0.117 A 
HETATM    4  C13 UNL     1      16.634  15.391  47.656  1.00  0.00     0.117 C 
HETATM    5  N7  UNL     1      16.467  14.648  46.796  1.00  0.00    -0.190 NA
HETATM    6  N8  UNL     1      15.931  16.737  49.638  1.00  0.00    -0.328 N 
ATOM      7  H8  UNL     1      14.952  16.448  49.627  1.00  0.00     0.168 HD
HETATM    8  C14 UNL     1      16.477  17.595  50.538  1.00  0.00     0.158 A 
ENDROOT
BRANCH   1   9
HETATM    9  C9  UNL     1      18.823  18.588  50.936  1.00  0.00     0.365 C 
HETATM   10  N6  UNL     1      18.961  18.447  52.263  1.00  0.00    -0.204 NA
HETATM   11  O2  UNL     1      19.454  19.372  50.175  1.00  0.00    -0.248 OA
BRANCH  10  12
HETATM   12  N5  UNL     1      19.088  18.314  53.495  1.00  0.00    -0.257 NA
BRANCH  12  13
HETATM   13  C8  UNL     1      19.147  18.291  54.690  1.00  0.00     0.240 C 
BRANCH  13  14
HETATM   14  C7  UNL     1      19.754  19.445  55.401  1.00  0.00     0.043 A 
HETATM   15  C4  UNL     1      19.312  20.700  55.482  1.00  0.00     0.093 A 
HETATM   16  N3  UNL     1      20.208  21.361  56.192  1.00  0.00    -0.296 N 
HETATM   17  N4  UNL     1      21.202  20.630  56.582  1.00  0.00    -0.306 N 
ATOM     18  H3  UNL     1      20.124  22.353  56.412  1.00  0.00     0.187 HD
HETATM   19  C5  UNL     1      22.321  21.081  57.368  1.00  0.00     0.177 C 
HETATM   20  C6  UNL     1      20.959  19.395  56.103  1.00  0.00     0.126 A 
BRANCH  15  21
HETATM   21  C3  UNL     1      18.030  21.240  54.972  1.00  0.00     0.122 C 
HETATM   22  N2  UNL     1      17.150  21.590  55.792  1.00  0.00    -0.228 N 
ATOM     23  H2  UNL     1      17.479  21.438  56.745  1.00  0.00     0.202 HD
BRANCH  22  24
HETATM   24  N1  UNL     1      15.944  22.089  55.811  1.00  0.00    -0.287 NA
HETATM   25  C2  UNL     1      14.695  22.606  55.831  1.00  0.00     0.308 C 
HETATM   26  C1  UNL     1      13.954  23.068  57.063  1.00  0.00     0.137 C 
HETATM   27  O1  UNL     1      13.976  22.760  54.776  1.00  0.00    -0.256 OA
ENDBRANCH  22  24
BRANCH  21  28
HETATM   28  C15 UNL     1      17.757  21.380  53.568  1.00  0.00     0.133 A 
HETATM   29  N9  UNL     1      16.705  20.753  52.966  1.00  0.00    -0.236 N 
HETATM   30  O4  UNL     1      16.628  21.067  51.723  1.00  0.00    -0.155 OA
ATOM     31  H9  UNL     1      16.063  20.118  53.441  1.00  0.00     0.197 HD
HETATM   32  N10 UNL     1      17.578  21.888  51.406  1.00  0.00    -0.224 N 
HETATM   33  C16 UNL     1      18.320  22.108  52.569  1.00  0.00     0.152 A 
ATOM     34  H10 UNL     1      17.750  22.294  50.487  1.00  0.00     0.198 HD
BRANCH  33  35
HETATM   35  N11 UNL     1      19.348  22.860  52.561  1.00  0.00    -0.382 N 
ATOM     36 2H11 UNL     1      20.095  22.739  53.246  1.00  0.00     0.157 HD
ATOM     37 1H11 UNL     1      19.594  23.651  51.965  1.00  0.00     0.157 HD
ENDBRANCH  33  35
ENDBRANCH  21  28
ENDBRANCH  15  21
ENDBRANCH  13  14
ENDBRANCH  12  13
ENDBRANCH  10  12
ENDBRANCH   1   9
BRANCH   8  38
HETATM   38  O3  UNL     1      15.851  18.238  51.594  1.00  0.00    -0.345 OA
ATOM     39  H3  UNL     1      14.910  18.271  51.720  1.00  0.00     0.219 HD
ENDBRANCH   8  38
TORSDOF 9
ENDMDL
MODEL 5
REMARK VINA RESULT: -7.558695648      1.585      2.145
REMARK  9 active torsions:
REMARK  status: ('A' for Active; 'I' for Inactive)
REMARK       I    between atoms: C2_2  and  N1_4 
REMARK    1  A    between atoms: N1_4  and  N2_5 
REMARK    2  A    between atoms: C3_7  and  C4_8 
REMARK    3  A    between atoms: C3_7  and  C15_30 
REMARK    4  A    between atoms: C7_14  and  C8_15 
REMARK    5  A    between atoms: C8_15  and  N5_16 
REMARK    6  A    between atoms: N5_16  and  N6_17 
REMARK       I    between atoms: N6_17  and  C9_18 
REMARK    7  A    between atoms: C9_18  and  C10_20 
REMARK    8  A    between atoms: C14_27  and  O3_28 
REMARK    9  A    between atoms: C16_36  and  N11_37 
ROOT
HETATM    1  C10 UNL     1      19.298  19.798  55.855  1.00  0.00     0.103 A 
HETATM    2  C11 UNL     1      19.857  20.324  56.995  1.00  0.00     0.064 A 
HETATM    3  C12 UNL     1      18.983  21.204  57.573  1.00  0.00     0.117 A 
HETATM    4  C13 UNL     1      19.149  21.997  58.789  1.00  0.00     0.117 C 
HETATM    5  N7  UNL     1      19.301  22.627  59.737  1.00  0.00    -0.190 NA
HETATM    6  N8  UNL     1      17.884  21.215  56.783  1.00  0.00    -0.328 N 
ATOM      7  H8  UNL     1      17.049  21.778  56.952  1.00  0.00     0.168 HD
HETATM    8  C14 UNL     1      18.051  20.370  55.733  1.00  0.00     0.158 A 
ENDROOT
BRANCH   1   9
HETATM    9  C9  UNL     1      19.925  18.790  54.930  1.00  0.00     0.365 C 
HETATM   10  N6  UNL     1      19.165  18.246  53.968  1.00  0.00    -0.204 NA
HETATM   11  O2  UNL     1      21.141  18.562  55.173  1.00  0.00    -0.248 OA
BRANCH  10  12
HETATM   12  N5  UNL     1      18.460  17.741  53.073  1.00  0.00    -0.257 NA
BRANCH  12  13
HETATM   13  C8  UNL     1      17.686  17.277  52.288  1.00  0.00     0.240 C 
BRANCH  13  14
HETATM   14  C7  UNL     1      17.695  17.776  50.889  1.00  0.00     0.043 A 
HETATM   15  C4  UNL     1      17.406  18.997  50.439  1.00  0.00     0.093 A 
HETATM   16  N3  UNL     1      17.523  18.941  49.124  1.00  0.00    -0.296 N 
HETATM   17  N4  UNL     1      17.869  17.775  48.683  1.00  0.00    -0.306 N 
ATOM     18  H3  UNL     1      17.357  19.742  48.515  1.00  0.00     0.187 HD
HETATM   19  C5  UNL     1      18.072  17.424  47.302  1.00  0.00     0.177 C 
HETATM   20  C6  UNL     1      17.993  16.993  49.772  1.00  0.00     0.126 A 
BRANCH  15  21
HETATM   21  C3  UNL     1      17.108  20.208  51.239  1.00  0.00     0.122 C 
HETATM   22  N2  UNL     1      15.994  20.302  51.805  1.00  0.00    -0.228 N 
ATOM     23  H2  UNL     1      15.432  19.474  51.611  1.00  0.00     0.202 HD
BRANCH  22  24
HETATM   24  N1  UNL     1      15.326  21.128  52.563  1.00  0.00    -0.287 NA
HETATM   25  C2  UNL     1      14.634  21.983  53.348  1.00  0.00     0.308 C 
HETATM   26  C1  UNL     1      13.261  22.536  53.050  1.00  0.00     0.137 C 
HETATM   27  O1  UNL     1      15.080  22.438  54.465  1.00  0.00    -0.256 OA
ENDBRANCH  22  24
BRANCH  21  28
HETATM   28  C15 UNL     1      18.051  21.281  51.393  1.00  0.00     0.133 A 
HETATM   29  N9  UNL     1      18.538  21.652  52.612  1.00  0.00    -0.236 N 
HETATM   30  O4  UNL     1      19.403  22.594  52.498  1.00  0.00    -0.155 OA
ATOM     31  H9  UNL     1      18.252  21.236  53.498  1.00  0.00     0.197 HD
HETATM   32  N10 UNL     1      19.558  22.917  51.254  1.00  0.00    -0.224 N 
HETATM   33  C16 UNL     1      18.702  22.092  50.519  1.00  0.00     0.152 A 
ATOM     34  H10 UNL     1      20.181  23.633  50.882  1.00  0.00     0.198 HD
BRANCH  33  35
HETATM   35  N11 UNL     1      18.614  22.198  49.252  1.00  0.00    -0.382 N 
ATOM     36 2H11 UNL     1      18.711  23.103  48.791  1.00  0.00     0.157 HD
ATOM     37 1H11 UNL     1      18.425  21.498  48.534  1.00  0.00     0.157 HD
ENDBRANCH  33  35
ENDBRANCH  21  28
ENDBRANCH  15  21
ENDBRANCH  13  14
ENDBRANCH  12  13
ENDBRANCH  10  12
ENDBRANCH   1   9
BRANCH   8  38
HETATM   38  O3  UNL     1      17.163  20.098  54.705  1.00  0.00    -0.345 OA
ATOM     39  H3  UNL     1      16.217  20.144  54.787  1.00  0.00     0.219 HD
ENDBRANCH   8  38
TORSDOF 9
ENDMDL
