MODEL 1
REMARK VINA RESULT: -11.512955874      0.000      0.000
REMARK  6 active torsions:
REMARK  status: ('A' for Active; 'I' for Inactive)
REMARK    1  A    between atoms: N1_1  and  C1_4 
REMARK    2  A    between atoms: C5_12  and  C6_13 
REMARK    3  A    between atoms: C12_21  and  C13_22 
REMARK    4  A    between atoms: C17_26  and  O1_27 
REMARK    5  A    between atoms: O1_27  and  C18_28 
REMARK    6  A    between atoms: C18_28  and  C19_29 
ROOT
HETATM    1  C6  UNL     1      63.866   1.333  -5.996  1.00  0.00     0.043 A 
HETATM    2  C7  UNL     1      62.760   0.548  -6.180  1.00  0.00     0.044 A 
HETATM    3  C8  UNL     1      61.478   1.092  -6.030  1.00  0.00    -0.004 A 
HETATM    4  C9  UNL     1      60.210   0.557  -6.153  1.00  0.00     0.031 A 
HETATM    5  C10 UNL     1      59.285   1.545  -5.899  1.00  0.00     0.089 A 
HETATM    6  N4  UNL     1      59.978   2.681  -5.619  1.00  0.00    -0.363 N 
ATOM      7  H4  UNL     1      59.567   3.586  -5.390  1.00  0.00     0.165 HD
HETATM    8  C11 UNL     1      61.295   2.418  -5.695  1.00  0.00     0.070 A 
HETATM    9  C12 UNL     1      62.431   3.174  -5.519  1.00  0.00     0.071 A 
HETATM   10  N5  UNL     1      63.670   2.621  -5.671  1.00  0.00    -0.353 N 
ATOM     11  H5  UNL     1      64.487   3.216  -5.532  1.00  0.00     0.166 HD
ENDROOT
BRANCH   1  12
HETATM   12  C5  UNL     1      65.255   0.830  -6.137  1.00  0.00    -0.008 A 
HETATM   13  C4  UNL     1      66.264   1.632  -6.594  1.00  0.00     0.016 A 
HETATM   14  C3  UNL     1      67.555   1.171  -6.728  1.00  0.00     0.033 A 
HETATM   15  C2  UNL     1      67.858  -0.135  -6.394  1.00  0.00     0.062 A 
HETATM   16  N3  UNL     1      69.007  -0.858  -6.417  1.00  0.00    -0.298 N 
HETATM   17  C27 UNL     1      66.830  -0.935  -5.932  1.00  0.00     0.038 A 
HETATM   18  N2  UNL     1      68.735  -2.072  -5.989  1.00  0.00    -0.285 N 
ATOM     19  H3  UNL     1      69.922  -0.520  -6.714  1.00  0.00     0.187 HD
HETATM   20  C1  UNL     1      67.433  -2.174  -5.683  1.00  0.00     0.126 A 
ATOM     21  H2  UNL     1      69.415  -2.827  -5.903  1.00  0.00     0.188 HD
HETATM   22  C26 UNL     1      65.545  -0.473  -5.801  1.00  0.00     0.031 A 
BRANCH  20  23
HETATM   23  N1  UNL     1      66.780  -3.193  -5.233  1.00  0.00    -0.384 N 
ATOM     24  H12 UNL     1      66.765  -4.095  -5.711  1.00  0.00     0.157 HD
ATOM     25  H11 UNL     1      66.210  -3.271  -4.391  1.00  0.00     0.157 HD
ENDBRANCH  20  23
ENDBRANCH   1  12
BRANCH   9  26
HETATM   26  C13 UNL     1      62.279   4.580  -5.171  1.00  0.00    -0.004 A 
HETATM   27  C14 UNL     1      62.847   5.501  -6.038  1.00  0.00     0.014 A 
HETATM   28  C15 UNL     1      62.737   6.835  -5.749  1.00  0.00     0.004 A 
HETATM   29  C16 UNL     1      62.071   7.282  -4.611  1.00  0.00     0.037 A 
HETATM   30  C17 UNL     1      61.502   6.383  -3.740  1.00  0.00     0.070 A 
HETATM   31  C25 UNL     1      61.621   5.021  -4.047  1.00  0.00     0.050 A 
BRANCH  30  32
HETATM   32  O1  UNL     1      60.832   6.768  -2.603  1.00  0.00    -0.347 OA
BRANCH  32  33
HETATM   33  C18 UNL     1      61.211   7.736  -1.687  1.00  0.00     0.214 C 
BRANCH  33  34
HETATM   34  C19 UNL     1      61.186   7.289  -0.267  1.00  0.00    -0.034 A 
HETATM   35  C20 UNL     1      61.093   5.919  -0.026  1.00  0.00     0.009 A 
HETATM   36  C21 UNL     1      61.065   5.452   1.296  1.00  0.00     0.001 A 
HETATM   37  C22 UNL     1      61.128   6.328   2.344  1.00  0.00     0.000 A 
HETATM   38  C23 UNL     1      61.218   7.675   2.092  1.00  0.00     0.001 A 
HETATM   39  C24 UNL     1      61.249   8.166   0.787  1.00  0.00     0.009 A 
ENDBRANCH  33  34
ENDBRANCH  32  33
ENDBRANCH  30  32
ENDBRANCH   9  26
TORSDOF 6
ENDMDL
MODEL 2
REMARK VINA RESULT: -11.287154616      3.196      9.189
REMARK  6 active torsions:
REMARK  status: ('A' for Active; 'I' for Inactive)
REMARK    1  A    between atoms: N1_1  and  C1_4 
REMARK    2  A    between atoms: C5_12  and  C6_13 
REMARK    3  A    between atoms: C12_21  and  C13_22 
REMARK    4  A    between atoms: C17_26  and  O1_27 
REMARK    5  A    between atoms: O1_27  and  C18_28 
REMARK    6  A    between atoms: C18_28  and  C19_29 
ROOT
HETATM    1  C6  UNL     1      61.815   5.929  -3.437  1.00  0.00     0.043 A 
HETATM    2  C7  UNL     1      62.422   6.757  -4.343  1.00  0.00     0.044 A 
HETATM    3  C8  UNL     1      62.854   6.255  -5.577  1.00  0.00    -0.004 A 
HETATM    4  C9  UNL     1      63.479   6.839  -6.662  1.00  0.00     0.031 A 
HETATM    5  C10 UNL     1      63.677   5.879  -7.630  1.00  0.00     0.089 A 
HETATM    6  N4  UNL     1      63.177   4.711  -7.144  1.00  0.00    -0.363 N 
ATOM      7  H4  UNL     1      63.178   3.816  -7.633  1.00  0.00     0.165 HD
HETATM    8  C11 UNL     1      62.682   4.927  -5.913  1.00  0.00     0.070 A 
HETATM    9  C12 UNL     1      62.068   4.128  -4.976  1.00  0.00     0.071 A 
HETATM   10  N5  UNL     1      61.655   4.640  -3.780  1.00  0.00    -0.353 N 
ATOM     11  H5  UNL     1      61.203   4.014  -3.114  1.00  0.00     0.166 HD
ENDROOT
BRANCH   1  12
HETATM   12  C5  UNL     1      61.331   6.386  -2.112  1.00  0.00    -0.008 A 
HETATM   13  C4  UNL     1      60.876   7.662  -1.916  1.00  0.00     0.016 A 
HETATM   14  C3  UNL     1      60.426   8.092  -0.688  1.00  0.00     0.033 A 
HETATM   15  C2  UNL     1      60.425   7.225   0.389  1.00  0.00     0.062 A 
HETATM   16  N3  UNL     1      60.052   7.355   1.687  1.00  0.00    -0.298 N 
HETATM   17  C27 UNL     1      60.886   5.940   0.177  1.00  0.00     0.038 A 
HETATM   18  N2  UNL     1      60.261   6.205   2.290  1.00  0.00    -0.285 N 
ATOM     19  H3  UNL     1      59.674   8.198   2.121  1.00  0.00     0.187 HD
HETATM   20  C1  UNL     1      60.765   5.314   1.425  1.00  0.00     0.126 A 
ATOM     21  H2  UNL     1      60.068   6.019   3.274  1.00  0.00     0.188 HD
HETATM   22  C26 UNL     1      61.334   5.514  -1.046  1.00  0.00     0.031 A 
BRANCH  20  23
HETATM   23  N1  UNL     1      61.102   4.084   1.627  1.00  0.00    -0.384 N 
ATOM     24  H12 UNL     1      61.188   3.402   0.872  1.00  0.00     0.157 HD
ATOM     25  H11 UNL     1      61.323   3.614   2.505  1.00  0.00     0.157 HD
ENDBRANCH  20  23
ENDBRANCH   1  12
BRANCH   9  26
HETATM   26  C13 UNL     1      61.863   2.721  -5.296  1.00  0.00    -0.004 A 
HETATM   27  C14 UNL     1      60.552   2.312  -5.494  1.00  0.00     0.014 A 
HETATM   28  C15 UNL     1      60.309   0.998  -5.788  1.00  0.00     0.004 A 
HETATM   29  C16 UNL     1      61.341   0.070  -5.894  1.00  0.00     0.037 A 
HETATM   30  C17 UNL     1      62.647   0.459  -5.701  1.00  0.00     0.070 A 
HETATM   31  C25 UNL     1      62.884   1.806  -5.400  1.00  0.00     0.050 A 
BRANCH  30  32
HETATM   32  O1  UNL     1      63.706  -0.414  -5.793  1.00  0.00    -0.347 OA
BRANCH  32  33
HETATM   33  C18 UNL     1      64.834  -0.291  -6.590  1.00  0.00     0.214 C 
BRANCH  33  34
HETATM   34  C19 UNL     1      66.100  -0.734  -5.943  1.00  0.00    -0.034 A 
HETATM   35  C20 UNL     1      67.235   0.046  -6.152  1.00  0.00     0.009 A 
HETATM   36  C21 UNL     1      68.450  -0.334  -5.562  1.00  0.00     0.001 A 
HETATM   37  C22 UNL     1      68.527  -1.459  -4.790  1.00  0.00     0.000 A 
HETATM   38  C23 UNL     1      67.400  -2.219  -4.594  1.00  0.00     0.001 A 
HETATM   39  C24 UNL     1      66.179  -1.864  -5.167  1.00  0.00     0.009 A 
ENDBRANCH  33  34
ENDBRANCH  32  33
ENDBRANCH  30  32
ENDBRANCH   9  26
TORSDOF 6
ENDMDL
MODEL 3
REMARK VINA RESULT: -10.938968112      3.404      9.398
REMARK  6 active torsions:
REMARK  status: ('A' for Active; 'I' for Inactive)
REMARK    1  A    between atoms: N1_1  and  C1_4 
REMARK    2  A    between atoms: C5_12  and  C6_13 
REMARK    3  A    between atoms: C12_21  and  C13_22 
REMARK    4  A    between atoms: C17_26  and  O1_27 
REMARK    5  A    between atoms: O1_27  and  C18_28 
REMARK    6  A    between atoms: C18_28  and  C19_29 
ROOT
HETATM    1  C6  UNL     1      61.648   5.427  -2.721  1.00  0.00     0.043 A 
HETATM    2  C7  UNL     1      61.859   6.485  -3.563  1.00  0.00     0.044 A 
HETATM    3  C8  UNL     1      62.002   6.273  -4.940  1.00  0.00    -0.004 A 
HETATM    4  C9  UNL     1      62.214   7.126  -6.005  1.00  0.00     0.031 A 
HETATM    5  C10 UNL     1      62.274   6.384  -7.164  1.00  0.00     0.089 A 
HETATM    6  N4  UNL     1      62.100   5.081  -6.814  1.00  0.00    -0.363 N 
ATOM      7  H4  UNL     1      62.094   4.290  -7.458  1.00  0.00     0.165 HD
HETATM    8  C11 UNL     1      61.936   5.005  -5.482  1.00  0.00     0.070 A 
HETATM    9  C12 UNL     1      61.724   3.968  -4.603  1.00  0.00     0.071 A 
HETATM   10  N5  UNL     1      61.587   4.200  -3.265  1.00  0.00    -0.353 N 
ATOM     11  H5  UNL     1      61.430   3.403  -2.648  1.00  0.00     0.166 HD
ENDROOT
BRANCH   1  12
HETATM   12  C5  UNL     1      61.487   5.572  -1.253  1.00  0.00    -0.008 A 
HETATM   13  C4  UNL     1      61.679   4.516  -0.404  1.00  0.00     0.016 A 
HETATM   14  C3  UNL     1      61.531   4.645   0.959  1.00  0.00     0.033 A 
HETATM   15  C2  UNL     1      61.180   5.866   1.502  1.00  0.00     0.062 A 
HETATM   16  N3  UNL     1      60.966   6.292   2.774  1.00  0.00    -0.298 N 
HETATM   17  C27 UNL     1      60.990   6.924   0.634  1.00  0.00     0.038 A 
HETATM   18  N2  UNL     1      60.651   7.568   2.730  1.00  0.00    -0.285 N 
ATOM     19  H3  UNL     1      61.037   5.721   3.616  1.00  0.00     0.187 HD
HETATM   20  C1  UNL     1      60.651   8.002   1.461  1.00  0.00     0.126 A 
ATOM     21  H2  UNL     1      60.439   8.145   3.544  1.00  0.00     0.188 HD
HETATM   22  C26 UNL     1      61.138   6.793  -0.723  1.00  0.00     0.031 A 
BRANCH  20  23
HETATM   23  N1  UNL     1      60.396   9.182   1.005  1.00  0.00    -0.384 N 
ATOM     24  H12 UNL     1      60.235   9.370   0.014  1.00  0.00     0.157 HD
ATOM     25  H11 UNL     1      60.317  10.065   1.511  1.00  0.00     0.157 HD
ENDBRANCH  20  23
ENDBRANCH   1  12
BRANCH   9  26
HETATM   26  C13 UNL     1      61.642   2.615  -5.138  1.00  0.00    -0.004 A 
HETATM   27  C14 UNL     1      60.388   2.178  -5.536  1.00  0.00     0.014 A 
HETATM   28  C15 UNL     1      60.259   0.910  -6.038  1.00  0.00     0.004 A 
HETATM   29  C16 UNL     1      61.354   0.058  -6.156  1.00  0.00     0.037 A 
HETATM   30  C17 UNL     1      62.605   0.476  -5.766  1.00  0.00     0.070 A 
HETATM   31  C25 UNL     1      62.724   1.774  -5.254  1.00  0.00     0.050 A 
BRANCH  30  32
HETATM   32  O1  UNL     1      63.721  -0.323  -5.860  1.00  0.00    -0.347 OA
BRANCH  32  33
HETATM   33  C18 UNL     1      64.875  -0.078  -6.588  1.00  0.00     0.214 C 
BRANCH  33  34
HETATM   34  C19 UNL     1      66.121  -0.610  -5.970  1.00  0.00    -0.034 A 
HETATM   35  C20 UNL     1      67.304   0.089  -6.206  1.00  0.00     0.009 A 
HETATM   36  C21 UNL     1      68.503  -0.377  -5.644  1.00  0.00     0.001 A 
HETATM   37  C22 UNL     1      68.517  -1.506  -4.874  1.00  0.00     0.000 A 
HETATM   38  C23 UNL     1      67.344  -2.184  -4.652  1.00  0.00     0.001 A 
HETATM   39  C24 UNL     1      66.138  -1.743  -5.196  1.00  0.00     0.009 A 
ENDBRANCH  33  34
ENDBRANCH  32  33
ENDBRANCH  30  32
ENDBRANCH   9  26
TORSDOF 6
ENDMDL
MODEL 4
REMARK VINA RESULT: -10.863175942      1.526      2.195
REMARK  6 active torsions:
REMARK  status: ('A' for Active; 'I' for Inactive)
REMARK    1  A    between atoms: N1_1  and  C1_4 
REMARK    2  A    between atoms: C5_12  and  C6_13 
REMARK    3  A    between atoms: C12_21  and  C13_22 
REMARK    4  A    between atoms: C17_26  and  O1_27 
REMARK    5  A    between atoms: O1_27  and  C18_28 
REMARK    6  A    between atoms: C18_28  and  C19_29 
ROOT
HETATM    1  C6  UNL     1      62.523   2.472  -5.786  1.00  0.00     0.043 A 
HETATM    2  C7  UNL     1      61.309   1.885  -6.024  1.00  0.00     0.044 A 
HETATM    3  C8  UNL     1      60.142   2.433  -5.477  1.00  0.00    -0.004 A 
HETATM    4  C9  UNL     1      58.811   2.070  -5.548  1.00  0.00     0.031 A 
HETATM    5  C10 UNL     1      58.066   2.970  -4.818  1.00  0.00     0.089 A 
HETATM    6  N4  UNL     1      58.933   3.881  -4.301  1.00  0.00    -0.363 N 
ATOM      7  H4  UNL     1      58.679   4.675  -3.712  1.00  0.00     0.165 HD
HETATM    8  C11 UNL     1      60.181   3.567  -4.691  1.00  0.00     0.070 A 
HETATM    9  C12 UNL     1      61.419   4.127  -4.474  1.00  0.00     0.071 A 
HETATM   10  N5  UNL     1      62.543   3.574  -5.019  1.00  0.00    -0.353 N 
ATOM     11  H5  UNL     1      63.441   4.021  -4.835  1.00  0.00     0.166 HD
ENDROOT
BRANCH   1  12
HETATM   12  C5  UNL     1      63.801   1.951  -6.330  1.00  0.00    -0.008 A 
HETATM   13  C4  UNL     1      64.489   2.619  -7.306  1.00  0.00     0.016 A 
HETATM   14  C3  UNL     1      65.675   2.140  -7.815  1.00  0.00     0.033 A 
HETATM   15  C2  UNL     1      66.202   0.955  -7.338  1.00  0.00     0.062 A 
HETATM   16  N3  UNL     1      67.323   0.249  -7.635  1.00  0.00    -0.298 N 
HETATM   17  C27 UNL     1      65.498   0.291  -6.352  1.00  0.00     0.038 A 
HETATM   18  N2  UNL     1      67.343  -0.825  -6.875  1.00  0.00    -0.285 N 
ATOM     19  H3  UNL     1      68.027   0.506  -8.327  1.00  0.00     0.187 HD
HETATM   20  C1  UNL     1      66.264  -0.850  -6.081  1.00  0.00     0.126 A 
ATOM     21  H2  UNL     1      68.075  -1.535  -6.889  1.00  0.00     0.188 HD
HETATM   22  C26 UNL     1      64.316   0.769  -5.848  1.00  0.00     0.031 A 
BRANCH  20  23
HETATM   23  N1  UNL     1      65.922  -1.730  -5.200  1.00  0.00    -0.384 N 
ATOM     24  H12 UNL     1      65.345  -2.542  -5.422  1.00  0.00     0.157 HD
ATOM     25  H11 UNL     1      66.149  -1.766  -4.205  1.00  0.00     0.157 HD
ENDBRANCH  20  23
ENDBRANCH   1  12
BRANCH   9  26
HETATM   26  C13 UNL     1      61.500   5.328  -3.654  1.00  0.00    -0.004 A 
HETATM   27  C14 UNL     1      61.746   6.520  -4.318  1.00  0.00     0.014 A 
HETATM   28  C15 UNL     1      61.839   7.675  -3.589  1.00  0.00     0.004 A 
HETATM   29  C16 UNL     1      61.693   7.677  -2.205  1.00  0.00     0.037 A 
HETATM   30  C17 UNL     1      61.449   6.504  -1.530  1.00  0.00     0.070 A 
HETATM   31  C25 UNL     1      61.355   5.329  -2.287  1.00  0.00     0.050 A 
BRANCH  30  32
HETATM   32  O1  UNL     1      61.295   6.447  -0.164  1.00  0.00    -0.347 OA
BRANCH  32  33
HETATM   33  C18 UNL     1      60.973   7.488   0.693  1.00  0.00     0.214 C 
BRANCH  33  34
HETATM   34  C19 UNL     1      61.580   7.383   2.049  1.00  0.00    -0.034 A 
HETATM   35  C20 UNL     1      62.685   6.547   2.195  1.00  0.00     0.009 A 
HETATM   36  C21 UNL     1      63.289   6.416   3.455  1.00  0.00     0.001 A 
HETATM   37  C22 UNL     1      62.801   7.100   4.533  1.00  0.00     0.000 A 
HETATM   38  C23 UNL     1      61.710   7.919   4.374  1.00  0.00     0.001 A 
HETATM   39  C24 UNL     1      61.092   8.068   3.133  1.00  0.00     0.009 A 
ENDBRANCH  33  34
ENDBRANCH  32  33
ENDBRANCH  30  32
ENDBRANCH   9  26
TORSDOF 6
ENDMDL
MODEL 5
REMARK VINA RESULT: -10.765187292      3.409      9.124
REMARK  6 active torsions:
REMARK  status: ('A' for Active; 'I' for Inactive)
REMARK    1  A    between atoms: N1_1  and  C1_4 
REMARK    2  A    between atoms: C5_12  and  C6_13 
REMARK    3  A    between atoms: C12_21  and  C13_22 
REMARK    4  A    between atoms: C17_26  and  O1_27 
REMARK    5  A    between atoms: O1_27  and  C18_28 
REMARK    6  A    between atoms: C18_28  and  C19_29 
ROOT
HETATM    1  C6  UNL     1      61.058   4.682  -3.194  1.00  0.00     0.043 A 
HETATM    2  C7  UNL     1      59.807   4.270  -3.567  1.00  0.00     0.044 A 
HETATM    3  C8  UNL     1      59.655   3.276  -4.542  1.00  0.00    -0.004 A 
HETATM    4  C9  UNL     1      58.546   2.672  -5.103  1.00  0.00     0.031 A 
HETATM    5  C10 UNL     1      58.967   1.742  -6.027  1.00  0.00     0.089 A 
HETATM    6  N4  UNL     1      60.327   1.774  -6.036  1.00  0.00    -0.363 N 
ATOM      7  H4  UNL     1      60.929   1.195  -6.622  1.00  0.00     0.165 HD
HETATM    8  C11 UNL     1      60.748   2.691  -5.149  1.00  0.00     0.070 A 
HETATM    9  C12 UNL     1      61.988   3.133  -4.747  1.00  0.00     0.071 A 
HETATM   10  N5  UNL     1      62.111   4.103  -3.793  1.00  0.00    -0.353 N 
ATOM     11  H5  UNL     1      63.048   4.401  -3.523  1.00  0.00     0.166 HD
ENDROOT
BRANCH   1  12
HETATM   12  C5  UNL     1      61.300   5.728  -2.169  1.00  0.00    -0.008 A 
HETATM   13  C4  UNL     1      61.498   7.037  -2.514  1.00  0.00     0.016 A 
HETATM   14  C3  UNL     1      61.723   8.011  -1.568  1.00  0.00     0.033 A 
HETATM   15  C2  UNL     1      61.752   7.677  -0.227  1.00  0.00     0.062 A 
HETATM   16  N3  UNL     1      61.945   8.398   0.907  1.00  0.00    -0.298 N 
HETATM   17  C27 UNL     1      61.549   6.352   0.108  1.00  0.00     0.038 A 
HETATM   18  N2  UNL     1      61.872   7.576   1.931  1.00  0.00    -0.285 N 
ATOM     19  H3  UNL     1      62.118   9.402   0.956  1.00  0.00     0.187 HD
HETATM   20  C1  UNL     1      61.634   6.326   1.506  1.00  0.00     0.126 A 
ATOM     21  H2  UNL     1      61.980   7.849   2.907  1.00  0.00     0.188 HD
HETATM   22  C26 UNL     1      61.327   5.383  -0.836  1.00  0.00     0.031 A 
BRANCH  20  23
HETATM   23  N1  UNL     1      61.495   5.244   2.196  1.00  0.00    -0.384 N 
ATOM     24  H12 UNL     1      60.861   5.173   2.993  1.00  0.00     0.157 HD
ATOM     25  H11 UNL     1      61.957   4.342   2.078  1.00  0.00     0.157 HD
ENDBRANCH  20  23
ENDBRANCH   1  12
BRANCH   9  26
HETATM   26  C13 UNL     1      63.166   2.536  -5.360  1.00  0.00    -0.004 A 
HETATM   27  C14 UNL     1      64.143   3.409  -5.813  1.00  0.00     0.014 A 
HETATM   28  C15 UNL     1      65.266   2.895  -6.404  1.00  0.00     0.004 A 
HETATM   29  C16 UNL     1      65.446   1.523  -6.559  1.00  0.00     0.037 A 
HETATM   30  C17 UNL     1      64.486   0.642  -6.115  1.00  0.00     0.070 A 
HETATM   31  C25 UNL     1      63.343   1.180  -5.512  1.00  0.00     0.050 A 
BRANCH  30  32
HETATM   32  O1  UNL     1      64.611  -0.722  -6.241  1.00  0.00    -0.347 OA
BRANCH  32  33
HETATM   33  C18 UNL     1      65.239  -1.596  -5.367  1.00  0.00     0.214 C 
BRANCH  33  34
HETATM   34  C19 UNL     1      66.704  -1.747  -5.589  1.00  0.00    -0.034 A 
HETATM   35  C20 UNL     1      67.129  -2.062  -6.878  1.00  0.00     0.009 A 
HETATM   36  C21 UNL     1      68.500  -2.215  -7.133  1.00  0.00     0.001 A 
HETATM   37  C22 UNL     1      69.416  -2.059  -6.129  1.00  0.00     0.000 A 
HETATM   38  C23 UNL     1      68.981  -1.750  -4.864  1.00  0.00     0.001 A 
HETATM   39  C24 UNL     1      67.625  -1.591  -4.583  1.00  0.00     0.009 A 
ENDBRANCH  33  34
ENDBRANCH  32  33
ENDBRANCH  30  32
ENDBRANCH   9  26
TORSDOF 6
ENDMDL
