MODEL 1
REMARK VINA RESULT: -10.017523088      0.000      0.000
REMARK  7 active torsions:
REMARK  status: ('A' for Active; 'I' for Inactive)
REMARK       I    between atoms: C1_2  and  N1_3 
REMARK    1  A    between atoms: C1_2  and  C15_23 
REMARK    2  A    between atoms: N1_3  and  C2_5 
REMARK    3  A    between atoms: C5_8  and  N2_9 
REMARK    4  A    between atoms: N2_9  and  C6_11 
REMARK    5  A    between atoms: C6_11  and  N3_13 
REMARK    6  A    between atoms: N3_13  and  C7_15 
REMARK    7  A    between atoms: C19_27  and  C20_28 
ROOT
HETATM    1  C2  UNL     1      62.326   4.305  -3.291  1.00  0.00     0.035 A 
HETATM    2  C3  UNL     1      61.711   3.139  -3.597  1.00  0.00     0.032 A 
HETATM    3  C4  UNL     1      62.219   2.260  -4.572  1.00  0.00     0.032 A 
HETATM    4  C5  UNL     1      63.357   2.548  -5.253  1.00  0.00     0.034 A 
HETATM    5  C13 UNL     1      64.015   3.754  -4.953  1.00  0.00     0.032 A 
HETATM    6  C14 UNL     1      63.501   4.592  -3.999  1.00  0.00     0.032 A 
ENDROOT
BRANCH   1   7
HETATM    7  N1  UNL     1      61.893   5.229  -2.349  1.00  0.00    -0.323 N 
HETATM    8  C1  UNL     1      62.080   5.186  -0.956  1.00  0.00     0.256 C 
HETATM    9  O1  UNL     1      62.686   4.269  -0.341  1.00  0.00    -0.267 OA
ATOM     10  H1  UNL     1      61.378   6.032  -2.709  1.00  0.00     0.169 HD
BRANCH   8  11
HETATM   11  C15 UNL     1      61.567   6.243  -0.073  1.00  0.00     0.033 A 
HETATM   12  C16 UNL     1      60.742   7.245  -0.516  1.00  0.00     0.017 A 
HETATM   13  C17 UNL     1      60.248   8.245   0.336  1.00  0.00     0.002 A 
HETATM   14  C18 UNL     1      60.617   8.198   1.657  1.00  0.00     0.012 A 
HETATM   15  C19 UNL     1      61.447   7.213   2.161  1.00  0.00    -0.025 A 
HETATM   16  C25 UNL     1      61.900   6.258   1.279  1.00  0.00     0.029 A 
BRANCH  15  17
HETATM   17  C20 UNL     1      61.832   7.177   3.573  1.00  0.00    -0.023 A 
HETATM   18  C21 UNL     1      62.617   6.152   4.053  1.00  0.00     0.029 A 
HETATM   19  C22 UNL     1      62.986   6.111   5.378  1.00  0.00     0.088 A 
HETATM   20  N4  UNL     1      62.566   7.091   6.203  1.00  0.00    -0.375 N 
HETATM   21  C23 UNL     1      61.801   8.112   5.793  1.00  0.00     0.088 A 
ATOM     22  H4  UNL     1      62.843   7.053   7.184  1.00  0.00     0.164 HD
HETATM   23  C24 UNL     1      61.434   8.150   4.466  1.00  0.00     0.029 A 
ENDBRANCH  15  17
ENDBRANCH   8  11
ENDBRANCH   1   7
BRANCH   4  24
HETATM   24  N2  UNL     1      63.953   1.779  -6.267  1.00  0.00    -0.333 N 
ATOM     25  H2  UNL     1      64.612   2.262  -6.876  1.00  0.00     0.168 HD
BRANCH  24  26
HETATM   26  C6  UNL     1      63.737   0.404  -6.534  1.00  0.00     0.176 C 
HETATM   27  S1  UNL     1      62.615   0.011  -7.711  1.00  0.00    -0.041 SA
BRANCH  26  28
HETATM   28  N3  UNL     1      64.415  -0.669  -5.932  1.00  0.00    -0.333 N 
ATOM     29  H3  UNL     1      63.840  -1.446  -5.606  1.00  0.00     0.168 HD
BRANCH  28  30
HETATM   30  C7  UNL     1      65.791  -0.785  -5.730  1.00  0.00     0.034 A 
HETATM   31  C8  UNL     1      66.687   0.130  -6.158  1.00  0.00     0.029 A 
HETATM   32  C9  UNL     1      68.052  -0.036  -5.890  1.00  0.00     0.002 A 
HETATM   33  C10 UNL     1      68.482  -1.121  -5.199  1.00  0.00     0.000 A 
HETATM   34  C11 UNL     1      67.573  -2.055  -4.763  1.00  0.00     0.002 A 
HETATM   35  C12 UNL     1      66.251  -1.894  -5.022  1.00  0.00     0.029 A 
ENDBRANCH  28  30
ENDBRANCH  26  28
ENDBRANCH  24  26
ENDBRANCH   4  24
TORSDOF 7
ENDMDL
MODEL 2
REMARK VINA RESULT: -9.987809697      2.862     10.875
REMARK  7 active torsions:
REMARK  status: ('A' for Active; 'I' for Inactive)
REMARK       I    between atoms: C1_2  and  N1_3 
REMARK    1  A    between atoms: C1_2  and  C15_23 
REMARK    2  A    between atoms: N1_3  and  C2_5 
REMARK    3  A    between atoms: C5_8  and  N2_9 
REMARK    4  A    between atoms: N2_9  and  C6_11 
REMARK    5  A    between atoms: C6_11  and  N3_13 
REMARK    6  A    between atoms: N3_13  and  C7_15 
REMARK    7  A    between atoms: C19_27  and  C20_28 
ROOT
HETATM    1  C2  UNL     1      61.840   5.257  -3.276  1.00  0.00     0.035 A 
HETATM    2  C3  UNL     1      61.463   6.537  -3.498  1.00  0.00     0.032 A 
HETATM    3  C4  UNL     1      61.127   7.410  -2.446  1.00  0.00     0.032 A 
HETATM    4  C5  UNL     1      61.168   7.001  -1.153  1.00  0.00     0.034 A 
HETATM    5  C13 UNL     1      61.558   5.674  -0.895  1.00  0.00     0.032 A 
HETATM    6  C14 UNL     1      61.881   4.845  -1.936  1.00  0.00     0.032 A 
ENDROOT
BRANCH   1   7
HETATM    7  N1  UNL     1      62.183   4.330  -4.251  1.00  0.00    -0.323 N 
HETATM    8  C1  UNL     1      61.429   3.227  -4.689  1.00  0.00     0.256 C 
HETATM    9  O1  UNL     1      60.296   2.908  -4.240  1.00  0.00    -0.267 OA
ATOM     10  H1  UNL     1      63.088   4.464  -4.703  1.00  0.00     0.169 HD
BRANCH   8  11
HETATM   11  C15 UNL     1      61.917   2.324  -5.741  1.00  0.00     0.033 A 
HETATM   12  C16 UNL     1      61.125   1.888  -6.772  1.00  0.00     0.017 A 
HETATM   13  C17 UNL     1      61.602   1.034  -7.778  1.00  0.00     0.002 A 
HETATM   14  C18 UNL     1      62.913   0.633  -7.708  1.00  0.00     0.012 A 
HETATM   15  C19 UNL     1      63.759   1.040  -6.692  1.00  0.00    -0.025 A 
HETATM   16  C25 UNL     1      63.236   1.878  -5.733  1.00  0.00     0.029 A 
BRANCH  15  17
HETATM   17  C20 UNL     1      65.155   0.603  -6.631  1.00  0.00    -0.023 A 
HETATM   18  C21 UNL     1      65.461  -0.736  -6.538  1.00  0.00     0.029 A 
HETATM   19  C22 UNL     1      66.770  -1.156  -6.481  1.00  0.00     0.088 A 
HETATM   20  N4  UNL     1      67.753  -0.235  -6.518  1.00  0.00    -0.375 N 
HETATM   21  C23 UNL     1      67.517   1.082  -6.608  1.00  0.00     0.088 A 
ATOM     22  H4  UNL     1      68.721  -0.554  -6.475  1.00  0.00     0.164 HD
HETATM   23  C24 UNL     1      66.204   1.498  -6.665  1.00  0.00     0.029 A 
ENDBRANCH  15  17
ENDBRANCH   8  11
ENDBRANCH   1   7
BRANCH   4  24
HETATM   24  N2  UNL     1      60.831   7.756  -0.017  1.00  0.00    -0.333 N 
ATOM     25  H2  UNL     1      60.438   8.681  -0.186  1.00  0.00     0.168 HD
BRANCH  24  26
HETATM   26  C6  UNL     1      60.977   7.370   1.339  1.00  0.00     0.176 C 
HETATM   27  S1  UNL     1      59.819   6.351   1.984  1.00  0.00    -0.041 SA
BRANCH  26  28
HETATM   28  N3  UNL     1      62.037   7.729   2.188  1.00  0.00    -0.333 N 
ATOM     29  H3  UNL     1      62.821   8.218   1.756  1.00  0.00     0.168 HD
BRANCH  28  30
HETATM   30  C7  UNL     1      62.132   7.490   3.560  1.00  0.00     0.034 A 
HETATM   31  C8  UNL     1      62.797   6.439   4.088  1.00  0.00     0.029 A 
HETATM   32  C9  UNL     1      62.880   6.280   5.478  1.00  0.00     0.002 A 
HETATM   33  C10 UNL     1      62.290   7.183   6.301  1.00  0.00     0.000 A 
HETATM   34  C11 UNL     1      61.612   8.252   5.767  1.00  0.00     0.002 A 
HETATM   35  C12 UNL     1      61.533   8.406   4.421  1.00  0.00     0.029 A 
ENDBRANCH  28  30
ENDBRANCH  26  28
ENDBRANCH  24  26
ENDBRANCH   4  24
TORSDOF 7
ENDMDL
MODEL 3
REMARK VINA RESULT: -9.977742609      0.700      1.081
REMARK  7 active torsions:
REMARK  status: ('A' for Active; 'I' for Inactive)
REMARK       I    between atoms: C1_2  and  N1_3 
REMARK    1  A    between atoms: C1_2  and  C15_23 
REMARK    2  A    between atoms: N1_3  and  C2_5 
REMARK    3  A    between atoms: C5_8  and  N2_9 
REMARK    4  A    between atoms: N2_9  and  C6_11 
REMARK    5  A    between atoms: C6_11  and  N3_13 
REMARK    6  A    between atoms: N3_13  and  C7_15 
REMARK    7  A    between atoms: C19_27  and  C20_28 
ROOT
HETATM    1  C2  UNL     1      62.220   4.179  -3.197  1.00  0.00     0.035 A 
HETATM    2  C3  UNL     1      63.444   4.082  -3.766  1.00  0.00     0.032 A 
HETATM    3  C4  UNL     1      63.760   3.069  -4.691  1.00  0.00     0.032 A 
HETATM    4  C5  UNL     1      62.842   2.138  -5.054  1.00  0.00     0.034 A 
HETATM    5  C13 UNL     1      61.562   2.217  -4.477  1.00  0.00     0.032 A 
HETATM    6  C14 UNL     1      61.279   3.213  -3.580  1.00  0.00     0.032 A 
ENDROOT
BRANCH   1   7
HETATM    7  N1  UNL     1      61.826   5.141  -2.275  1.00  0.00    -0.323 N 
HETATM    8  C1  UNL     1      62.068   5.151  -0.890  1.00  0.00     0.256 C 
HETATM    9  O1  UNL     1      62.696   4.257  -0.265  1.00  0.00    -0.267 OA
ATOM     10  H1  UNL     1      61.300   5.932  -2.646  1.00  0.00     0.169 HD
BRANCH   8  11
HETATM   11  C15 UNL     1      61.592   6.243  -0.030  1.00  0.00     0.033 A 
HETATM   12  C16 UNL     1      60.825   7.278  -0.500  1.00  0.00     0.017 A 
HETATM   13  C17 UNL     1      60.366   8.313   0.331  1.00  0.00     0.002 A 
HETATM   14  C18 UNL     1      60.710   8.266   1.659  1.00  0.00     0.012 A 
HETATM   15  C19 UNL     1      61.482   7.248   2.190  1.00  0.00    -0.025 A 
HETATM   16  C25 UNL     1      61.903   6.261   1.327  1.00  0.00     0.029 A 
BRANCH  15  17
HETATM   17  C20 UNL     1      61.840   7.212   3.609  1.00  0.00    -0.023 A 
HETATM   18  C21 UNL     1      62.613   6.185   4.104  1.00  0.00     0.029 A 
HETATM   19  C22 UNL     1      62.957   6.144   5.436  1.00  0.00     0.088 A 
HETATM   20  N4  UNL     1      62.525   7.126   6.252  1.00  0.00    -0.375 N 
HETATM   21  C23 UNL     1      61.772   8.149   5.827  1.00  0.00     0.088 A 
ATOM     22  H4  UNL     1      62.784   7.088   7.238  1.00  0.00     0.164 HD
HETATM   23  C24 UNL     1      61.429   8.188   4.492  1.00  0.00     0.029 A 
ENDBRANCH  15  17
ENDBRANCH   8  11
ENDBRANCH   1   7
BRANCH   4  24
HETATM   24  N2  UNL     1      63.033   1.062  -5.937  1.00  0.00    -0.333 N 
ATOM     25  H2  UNL     1      62.278   0.379  -5.992  1.00  0.00     0.168 HD
BRANCH  24  26
HETATM   26  C6  UNL     1      64.162   0.823  -6.760  1.00  0.00     0.176 C 
HETATM   27  S1  UNL     1      64.689   2.075  -7.735  1.00  0.00    -0.041 SA
BRANCH  26  28
HETATM   28  N3  UNL     1      64.914  -0.363  -6.802  1.00  0.00    -0.333 N 
ATOM     29  H3  UNL     1      64.563  -1.104  -7.409  1.00  0.00     0.168 HD
BRANCH  28  30
HETATM   30  C7  UNL     1      66.090  -0.636  -6.102  1.00  0.00     0.034 A 
HETATM   31  C8  UNL     1      67.181   0.160  -6.139  1.00  0.00     0.029 A 
HETATM   32  C9  UNL     1      68.317  -0.160  -5.383  1.00  0.00     0.002 A 
HETATM   33  C10 UNL     1      68.326  -1.274  -4.609  1.00  0.00     0.000 A 
HETATM   34  C11 UNL     1      67.219  -2.087  -4.570  1.00  0.00     0.002 A 
HETATM   35  C12 UNL     1      66.118  -1.776  -5.302  1.00  0.00     0.029 A 
ENDBRANCH  28  30
ENDBRANCH  26  28
ENDBRANCH  24  26
ENDBRANCH   4  24
TORSDOF 7
ENDMDL
MODEL 4
REMARK VINA RESULT: -9.971011506      1.472      1.735
REMARK  7 active torsions:
REMARK  status: ('A' for Active; 'I' for Inactive)
REMARK       I    between atoms: C1_2  and  N1_3 
REMARK    1  A    between atoms: C1_2  and  C15_23 
REMARK    2  A    between atoms: N1_3  and  C2_5 
REMARK    3  A    between atoms: C5_8  and  N2_9 
REMARK    4  A    between atoms: N2_9  and  C6_11 
REMARK    5  A    between atoms: C6_11  and  N3_13 
REMARK    6  A    between atoms: N3_13  and  C7_15 
REMARK    7  A    between atoms: C19_27  and  C20_28 
ROOT
HETATM    1  C2  UNL     1      62.645   4.753  -4.749  1.00  0.00     0.035 A 
HETATM    2  C3  UNL     1      61.968   4.300  -5.829  1.00  0.00     0.032 A 
HETATM    3  C4  UNL     1      62.565   3.458  -6.786  1.00  0.00     0.032 A 
HETATM    4  C5  UNL     1      63.856   3.061  -6.665  1.00  0.00     0.034 A 
HETATM    5  C13 UNL     1      64.582   3.517  -5.549  1.00  0.00     0.032 A 
HETATM    6  C14 UNL     1      63.978   4.335  -4.632  1.00  0.00     0.032 A 
ENDROOT
BRANCH   1   7
HETATM    7  N1  UNL     1      62.137   5.587  -3.762  1.00  0.00    -0.323 N 
HETATM    8  C1  UNL     1      62.018   5.317  -2.387  1.00  0.00     0.256 C 
HETATM    9  O1  UNL     1      62.365   4.239  -1.835  1.00  0.00    -0.267 OA
ATOM     10  H1  UNL     1      61.811   6.503  -4.070  1.00  0.00     0.169 HD
BRANCH   8  11
HETATM   11  C15 UNL     1      61.461   6.301  -1.450  1.00  0.00     0.033 A 
HETATM   12  C16 UNL     1      60.532   7.239  -1.823  1.00  0.00     0.017 A 
HETATM   13  C17 UNL     1      59.998   8.170  -0.919  1.00  0.00     0.002 A 
HETATM   14  C18 UNL     1      60.434   8.122   0.382  1.00  0.00     0.012 A 
HETATM   15  C19 UNL     1      61.369   7.199   0.816  1.00  0.00    -0.025 A 
HETATM   16  C25 UNL     1      61.858   6.311  -0.115  1.00  0.00     0.029 A 
BRANCH  15  17
HETATM   17  C20 UNL     1      61.825   7.160   2.207  1.00  0.00    -0.023 A 
HETATM   18  C21 UNL     1      62.914   6.395   2.559  1.00  0.00     0.029 A 
HETATM   19  C22 UNL     1      63.352   6.353   3.864  1.00  0.00     0.088 A 
HETATM   20  N4  UNL     1      62.696   7.074   4.795  1.00  0.00    -0.375 N 
HETATM   21  C23 UNL     1      61.631   7.837   4.511  1.00  0.00     0.088 A 
ATOM     22  H4  UNL     1      63.026   7.038   5.759  1.00  0.00     0.164 HD
HETATM   23  C24 UNL     1      61.196   7.876   3.204  1.00  0.00     0.029 A 
ENDBRANCH  15  17
ENDBRANCH   8  11
ENDBRANCH   1   7
BRANCH   4  24
HETATM   24  N2  UNL     1      64.579   2.252  -7.558  1.00  0.00    -0.333 N 
ATOM     25  H2  UNL     1      64.619   2.567  -8.527  1.00  0.00     0.168 HD
BRANCH  24  26
HETATM   26  C6  UNL     1      65.260   1.046  -7.258  1.00  0.00     0.176 C 
HETATM   27  S1  UNL     1      64.349  -0.237  -6.691  1.00  0.00    -0.041 SA
BRANCH  26  28
HETATM   28  N3  UNL     1      66.633   0.809  -7.436  1.00  0.00    -0.333 N 
ATOM     29  H3  UNL     1      67.123   1.430  -8.079  1.00  0.00     0.168 HD
BRANCH  28  30
HETATM   30  C7  UNL     1      67.399  -0.186  -6.825  1.00  0.00     0.034 A 
HETATM   31  C8  UNL     1      67.757  -0.156  -5.523  1.00  0.00     0.029 A 
HETATM   32  C9  UNL     1      68.499  -1.208  -4.969  1.00  0.00     0.002 A 
HETATM   33  C10 UNL     1      68.864  -2.262  -5.740  1.00  0.00     0.000 A 
HETATM   34  C11 UNL     1      68.503  -2.295  -7.066  1.00  0.00     0.002 A 
HETATM   35  C12 UNL     1      67.783  -1.276  -7.602  1.00  0.00     0.029 A 
ENDBRANCH  28  30
ENDBRANCH  26  28
ENDBRANCH  24  26
ENDBRANCH   4  24
TORSDOF 7
ENDMDL
MODEL 5
REMARK VINA RESULT: -9.916213935      2.920     10.884
REMARK  7 active torsions:
REMARK  status: ('A' for Active; 'I' for Inactive)
REMARK       I    between atoms: C1_2  and  N1_3 
REMARK    1  A    between atoms: C1_2  and  C15_23 
REMARK    2  A    between atoms: N1_3  and  C2_5 
REMARK    3  A    between atoms: C5_8  and  N2_9 
REMARK    4  A    between atoms: N2_9  and  C6_11 
REMARK    5  A    between atoms: C6_11  and  N3_13 
REMARK    6  A    between atoms: N3_13  and  C7_15 
REMARK    7  A    between atoms: C19_27  and  C20_28 
ROOT
HETATM    1  C2  UNL     1      62.215   5.416  -3.822  1.00  0.00     0.035 A 
HETATM    2  C3  UNL     1      61.975   6.742  -3.936  1.00  0.00     0.032 A 
HETATM    3  C4  UNL     1      61.425   7.495  -2.882  1.00  0.00     0.032 A 
HETATM    4  C5  UNL     1      61.108   6.917  -1.696  1.00  0.00     0.034 A 
HETATM    5  C13 UNL     1      61.348   5.538  -1.552  1.00  0.00     0.032 A 
HETATM    6  C14 UNL     1      61.885   4.828  -2.592  1.00  0.00     0.032 A 
ENDROOT
BRANCH   1   7
HETATM    7  N1  UNL     1      62.750   4.599  -4.810  1.00  0.00    -0.323 N 
HETATM    8  C1  UNL     1      64.047   4.059  -4.866  1.00  0.00     0.256 C 
HETATM    9  O1  UNL     1      64.942   4.249  -4.001  1.00  0.00    -0.267 OA
ATOM     10  H1  UNL     1      62.130   4.363  -5.584  1.00  0.00     0.169 HD
BRANCH   8  11
HETATM   11  C15 UNL     1      64.480   3.200  -5.978  1.00  0.00     0.033 A 
HETATM   12  C16 UNL     1      64.086   3.410  -7.275  1.00  0.00     0.017 A 
HETATM   13  C17 UNL     1      64.512   2.590  -8.332  1.00  0.00     0.002 A 
HETATM   14  C18 UNL     1      65.353   1.547  -8.034  1.00  0.00     0.012 A 
HETATM   15  C19 UNL     1      65.783   1.287  -6.745  1.00  0.00    -0.025 A 
HETATM   16  C25 UNL     1      65.333   2.124  -5.749  1.00  0.00     0.029 A 
BRANCH  15  17
HETATM   17  C20 UNL     1      66.680   0.170  -6.442  1.00  0.00    -0.023 A 
HETATM   18  C21 UNL     1      67.936   0.407  -5.930  1.00  0.00     0.029 A 
HETATM   19  C22 UNL     1      68.785  -0.637  -5.640  1.00  0.00     0.088 A 
HETATM   20  N4  UNL     1      68.370  -1.898  -5.868  1.00  0.00    -0.375 N 
HETATM   21  C23 UNL     1      67.160  -2.190  -6.365  1.00  0.00     0.088 A 
ATOM     22  H4  UNL     1      69.005  -2.667  -5.651  1.00  0.00     0.164 HD
HETATM   23  C24 UNL     1      66.311  -1.142  -6.653  1.00  0.00     0.029 A 
ENDBRANCH  15  17
ENDBRANCH   8  11
ENDBRANCH   1   7
BRANCH   4  24
HETATM   24  N2  UNL     1      60.528   7.542  -0.579  1.00  0.00    -0.333 N 
ATOM     25  H2  UNL     1      59.856   8.285  -0.772  1.00  0.00     0.168 HD
BRANCH  24  26
HETATM   26  C6  UNL     1      60.774   7.252   0.786  1.00  0.00     0.176 C 
HETATM   27  S1  UNL     1      59.704   6.229   1.565  1.00  0.00    -0.041 SA
BRANCH  26  28
HETATM   28  N3  UNL     1      61.866   7.710   1.541  1.00  0.00    -0.333 N 
ATOM     29  H3  UNL     1      62.593   8.212   1.033  1.00  0.00     0.168 HD
BRANCH  28  30
HETATM   30  C7  UNL     1      62.062   7.551   2.914  1.00  0.00     0.034 A 
HETATM   31  C8  UNL     1      61.428   8.293   3.848  1.00  0.00     0.029 A 
HETATM   32  C9  UNL     1      61.649   8.055   5.211  1.00  0.00     0.002 A 
HETATM   33  C10 UNL     1      62.505   7.076   5.600  1.00  0.00     0.000 A 
HETATM   34  C11 UNL     1      63.153   6.321   4.652  1.00  0.00     0.002 A 
HETATM   35  C12 UNL     1      62.937   6.551   3.332  1.00  0.00     0.029 A 
ENDBRANCH  28  30
ENDBRANCH  26  28
ENDBRANCH  24  26
ENDBRANCH   4  24
TORSDOF 7
ENDMDL
