MODEL 1
REMARK VINA RESULT: -10.615804113      0.000      0.000
REMARK  5 active torsions:
REMARK  status: ('A' for Active; 'I' for Inactive)
REMARK    1  A    between atoms: C1_4  and  C2_6 
REMARK    2  A    between atoms: C5_9  and  C6_10 
REMARK    3  A    between atoms: C9_13  and  C10_14 
REMARK    4  A    between atoms: C15_23  and  N5_24 
REMARK    5  A    between atoms: N5_24  and  C16_26 
ROOT
HETATM    1  C10 UNL     1      61.396   4.533  -4.105  1.00  0.00    -0.025 A 
HETATM    2  C11 UNL     1      60.435   5.000  -4.985  1.00  0.00     0.014 A 
HETATM    3  C12 UNL     1      60.370   4.456  -6.266  1.00  0.00     0.031 A 
HETATM    4  C13 UNL     1      61.248   3.465  -6.658  1.00  0.00     0.047 A 
HETATM    5  N3  UNL     1      61.186   2.940  -7.890  1.00  0.00    -0.352 N 
ATOM      6  H3  UNL     1      60.487   3.267  -8.558  1.00  0.00     0.166 HD
HETATM    7  C14 UNL     1      62.063   1.971  -8.234  1.00  0.00     0.182 A 
HETATM    8  N4  UNL     1      63.005   1.499  -7.401  1.00  0.00    -0.338 N 
ATOM      9  H4  UNL     1      63.648   0.767  -7.700  1.00  0.00     0.168 HD
HETATM   10  C15 UNL     1      63.079   2.016  -6.161  1.00  0.00     0.119 A 
HETATM   11  C22 UNL     1      62.201   3.012  -5.764  1.00  0.00     0.035 A 
HETATM   12  C23 UNL     1      62.282   3.544  -4.476  1.00  0.00     0.029 A 
ENDROOT
BRANCH   1  13
HETATM   13  C9  UNL     1      61.504   5.070  -2.741  1.00  0.00    -0.026 A 
HETATM   14  C8  UNL     1      61.033   6.337  -2.433  1.00  0.00     0.013 A 
HETATM   15  C7  UNL     1      61.137   6.844  -1.146  1.00  0.00     0.013 A 
HETATM   16  C6  UNL     1      61.707   6.118  -0.121  1.00  0.00    -0.026 A 
HETATM   17  C25 UNL     1      62.176   4.854  -0.428  1.00  0.00     0.013 A 
HETATM   18  C24 UNL     1      62.073   4.345  -1.718  1.00  0.00     0.013 A 
BRANCH  16  19
HETATM   19  C5  UNL     1      61.813   6.657   1.230  1.00  0.00    -0.026 A 
HETATM   20  C4  UNL     1      61.181   7.778   1.663  1.00  0.00     0.013 A 
HETATM   21  C3  UNL     1      61.359   8.199   2.979  1.00  0.00     0.015 A 
HETATM   22  C2  UNL     1      62.152   7.516   3.859  1.00  0.00     0.004 A 
HETATM   23  C27 UNL     1      62.795   6.373   3.420  1.00  0.00     0.015 A 
HETATM   24  C26 UNL     1      62.622   5.964   2.138  1.00  0.00     0.013 A 
BRANCH  22  25
HETATM   25  C1  UNL     1      62.353   7.946   5.264  1.00  0.00     0.120 C 
HETATM   26  N1  UNL     1      62.930   9.026   5.599  1.00  0.00    -0.387 N 
ATOM     27  H12 UNL     1      63.069   9.321   6.565  1.00  0.00     0.157 HD
ATOM     28  H11 UNL     1      63.271   9.625   4.847  1.00  0.00     0.157 HD
HETATM   29  N2  UNL     1      61.878   7.109   6.313  1.00  0.00    -0.082 NA
ENDBRANCH  22  25
ENDBRANCH  16  19
ENDBRANCH   1  13
BRANCH  10  30
HETATM   30  N5  UNL     1      63.954   1.614  -5.302  1.00  0.00    -0.342 N 
ATOM     31  H5  UNL     1      63.822   1.779  -4.305  1.00  0.00     0.167 HD
BRANCH  30  32
HETATM   32  C16 UNL     1      65.120   0.928  -5.788  1.00  0.00     0.033 A 
HETATM   33  C17 UNL     1      65.166  -0.444  -5.828  1.00  0.00     0.029 A 
HETATM   34  C18 UNL     1      66.289  -1.079  -6.297  1.00  0.00     0.002 A 
HETATM   35  C19 UNL     1      67.389  -0.376  -6.736  1.00  0.00     0.000 A 
HETATM   36  C20 UNL     1      67.336   1.000  -6.693  1.00  0.00     0.002 A 
HETATM   37  C21 UNL     1      66.217   1.631  -6.227  1.00  0.00     0.029 A 
ENDBRANCH  30  32
ENDBRANCH  10  30
TORSDOF 5
ENDMDL
MODEL 2
REMARK VINA RESULT: -10.596882687      0.028      1.180
REMARK  5 active torsions:
REMARK  status: ('A' for Active; 'I' for Inactive)
REMARK    1  A    between atoms: C1_4  and  C2_6 
REMARK    2  A    between atoms: C5_9  and  C6_10 
REMARK    3  A    between atoms: C9_13  and  C10_14 
REMARK    4  A    between atoms: C15_23  and  N5_24 
REMARK    5  A    between atoms: N5_24  and  C16_26 
ROOT
HETATM    1  C10 UNL     1      61.401   4.545  -4.124  1.00  0.00    -0.025 A 
HETATM    2  C11 UNL     1      60.441   5.004  -5.009  1.00  0.00     0.014 A 
HETATM    3  C12 UNL     1      60.380   4.452  -6.287  1.00  0.00     0.031 A 
HETATM    4  C13 UNL     1      61.263   3.461  -6.671  1.00  0.00     0.047 A 
HETATM    5  N3  UNL     1      61.205   2.929  -7.900  1.00  0.00    -0.352 N 
ATOM      6  H3  UNL     1      60.507   3.250  -8.572  1.00  0.00     0.166 HD
HETATM    7  C14 UNL     1      62.086   1.961  -8.237  1.00  0.00     0.182 A 
HETATM    8  N4  UNL     1      63.027   1.497  -7.398  1.00  0.00    -0.338 N 
ATOM      9  H4  UNL     1      63.674   0.765  -7.692  1.00  0.00     0.168 HD
HETATM   10  C15 UNL     1      63.097   2.022  -6.161  1.00  0.00     0.119 A 
HETATM   11  C22 UNL     1      62.215   3.017  -5.773  1.00  0.00     0.035 A 
HETATM   12  C23 UNL     1      62.291   3.557  -4.487  1.00  0.00     0.029 A 
ENDROOT
BRANCH   1  13
HETATM   13  C9  UNL     1      61.503   5.090  -2.763  1.00  0.00    -0.026 A 
HETATM   14  C8  UNL     1      62.050   4.340  -1.733  1.00  0.00     0.013 A 
HETATM   15  C7  UNL     1      62.145   4.855  -0.448  1.00  0.00     0.013 A 
HETATM   16  C6  UNL     1      61.706   6.126  -0.138  1.00  0.00    -0.026 A 
HETATM   17  C25 UNL     1      61.161   6.873  -1.165  1.00  0.00     0.013 A 
HETATM   18  C24 UNL     1      61.064   6.358  -2.453  1.00  0.00     0.013 A 
BRANCH  16  19
HETATM   19  C5  UNL     1      61.809   6.660   1.215  1.00  0.00    -0.026 A 
HETATM   20  C4  UNL     1      61.163   7.771   1.655  1.00  0.00     0.013 A 
HETATM   21  C3  UNL     1      61.340   8.189   2.972  1.00  0.00     0.015 A 
HETATM   22  C2  UNL     1      62.145   7.514   3.846  1.00  0.00     0.004 A 
HETATM   23  C27 UNL     1      62.803   6.382   3.400  1.00  0.00     0.015 A 
HETATM   24  C26 UNL     1      62.632   5.975   2.117  1.00  0.00     0.013 A 
BRANCH  22  25
HETATM   25  C1  UNL     1      62.346   7.940   5.252  1.00  0.00     0.120 C 
HETATM   26  N1  UNL     1      62.923   9.019   5.591  1.00  0.00    -0.387 N 
ATOM     27  H12 UNL     1      63.061   9.312   6.557  1.00  0.00     0.157 HD
ATOM     28  H11 UNL     1      63.266   9.619   4.840  1.00  0.00     0.157 HD
HETATM   29  N2  UNL     1      61.869   7.102   6.299  1.00  0.00    -0.082 NA
ENDBRANCH  22  25
ENDBRANCH  16  19
ENDBRANCH   1  13
BRANCH  10  30
HETATM   30  N5  UNL     1      63.971   1.627  -5.298  1.00  0.00    -0.342 N 
ATOM     31  H5  UNL     1      63.833   1.792  -4.301  1.00  0.00     0.167 HD
BRANCH  30  32
HETATM   32  C16 UNL     1      65.145   0.950  -5.778  1.00  0.00     0.033 A 
HETATM   33  C17 UNL     1      66.239   1.656  -6.214  1.00  0.00     0.029 A 
HETATM   34  C18 UNL     1      67.350   0.990  -6.666  1.00  0.00     0.002 A 
HETATM   35  C19 UNL     1      67.406  -0.386  -6.698  1.00  0.00     0.000 A 
HETATM   36  C20 UNL     1      66.305  -1.088  -6.259  1.00  0.00     0.002 A 
HETATM   37  C21 UNL     1      65.200  -0.423  -5.809  1.00  0.00     0.029 A 
ENDBRANCH  30  32
ENDBRANCH  10  30
TORSDOF 5
ENDMDL
MODEL 3
REMARK VINA RESULT: -9.893149331      0.514      1.120
REMARK  5 active torsions:
REMARK  status: ('A' for Active; 'I' for Inactive)
REMARK    1  A    between atoms: C1_4  and  C2_6 
REMARK    2  A    between atoms: C5_9  and  C6_10 
REMARK    3  A    between atoms: C9_13  and  C10_14 
REMARK    4  A    between atoms: C15_23  and  N5_24 
REMARK    5  A    between atoms: N5_24  and  C16_26 
ROOT
HETATM    1  C10 UNL     1      61.376   4.800  -3.988  1.00  0.00    -0.025 A 
HETATM    2  C11 UNL     1      60.630   5.486  -4.930  1.00  0.00     0.014 A 
HETATM    3  C12 UNL     1      60.531   4.970  -6.221  1.00  0.00     0.031 A 
HETATM    4  C13 UNL     1      61.167   3.791  -6.560  1.00  0.00     0.047 A 
HETATM    5  N3  UNL     1      61.073   3.293  -7.802  1.00  0.00    -0.352 N 
ATOM      6  H3  UNL     1      60.529   3.780  -8.515  1.00  0.00     0.166 HD
HETATM    7  C14 UNL     1      61.709   2.137  -8.094  1.00  0.00     0.182 A 
HETATM    8  N4  UNL     1      62.439   1.451  -7.198  1.00  0.00    -0.338 N 
ATOM      9  H4  UNL     1      62.904   0.582  -7.460  1.00  0.00     0.168 HD
HETATM   10  C15 UNL     1      62.542   1.939  -5.949  1.00  0.00     0.119 A 
HETATM   11  C22 UNL     1      61.908   3.122  -5.605  1.00  0.00     0.035 A 
HETATM   12  C23 UNL     1      62.018   3.623  -4.306  1.00  0.00     0.029 A 
ENDROOT
BRANCH   1  13
HETATM   13  C9  UNL     1      61.507   5.299  -2.611  1.00  0.00    -0.026 A 
HETATM   14  C8  UNL     1      61.040   6.556  -2.260  1.00  0.00     0.013 A 
HETATM   15  C7  UNL     1      61.166   7.027  -0.961  1.00  0.00     0.013 A 
HETATM   16  C6  UNL     1      61.755   6.274   0.033  1.00  0.00    -0.026 A 
HETATM   17  C25 UNL     1      62.221   5.020  -0.318  1.00  0.00     0.013 A 
HETATM   18  C24 UNL     1      62.096   4.547  -1.619  1.00  0.00     0.013 A 
BRANCH  16  19
HETATM   19  C5  UNL     1      61.884   6.775   1.396  1.00  0.00    -0.026 A 
HETATM   20  C4  UNL     1      61.090   7.732   1.943  1.00  0.00     0.013 A 
HETATM   21  C3  UNL     1      61.309   8.133   3.259  1.00  0.00     0.015 A 
HETATM   22  C2  UNL     1      62.302   7.593   4.027  1.00  0.00     0.004 A 
HETATM   23  C27 UNL     1      63.111   6.618   3.472  1.00  0.00     0.015 A 
HETATM   24  C26 UNL     1      62.898   6.227   2.190  1.00  0.00     0.013 A 
BRANCH  22  25
HETATM   25  C1  UNL     1      62.551   8.004   5.430  1.00  0.00     0.120 C 
HETATM   26  N1  UNL     1      61.936   7.522   6.431  1.00  0.00    -0.387 N 
ATOM     27  H12 UNL     1      62.107   7.805   7.395  1.00  0.00     0.157 HD
ATOM     28  H11 UNL     1      61.231   6.809   6.244  1.00  0.00     0.157 HD
HETATM   29  N2  UNL     1      63.535   9.000   5.689  1.00  0.00    -0.082 NA
ENDBRANCH  22  25
ENDBRANCH  16  19
ENDBRANCH   1  13
BRANCH  10  30
HETATM   30  N5  UNL     1      63.223   1.337  -5.033  1.00  0.00    -0.342 N 
ATOM     31  H5  UNL     1      62.896   1.317  -4.067  1.00  0.00     0.167 HD
BRANCH  30  32
HETATM   32  C16 UNL     1      64.454   0.696  -5.409  1.00  0.00     0.033 A 
HETATM   33  C17 UNL     1      65.408   1.369  -6.132  1.00  0.00     0.029 A 
HETATM   34  C18 UNL     1      66.576   0.739  -6.479  1.00  0.00     0.002 A 
HETATM   35  C19 UNL     1      66.830  -0.567  -6.121  1.00  0.00     0.000 A 
HETATM   36  C20 UNL     1      65.868  -1.236  -5.396  1.00  0.00     0.002 A 
HETATM   37  C21 UNL     1      64.705  -0.607  -5.050  1.00  0.00     0.029 A 
ENDBRANCH  30  32
ENDBRANCH  10  30
TORSDOF 5
ENDMDL
MODEL 4
REMARK VINA RESULT: -9.682129553      1.044      1.685
REMARK  5 active torsions:
REMARK  status: ('A' for Active; 'I' for Inactive)
REMARK    1  A    between atoms: C1_4  and  C2_6 
REMARK    2  A    between atoms: C5_9  and  C6_10 
REMARK    3  A    between atoms: C9_13  and  C10_14 
REMARK    4  A    between atoms: C15_23  and  N5_24 
REMARK    5  A    between atoms: N5_24  and  C16_26 
ROOT
HETATM    1  C10 UNL     1      61.456   3.750  -4.985  1.00  0.00    -0.025 A 
HETATM    2  C11 UNL     1      60.688   4.290  -6.001  1.00  0.00     0.014 A 
HETATM    3  C12 UNL     1      60.631   3.632  -7.228  1.00  0.00     0.031 A 
HETATM    4  C13 UNL     1      61.329   2.458  -7.433  1.00  0.00     0.047 A 
HETATM    5  N3  UNL     1      61.275   1.824  -8.613  1.00  0.00    -0.352 N 
ATOM      6  H3  UNL     1      60.716   2.202  -9.379  1.00  0.00     0.166 HD
HETATM    7  C14 UNL     1      61.972   0.678  -8.773  1.00  0.00     0.182 A 
HETATM    8  N4  UNL     1      62.726   0.132  -7.804  1.00  0.00    -0.338 N 
ATOM      9  H4  UNL     1      63.237  -0.736  -7.967  1.00  0.00     0.168 HD
HETATM   10  C15 UNL     1      62.790   0.757  -6.615  1.00  0.00     0.119 A 
HETATM   11  C22 UNL     1      62.092   1.936  -6.406  1.00  0.00     0.035 A 
HETATM   12  C23 UNL     1      62.161   2.580  -5.168  1.00  0.00     0.029 A 
ENDROOT
BRANCH   1  13
HETATM   13  C9  UNL     1      61.546   4.402  -3.670  1.00  0.00    -0.026 A 
HETATM   14  C8  UNL     1      62.270   3.828  -2.637  1.00  0.00     0.013 A 
HETATM   15  C7  UNL     1      62.352   4.443  -1.396  1.00  0.00     0.013 A 
HETATM   16  C6  UNL     1      61.726   5.644  -1.134  1.00  0.00    -0.026 A 
HETATM   17  C25 UNL     1      61.004   6.216  -2.166  1.00  0.00     0.013 A 
HETATM   18  C24 UNL     1      60.920   5.601  -3.409  1.00  0.00     0.013 A 
BRANCH  16  19
HETATM   19  C5  UNL     1      61.817   6.285   0.172  1.00  0.00    -0.026 A 
HETATM   20  C4  UNL     1      61.845   7.628   0.370  1.00  0.00     0.013 A 
HETATM   21  C3  UNL     1      61.935   8.126   1.668  1.00  0.00     0.015 A 
HETATM   22  C2  UNL     1      61.995   7.305   2.759  1.00  0.00     0.004 A 
HETATM   23  C27 UNL     1      61.965   5.937   2.559  1.00  0.00     0.015 A 
HETATM   24  C26 UNL     1      61.878   5.451   1.295  1.00  0.00     0.013 A 
BRANCH  22  25
HETATM   25  C1  UNL     1      62.090   7.815   4.148  1.00  0.00     0.120 C 
HETATM   26  N1  UNL     1      63.129   7.716   4.871  1.00  0.00    -0.387 N 
ATOM     27  H12 UNL     1      63.194   8.066   5.826  1.00  0.00     0.157 HD
ATOM     28  H11 UNL     1      63.940   7.255   4.459  1.00  0.00     0.157 HD
HETATM   29  N2  UNL     1      60.957   8.457   4.723  1.00  0.00    -0.082 NA
ENDBRANCH  22  25
ENDBRANCH  16  19
ENDBRANCH   1  13
BRANCH  10  30
HETATM   30  N5  UNL     1      63.490   0.295  -5.635  1.00  0.00    -0.342 N 
ATOM     31  H5  UNL     1      63.047   0.035  -4.753  1.00  0.00     0.167 HD
BRANCH  30  32
HETATM   32  C16 UNL     1      64.909   0.154  -5.817  1.00  0.00     0.033 A 
HETATM   33  C17 UNL     1      65.664   1.193  -6.304  1.00  0.00     0.029 A 
HETATM   34  C18 UNL     1      67.017   1.039  -6.469  1.00  0.00     0.002 A 
HETATM   35  C19 UNL     1      67.655  -0.142  -6.157  1.00  0.00     0.000 A 
HETATM   36  C20 UNL     1      66.892  -1.179  -5.670  1.00  0.00     0.002 A 
HETATM   37  C21 UNL     1      65.544  -1.024  -5.505  1.00  0.00     0.029 A 
ENDBRANCH  30  32
ENDBRANCH  10  30
TORSDOF 5
ENDMDL
MODEL 5
REMARK VINA RESULT: -9.048303931      1.146      1.417
REMARK  5 active torsions:
REMARK  status: ('A' for Active; 'I' for Inactive)
REMARK    1  A    between atoms: C1_4  and  C2_6 
REMARK    2  A    between atoms: C5_9  and  C6_10 
REMARK    3  A    between atoms: C9_13  and  C10_14 
REMARK    4  A    between atoms: C15_23  and  N5_24 
REMARK    5  A    between atoms: N5_24  and  C16_26 
ROOT
HETATM    1  C10 UNL     1      61.472   3.355  -4.850  1.00  0.00    -0.025 A 
HETATM    2  C11 UNL     1      60.648   3.837  -5.852  1.00  0.00     0.014 A 
HETATM    3  C12 UNL     1      60.609   3.170  -7.075  1.00  0.00     0.031 A 
HETATM    4  C13 UNL     1      61.381   2.045  -7.290  1.00  0.00     0.047 A 
HETATM    5  N3  UNL     1      61.344   1.402  -8.466  1.00  0.00    -0.352 N 
ATOM      6  H3  UNL     1      60.745   1.737  -9.221  1.00  0.00     0.166 HD
HETATM    7  C14 UNL     1      62.114   0.304  -8.637  1.00  0.00     0.182 A 
HETATM    8  N4  UNL     1      62.922  -0.185  -7.682  1.00  0.00    -0.338 N 
ATOM      9  H4  UNL     1      63.487  -1.017  -7.851  1.00  0.00     0.168 HD
HETATM   10  C15 UNL     1      62.969   0.450  -6.496  1.00  0.00     0.119 A 
HETATM   11  C22 UNL     1      62.198   1.580  -6.277  1.00  0.00     0.035 A 
HETATM   12  C23 UNL     1      62.250   2.234  -5.044  1.00  0.00     0.029 A 
ENDROOT
BRANCH   1  13
HETATM   13  C9  UNL     1      61.545   4.019  -3.541  1.00  0.00    -0.026 A 
HETATM   14  C8  UNL     1      60.859   5.198  -3.299  1.00  0.00     0.013 A 
HETATM   15  C7  UNL     1      60.930   5.825  -2.063  1.00  0.00     0.013 A 
HETATM   16  C6  UNL     1      61.679   5.308  -1.026  1.00  0.00    -0.026 A 
HETATM   17  C25 UNL     1      62.364   4.132  -1.268  1.00  0.00     0.013 A 
HETATM   18  C24 UNL     1      62.294   3.503  -2.506  1.00  0.00     0.013 A 
BRANCH  16  19
HETATM   19  C5  UNL     1      61.749   5.972   0.271  1.00  0.00    -0.026 A 
HETATM   20  C4  UNL     1      61.936   7.306   0.443  1.00  0.00     0.013 A 
HETATM   21  C3  UNL     1      61.987   7.829   1.733  1.00  0.00     0.015 A 
HETATM   22  C2  UNL     1      61.854   7.040   2.842  1.00  0.00     0.004 A 
HETATM   23  C27 UNL     1      61.663   5.682   2.668  1.00  0.00     0.015 A 
HETATM   24  C26 UNL     1      61.614   5.172   1.411  1.00  0.00     0.013 A 
BRANCH  22  25
HETATM   25  C1  UNL     1      61.904   7.576   4.224  1.00  0.00     0.120 C 
HETATM   26  N1  UNL     1      62.762   7.224   5.091  1.00  0.00    -0.387 N 
ATOM     27  H12 UNL     1      62.796   7.592   6.041  1.00  0.00     0.157 HD
ATOM     28  H11 UNL     1      63.452   6.529   4.806  1.00  0.00     0.157 HD
HETATM   29  N2  UNL     1      60.940   8.546   4.620  1.00  0.00    -0.082 NA
ENDBRANCH  22  25
ENDBRANCH  16  19
ENDBRANCH   1  13
BRANCH  10  30
HETATM   30  N5  UNL     1      63.719   0.040  -5.530  1.00  0.00    -0.342 N 
ATOM     31  H5  UNL     1      63.321  -0.180  -4.617  1.00  0.00     0.167 HD
BRANCH  30  32
HETATM   32  C16 UNL     1      65.129  -0.097  -5.772  1.00  0.00     0.033 A 
HETATM   33  C17 UNL     1      65.821  -1.190  -5.311  1.00  0.00     0.029 A 
HETATM   34  C18 UNL     1      67.167  -1.303  -5.555  1.00  0.00     0.002 A 
HETATM   35  C19 UNL     1      67.859  -0.342  -6.257  1.00  0.00     0.000 A 
HETATM   36  C20 UNL     1      67.158   0.752  -6.716  1.00  0.00     0.002 A 
HETATM   37  C21 UNL     1      65.818   0.863  -6.474  1.00  0.00     0.029 A 
ENDBRANCH  30  32
ENDBRANCH  10  30
TORSDOF 5
ENDMDL
