MODEL 1
REMARK VINA RESULT: -11.667148797      0.000      0.000
REMARK  5 active torsions:
REMARK  status: ('A' for Active; 'I' for Inactive)
REMARK       I    between atoms: C1_2  and  N1_3 
REMARK       I    between atoms: C1_2  and  N2_17 
REMARK    1  A    between atoms: N1_3  and  C2_5 
REMARK    2  A    between atoms: C5_8  and  C6_9 
REMARK    3  A    between atoms: N2_17  and  C14_19 
REMARK    4  A    between atoms: C18_23  and  N3_24 
REMARK       I    between atoms: N3_24  and  C19_26 
REMARK    5  A    between atoms: C19_26  and  C20_28 
ROOT
HETATM    1  O1  UNL     1      62.234   3.534  -4.086  1.00  0.00    -0.247 OA
HETATM    2  C1  UNL     1      61.616   4.362  -4.792  1.00  0.00     0.325 C 
HETATM    3  N1  UNL     1      61.148   5.593  -4.274  1.00  0.00    -0.309 N 
ATOM      4  H1  UNL     1      60.647   6.210  -4.914  1.00  0.00     0.170 HD
HETATM    5  N2  UNL     1      61.362   4.082  -6.153  1.00  0.00    -0.309 N 
ATOM      6  H2  UNL     1      60.861   4.792  -6.688  1.00  0.00     0.170 HD
ENDROOT
BRANCH   5   7
HETATM    7  C14 UNL     1      61.737   2.911  -6.839  1.00  0.00     0.038 A 
HETATM    8  C15 UNL     1      60.909   2.298  -7.734  1.00  0.00     0.029 A 
HETATM    9  C16 UNL     1      61.302   1.119  -8.385  1.00  0.00     0.004 A 
HETATM   10  C17 UNL     1      62.537   0.580  -8.115  1.00  0.00     0.029 A 
HETATM   11  C18 UNL     1      63.412   1.178  -7.208  1.00  0.00     0.037 A 
HETATM   12  C25 UNL     1      62.986   2.352  -6.577  1.00  0.00     0.059 A 
BRANCH  11  13
HETATM   13  N3  UNL     1      64.694   0.700  -6.905  1.00  0.00    -0.323 N 
HETATM   14  C19 UNL     1      64.971  -0.386  -6.086  1.00  0.00     0.257 C 
HETATM   15  O2  UNL     1      64.048  -1.043  -5.550  1.00  0.00    -0.267 OA
ATOM     16  H3  UNL     1      65.487   1.190  -7.319  1.00  0.00     0.169 HD
BRANCH  14  17
HETATM   17  C20 UNL     1      66.362  -0.829  -5.800  1.00  0.00     0.047 A 
HETATM   18  C21 UNL     1      66.654  -2.033  -5.212  1.00  0.00     0.020 A 
HETATM   19  C22 UNL     1      67.979  -2.406  -4.959  1.00  0.00     0.018 A 
HETATM   20  C23 UNL     1      69.011  -1.564  -5.299  1.00  0.00     0.087 A 
HETATM   21  N4  UNL     1      68.697  -0.392  -5.874  1.00  0.00    -0.374 N 
HETATM   22  C24 UNL     1      67.426  -0.016  -6.125  1.00  0.00     0.104 A 
ATOM     23  H4  UNL     1      69.453   0.243  -6.132  1.00  0.00     0.164 HD
ENDBRANCH  14  17
ENDBRANCH  11  13
ENDBRANCH   5   7
BRANCH   3  24
HETATM   24  C2  UNL     1      61.315   6.037  -2.954  1.00  0.00     0.036 A 
HETATM   25  C3  UNL     1      61.391   5.054  -1.952  1.00  0.00     0.030 A 
HETATM   26  C4  UNL     1      61.537   5.406  -0.639  1.00  0.00     0.014 A 
HETATM   27  C5  UNL     1      61.618   6.711  -0.209  1.00  0.00    -0.026 A 
HETATM   28  C12 UNL     1      61.544   7.672  -1.181  1.00  0.00     0.014 A 
HETATM   29  C13 UNL     1      61.395   7.342  -2.534  1.00  0.00     0.030 A 
BRANCH  27  30
HETATM   30  C6  UNL     1      61.773   7.017   1.198  1.00  0.00    -0.026 A 
HETATM   31  C7  UNL     1      62.713   6.333   1.923  1.00  0.00     0.012 A 
HETATM   32  C8  UNL     1      62.882   6.600   3.251  1.00  0.00     0.001 A 
HETATM   33  C9  UNL     1      62.133   7.549   3.904  1.00  0.00     0.000 A 
HETATM   34  C10 UNL     1      61.190   8.234   3.164  1.00  0.00     0.001 A 
HETATM   35  C11 UNL     1      61.005   7.970   1.805  1.00  0.00     0.012 A 
ENDBRANCH  27  30
ENDBRANCH   3  24
TORSDOF 5
ENDMDL
MODEL 2
REMARK VINA RESULT: -11.574745545      1.638      2.853
REMARK  5 active torsions:
REMARK  status: ('A' for Active; 'I' for Inactive)
REMARK       I    between atoms: C1_2  and  N1_3 
REMARK       I    between atoms: C1_2  and  N2_17 
REMARK    1  A    between atoms: N1_3  and  C2_5 
REMARK    2  A    between atoms: C5_8  and  C6_9 
REMARK    3  A    between atoms: N2_17  and  C14_19 
REMARK    4  A    between atoms: C18_23  and  N3_24 
REMARK       I    between atoms: N3_24  and  C19_26 
REMARK    5  A    between atoms: C19_26  and  C20_28 
ROOT
HETATM    1  O1  UNL     1      61.825   4.489  -2.282  1.00  0.00    -0.247 OA
HETATM    2  C1  UNL     1      61.621   5.640  -2.731  1.00  0.00     0.325 C 
HETATM    3  N1  UNL     1      61.500   6.767  -1.884  1.00  0.00    -0.309 N 
ATOM      4  H1  UNL     1      61.328   7.669  -2.329  1.00  0.00     0.170 HD
HETATM    5  N2  UNL     1      61.503   5.847  -4.123  1.00  0.00    -0.309 N 
ATOM      6  H2  UNL     1      61.345   6.804  -4.439  1.00  0.00     0.170 HD
ENDROOT
BRANCH   5   7
HETATM    7  C14 UNL     1      61.582   4.851  -5.116  1.00  0.00     0.038 A 
HETATM    8  C15 UNL     1      60.682   4.773  -6.138  1.00  0.00     0.029 A 
HETATM    9  C16 UNL     1      60.774   3.755  -7.099  1.00  0.00     0.004 A 
HETATM   10  C17 UNL     1      61.785   2.829  -7.006  1.00  0.00     0.029 A 
HETATM   11  C18 UNL     1      62.725   2.877  -5.976  1.00  0.00     0.037 A 
HETATM   12  C25 UNL     1      62.601   3.905  -5.035  1.00  0.00     0.059 A 
BRANCH  11  13
HETATM   13  N3  UNL     1      63.796   1.985  -5.834  1.00  0.00    -0.323 N 
HETATM   14  C19 UNL     1      64.831   1.823  -6.746  1.00  0.00     0.257 C 
HETATM   15  O2  UNL     1      64.877   2.504  -7.797  1.00  0.00    -0.267 OA
ATOM     16  H3  UNL     1      63.818   1.408  -4.993  1.00  0.00     0.169 HD
BRANCH  14  17
HETATM   17  C20 UNL     1      65.931   0.846  -6.532  1.00  0.00     0.047 A 
HETATM   18  C21 UNL     1      67.231   1.223  -6.317  1.00  0.00     0.020 A 
HETATM   19  C22 UNL     1      68.235   0.267  -6.124  1.00  0.00     0.018 A 
HETATM   20  C23 UNL     1      67.926  -1.073  -6.148  1.00  0.00     0.087 A 
HETATM   21  N4  UNL     1      66.645  -1.415  -6.360  1.00  0.00    -0.374 N 
HETATM   22  C24 UNL     1      65.665  -0.506  -6.547  1.00  0.00     0.104 A 
ATOM     23  H4  UNL     1      66.402  -2.406  -6.380  1.00  0.00     0.164 HD
ENDBRANCH  14  17
ENDBRANCH  11  13
ENDBRANCH   5   7
BRANCH   3  24
HETATM   24  C2  UNL     1      61.597   6.748  -0.484  1.00  0.00     0.036 A 
HETATM   25  C3  UNL     1      61.875   7.968   0.155  1.00  0.00     0.030 A 
HETATM   26  C4  UNL     1      62.002   8.030   1.515  1.00  0.00     0.014 A 
HETATM   27  C5  UNL     1      61.870   6.935   2.339  1.00  0.00    -0.026 A 
HETATM   28  C12 UNL     1      61.599   5.744   1.721  1.00  0.00     0.014 A 
HETATM   29  C13 UNL     1      61.463   5.650   0.329  1.00  0.00     0.030 A 
BRANCH  27  30
HETATM   30  C6  UNL     1      62.015   7.068   3.773  1.00  0.00    -0.026 A 
HETATM   31  C7  UNL     1      61.499   8.177   4.390  1.00  0.00     0.012 A 
HETATM   32  C8  UNL     1      61.620   8.330   5.741  1.00  0.00     0.001 A 
HETATM   33  C9  UNL     1      62.251   7.394   6.526  1.00  0.00     0.000 A 
HETATM   34  C10 UNL     1      62.766   6.279   5.894  1.00  0.00     0.001 A 
HETATM   35  C11 UNL     1      62.651   6.111   4.513  1.00  0.00     0.012 A 
ENDBRANCH  27  30
ENDBRANCH   3  24
TORSDOF 5
ENDMDL
MODEL 3
REMARK VINA RESULT: -11.433579145      0.607      1.037
REMARK  5 active torsions:
REMARK  status: ('A' for Active; 'I' for Inactive)
REMARK       I    between atoms: C1_2  and  N1_3 
REMARK       I    between atoms: C1_2  and  N2_17 
REMARK    1  A    between atoms: N1_3  and  C2_5 
REMARK    2  A    between atoms: C5_8  and  C6_9 
REMARK    3  A    between atoms: N2_17  and  C14_19 
REMARK    4  A    between atoms: C18_23  and  N3_24 
REMARK       I    between atoms: N3_24  and  C19_26 
REMARK    5  A    between atoms: C19_26  and  C20_28 
ROOT
HETATM    1  O1  UNL     1      62.146   3.281  -3.736  1.00  0.00    -0.247 OA
HETATM    2  C1  UNL     1      61.817   4.305  -4.377  1.00  0.00     0.325 C 
HETATM    3  N1  UNL     1      61.559   5.542  -3.740  1.00  0.00    -0.309 N 
ATOM      4  H1  UNL     1      61.291   6.326  -4.335  1.00  0.00     0.170 HD
HETATM    5  N2  UNL     1      61.692   4.249  -5.784  1.00  0.00    -0.309 N 
ATOM      6  H2  UNL     1      61.430   5.112  -6.260  1.00  0.00     0.170 HD
ENDROOT
BRANCH   5   7
HETATM    7  C14 UNL     1      61.896   3.111  -6.587  1.00  0.00     0.038 A 
HETATM    8  C15 UNL     1      60.954   2.669  -7.470  1.00  0.00     0.029 A 
HETATM    9  C16 UNL     1      61.176   1.518  -8.240  1.00  0.00     0.004 A 
HETATM   10  C17 UNL     1      62.359   0.832  -8.100  1.00  0.00     0.029 A 
HETATM   11  C18 UNL     1      63.346   1.253  -7.209  1.00  0.00     0.037 A 
HETATM   12  C25 UNL     1      63.089   2.404  -6.457  1.00  0.00     0.059 A 
BRANCH  11  13
HETATM   13  N3  UNL     1      64.584   0.620  -7.034  1.00  0.00    -0.323 N 
HETATM   14  C19 UNL     1      64.815  -0.475  -6.211  1.00  0.00     0.257 C 
HETATM   15  O2  UNL     1      63.885  -0.993  -5.551  1.00  0.00    -0.267 OA
ATOM     16  H3  UNL     1      65.379   0.993  -7.553  1.00  0.00     0.169 HD
BRANCH  14  17
HETATM   17  C20 UNL     1      66.162  -1.088  -6.067  1.00  0.00     0.047 A 
HETATM   18  C21 UNL     1      66.489  -1.934  -5.039  1.00  0.00     0.020 A 
HETATM   19  C22 UNL     1      67.772  -2.485  -4.942  1.00  0.00     0.018 A 
HETATM   20  C23 UNL     1      68.727  -2.182  -5.884  1.00  0.00     0.087 A 
HETATM   21  N4  UNL     1      68.380  -1.351  -6.880  1.00  0.00    -0.374 N 
HETATM   22  C24 UNL     1      67.148  -0.812  -6.989  1.00  0.00     0.104 A 
ATOM     23  H4  UNL     1      69.079  -1.118  -7.586  1.00  0.00     0.164 HD
ENDBRANCH  14  17
ENDBRANCH  11  13
ENDBRANCH   5   7
BRANCH   3  24
HETATM   24  C2  UNL     1      61.641   5.779  -2.360  1.00  0.00     0.036 A 
HETATM   25  C3  UNL     1      61.578   7.117  -1.936  1.00  0.00     0.030 A 
HETATM   26  C4  UNL     1      61.668   7.433  -0.608  1.00  0.00     0.014 A 
HETATM   27  C5  UNL     1      61.822   6.493   0.386  1.00  0.00    -0.026 A 
HETATM   28  C12 UNL     1      61.884   5.188  -0.023  1.00  0.00     0.014 A 
HETATM   29  C13 UNL     1      61.795   4.834  -1.376  1.00  0.00     0.030 A 
BRANCH  27  30
HETATM   30  C6  UNL     1      61.910   6.893   1.774  1.00  0.00    -0.026 A 
HETATM   31  C7  UNL     1      62.874   6.328   2.566  1.00  0.00     0.012 A 
HETATM   32  C8  UNL     1      62.981   6.686   3.879  1.00  0.00     0.001 A 
HETATM   33  C9  UNL     1      62.144   7.613   4.451  1.00  0.00     0.000 A 
HETATM   34  C10 UNL     1      61.176   8.178   3.644  1.00  0.00     0.001 A 
HETATM   35  C11 UNL     1      61.054   7.820   2.299  1.00  0.00     0.012 A 
ENDBRANCH  27  30
ENDBRANCH   3  24
TORSDOF 5
ENDMDL
MODEL 4
REMARK VINA RESULT: -11.386065275      1.969      3.411
REMARK  5 active torsions:
REMARK  status: ('A' for Active; 'I' for Inactive)
REMARK       I    between atoms: C1_2  and  N1_3 
REMARK       I    between atoms: C1_2  and  N2_17 
REMARK    1  A    between atoms: N1_3  and  C2_5 
REMARK    2  A    between atoms: C5_8  and  C6_9 
REMARK    3  A    between atoms: N2_17  and  C14_19 
REMARK    4  A    between atoms: C18_23  and  N3_24 
REMARK       I    between atoms: N3_24  and  C19_26 
REMARK    5  A    between atoms: C19_26  and  C20_28 
ROOT
HETATM    1  O1  UNL     1      61.111   4.669  -1.071  1.00  0.00    -0.247 OA
HETATM    2  C1  UNL     1      61.052   5.720  -1.749  1.00  0.00     0.325 C 
HETATM    3  N1  UNL     1      61.176   7.002  -1.162  1.00  0.00    -0.309 N 
ATOM      4  H1  UNL     1      61.110   7.808  -1.784  1.00  0.00     0.170 HD
HETATM    5  N2  UNL     1      60.854   5.651  -3.146  1.00  0.00    -0.309 N 
ATOM      6  H2  UNL     1      60.821   6.535  -3.654  1.00  0.00     0.170 HD
ENDROOT
BRANCH   5   7
HETATM    7  C14 UNL     1      60.697   4.473  -3.901  1.00  0.00     0.038 A 
HETATM    8  C15 UNL     1      59.478   4.058  -4.353  1.00  0.00     0.029 A 
HETATM    9  C16 UNL     1      59.351   2.867  -5.083  1.00  0.00     0.004 A 
HETATM   10  C17 UNL     1      60.470   2.114  -5.345  1.00  0.00     0.029 A 
HETATM   11  C18 UNL     1      61.733   2.506  -4.901  1.00  0.00     0.037 A 
HETATM   12  C25 UNL     1      61.822   3.698  -4.175  1.00  0.00     0.059 A 
BRANCH  11  13
HETATM   13  N3  UNL     1      62.920   1.804  -5.154  1.00  0.00    -0.323 N 
HETATM   14  C19 UNL     1      63.725   1.968  -6.274  1.00  0.00     0.257 C 
HETATM   15  O2  UNL     1      63.431   2.799  -7.164  1.00  0.00    -0.267 OA
ATOM     16  H3  UNL     1      63.215   1.118  -4.460  1.00  0.00     0.169 HD
BRANCH  14  17
HETATM   17  C20 UNL     1      64.967   1.176  -6.480  1.00  0.00     0.047 A 
HETATM   18  C21 UNL     1      66.207   1.751  -6.587  1.00  0.00     0.020 A 
HETATM   19  C22 UNL     1      67.348   0.967  -6.784  1.00  0.00     0.018 A 
HETATM   20  C23 UNL     1      67.239  -0.401  -6.872  1.00  0.00     0.087 A 
HETATM   21  N4  UNL     1      66.013  -0.939  -6.763  1.00  0.00    -0.374 N 
HETATM   22  C24 UNL     1      64.903  -0.197  -6.573  1.00  0.00     0.104 A 
ATOM     23  H4  UNL     1      65.918  -1.953  -6.827  1.00  0.00     0.164 HD
ENDBRANCH  14  17
ENDBRANCH  11  13
ENDBRANCH   5   7
BRANCH   3  24
HETATM   24  C2  UNL     1      61.382   7.257   0.202  1.00  0.00     0.036 A 
HETATM   25  C3  UNL     1      62.218   6.370   0.900  1.00  0.00     0.030 A 
HETATM   26  C4  UNL     1      62.456   6.540   2.236  1.00  0.00     0.014 A 
HETATM   27  C5  UNL     1      61.909   7.563   2.978  1.00  0.00    -0.026 A 
HETATM   28  C12 UNL     1      61.093   8.429   2.302  1.00  0.00     0.014 A 
HETATM   29  C13 UNL     1      60.832   8.280   0.933  1.00  0.00     0.030 A 
BRANCH  27  30
HETATM   30  C6  UNL     1      62.202   7.688   4.390  1.00  0.00    -0.026 A 
HETATM   31  C7  UNL     1      61.774   6.706   5.244  1.00  0.00     0.012 A 
HETATM   32  C8  UNL     1      62.035   6.796   6.581  1.00  0.00     0.001 A 
HETATM   33  C9  UNL     1      62.727   7.855   7.117  1.00  0.00     0.000 A 
HETATM   34  C10 UNL     1      63.155   8.839   6.248  1.00  0.00     0.001 A 
HETATM   35  C11 UNL     1      62.894   8.761   4.878  1.00  0.00     0.012 A 
ENDBRANCH  27  30
ENDBRANCH   3  24
TORSDOF 5
ENDMDL
MODEL 5
REMARK VINA RESULT: -10.808324913      1.901      3.226
REMARK  5 active torsions:
REMARK  status: ('A' for Active; 'I' for Inactive)
REMARK       I    between atoms: C1_2  and  N1_3 
REMARK       I    between atoms: C1_2  and  N2_17 
REMARK    1  A    between atoms: N1_3  and  C2_5 
REMARK    2  A    between atoms: C5_8  and  C6_9 
REMARK    3  A    between atoms: N2_17  and  C14_19 
REMARK    4  A    between atoms: C18_23  and  N3_24 
REMARK       I    between atoms: N3_24  and  C19_26 
REMARK    5  A    between atoms: C19_26  and  C20_28 
ROOT
HETATM    1  O1  UNL     1      62.414   5.919  -1.962  1.00  0.00    -0.247 OA
HETATM    2  C1  UNL     1      61.313   5.335  -1.839  1.00  0.00     0.325 C 
HETATM    3  N1  UNL     1      60.607   5.311  -0.613  1.00  0.00    -0.309 N 
ATOM      4  H1  UNL     1      59.719   4.807  -0.595  1.00  0.00     0.170 HD
HETATM    5  N2  UNL     1      60.737   4.670  -2.944  1.00  0.00    -0.309 N 
ATOM      6  H2  UNL     1      59.836   4.216  -2.794  1.00  0.00     0.170 HD
ENDROOT
BRANCH   5   7
HETATM    7  C14 UNL     1      61.294   4.576  -4.234  1.00  0.00     0.038 A 
HETATM    8  C15 UNL     1      60.745   5.210  -5.309  1.00  0.00     0.029 A 
HETATM    9  C16 UNL     1      61.310   5.078  -6.586  1.00  0.00     0.004 A 
HETATM   10  C17 UNL     1      62.432   4.301  -6.750  1.00  0.00     0.029 A 
HETATM   11  C18 UNL     1      63.024   3.640  -5.674  1.00  0.00     0.037 A 
HETATM   12  C25 UNL     1      62.432   3.792  -4.416  1.00  0.00     0.059 A 
BRANCH  11  13
HETATM   13  N3  UNL     1      64.182   2.855  -5.762  1.00  0.00    -0.323 N 
HETATM   14  C19 UNL     1      64.264   1.615  -6.382  1.00  0.00     0.257 C 
HETATM   15  O2  UNL     1      63.264   1.102  -6.935  1.00  0.00    -0.267 OA
ATOM     16  H3  UNL     1      65.032   3.224  -5.336  1.00  0.00     0.169 HD
BRANCH  14  17
HETATM   17  C20 UNL     1      65.529   0.833  -6.425  1.00  0.00     0.047 A 
HETATM   18  C21 UNL     1      66.768   1.420  -6.416  1.00  0.00     0.020 A 
HETATM   19  C22 UNL     1      67.931   0.644  -6.462  1.00  0.00     0.018 A 
HETATM   20  C23 UNL     1      67.845  -0.727  -6.516  1.00  0.00     0.087 A 
HETATM   21  N4  UNL     1      66.619  -1.276  -6.523  1.00  0.00    -0.374 N 
HETATM   22  C24 UNL     1      65.488  -0.543  -6.479  1.00  0.00     0.104 A 
ATOM     23  H4  UNL     1      66.541  -2.293  -6.563  1.00  0.00     0.164 HD
ENDBRANCH  14  17
ENDBRANCH  11  13
ENDBRANCH   5   7
BRANCH   3  24
HETATM   24  C2  UNL     1      61.024   5.921   0.580  1.00  0.00     0.036 A 
HETATM   25  C3  UNL     1      61.032   5.125   1.738  1.00  0.00     0.030 A 
HETATM   26  C4  UNL     1      61.410   5.650   2.943  1.00  0.00     0.014 A 
HETATM   27  C5  UNL     1      61.799   6.960   3.109  1.00  0.00    -0.026 A 
HETATM   28  C12 UNL     1      61.793   7.739   1.984  1.00  0.00     0.014 A 
HETATM   29  C13 UNL     1      61.411   7.229   0.736  1.00  0.00     0.030 A 
BRANCH  27  30
HETATM   30  C6  UNL     1      62.189   7.454   4.413  1.00  0.00    -0.026 A 
HETATM   31  C7  UNL     1      61.782   6.770   5.528  1.00  0.00     0.012 A 
HETATM   32  C8  UNL     1      62.134   7.211   6.771  1.00  0.00     0.001 A 
HETATM   33  C9  UNL     1      62.899   8.339   6.953  1.00  0.00     0.000 A 
HETATM   34  C10 UNL     1      63.305   9.020   5.823  1.00  0.00     0.001 A 
HETATM   35  C11 UNL     1      62.951   8.580   4.545  1.00  0.00     0.012 A 
ENDBRANCH  27  30
ENDBRANCH   3  24
TORSDOF 5
ENDMDL
