MODEL 1
REMARK VINA RESULT: -5.872381128      0.000      0.000
REMARK  5 active torsions:
REMARK  status: ('A' for Active; 'I' for Inactive)
REMARK    1  A    between atoms: C5_8  and  C6_9 
REMARK    2  A    between atoms: C9_12  and  C10_13 
REMARK    3  A    between atoms: C12_17  and  C13_18 
REMARK    4  A    between atoms: C16_21  and  C17_22 
REMARK    5  A    between atoms: N3_23  and  C18_25 
ROOT
HETATM    1  C10 UNL     1      61.318   7.428   0.974  1.00  0.00     0.059 A 
HETATM    2  C11 UNL     1      60.559   8.330   0.268  1.00  0.00     0.120 A 
HETATM    3  N2  UNL     1      60.444   7.835  -0.987  1.00  0.00    -0.349 N 
ATOM      4  H2  UNL     1      59.932   8.283  -1.748  1.00  0.00     0.167 HD
HETATM    5  C12 UNL     1      61.102   6.669  -1.083  1.00  0.00     0.116 A 
HETATM    6  N4  UNL     1      61.633   6.432   0.130  1.00  0.00    -0.340 N 
ATOM      7  H4  UNL     1      62.193   5.616   0.373  1.00  0.00     0.167 HD
ENDROOT
BRANCH   5   8
HETATM    8  C13 UNL     1      61.219   5.822  -2.264  1.00  0.00     0.008 A 
HETATM    9  C14 UNL     1      60.736   6.209  -3.497  1.00  0.00     0.016 A 
HETATM   10  C15 UNL     1      60.868   5.372  -4.601  1.00  0.00     0.014 A 
HETATM   11  C16 UNL     1      61.477   4.138  -4.508  1.00  0.00    -0.021 A 
HETATM   12  C24 UNL     1      61.956   3.753  -3.294  1.00  0.00     0.014 A 
HETATM   13  C25 UNL     1      61.824   4.582  -2.205  1.00  0.00     0.016 A 
BRANCH  11  14
HETATM   14  C17 UNL     1      61.620   3.260  -5.650  1.00  0.00     0.099 C 
HETATM   15  N3  UNL     1      61.381   2.005  -5.491  1.00  0.00    -0.365 N 
ATOM     16  H3  UNL     1      61.097   1.640  -4.582  1.00  0.00     0.165 HD
BRANCH  15  17
HETATM   17  C18 UNL     1      61.520   1.139  -6.608  1.00  0.00     0.031 A 
HETATM   18  C19 UNL     1      60.899  -0.091  -6.635  1.00  0.00     0.029 A 
HETATM   19  C20 UNL     1      61.047  -0.914  -7.729  1.00  0.00     0.002 A 
HETATM   20  C21 UNL     1      61.815  -0.555  -8.838  1.00  0.00     0.000 A 
HETATM   21  C22 UNL     1      62.430   0.671  -8.802  1.00  0.00     0.002 A 
HETATM   22  C23 UNL     1      62.289   1.501  -7.717  1.00  0.00     0.029 A 
ENDBRANCH  15  17
ENDBRANCH  11  14
ENDBRANCH   5   8
BRANCH   1  23
HETATM   23  C9  UNL     1      61.737   7.489   2.381  1.00  0.00    -0.008 A 
HETATM   24  C8  UNL     1      61.063   8.284   3.275  1.00  0.00     0.014 A 
HETATM   25  C7  UNL     1      61.473   8.324   4.586  1.00  0.00     0.013 A 
HETATM   26  C6  UNL     1      62.546   7.599   5.075  1.00  0.00    -0.020 A 
HETATM   27  C27 UNL     1      63.204   6.812   4.165  1.00  0.00     0.013 A 
HETATM   28  C26 UNL     1      62.809   6.757   2.845  1.00  0.00     0.014 A 
BRANCH  26  29
HETATM   29  C5  UNL     1      62.937   7.682   6.481  1.00  0.00     0.042 A 
HETATM   30  C1  UNL     1      63.603   8.782   6.984  1.00  0.00     0.256 A 
HETATM   31  O1  UNL     1      63.883   9.748   6.213  1.00  0.00    -0.267 OA
HETATM   32  N1  UNL     1      63.961   8.843   8.294  1.00  0.00    -0.333 N 
HETATM   33  C2  UNL     1      63.676   7.827   9.148  1.00  0.00     0.091 A 
ATOM     34  H1  UNL     1      64.453   9.668   8.642  1.00  0.00     0.168 HD
HETATM   35  C3  UNL     1      63.013   6.703   8.694  1.00  0.00     0.018 A 
HETATM   36  C4  UNL     1      62.657   6.656   7.369  1.00  0.00     0.019 A 
ENDBRANCH  26  29
ENDBRANCH   1  23
TORSDOF 5
ENDMDL
MODEL 2
REMARK VINA RESULT: -5.724557604      0.926      1.432
REMARK  5 active torsions:
REMARK  status: ('A' for Active; 'I' for Inactive)
REMARK    1  A    between atoms: C5_8  and  C6_9 
REMARK    2  A    between atoms: C9_12  and  C10_13 
REMARK    3  A    between atoms: C12_17  and  C13_18 
REMARK    4  A    between atoms: C16_21  and  C17_22 
REMARK    5  A    between atoms: N3_23  and  C18_25 
ROOT
HETATM    1  C10 UNL     1      61.238   7.484   0.903  1.00  0.00     0.059 A 
HETATM    2  C11 UNL     1      60.416   8.346   0.218  1.00  0.00     0.120 A 
HETATM    3  N2  UNL     1      60.301   7.852  -1.038  1.00  0.00    -0.349 N 
ATOM      4  H2  UNL     1      59.750   8.275  -1.784  1.00  0.00     0.167 HD
HETATM    5  C12 UNL     1      61.020   6.725  -1.154  1.00  0.00     0.116 A 
HETATM    6  N4  UNL     1      61.589   6.511   0.046  1.00  0.00    -0.340 N 
ATOM      7  H4  UNL     1      62.198   5.726   0.272  1.00  0.00     0.167 HD
ENDROOT
BRANCH   5   8
HETATM    8  C13 UNL     1      61.159   5.891  -2.343  1.00  0.00     0.008 A 
HETATM    9  C14 UNL     1      60.996   6.395  -3.617  1.00  0.00     0.016 A 
HETATM   10  C15 UNL     1      61.137   5.566  -4.726  1.00  0.00     0.014 A 
HETATM   11  C16 UNL     1      61.440   4.227  -4.599  1.00  0.00    -0.021 A 
HETATM   12  C24 UNL     1      61.602   3.726  -3.344  1.00  0.00     0.014 A 
HETATM   13  C25 UNL     1      61.462   4.546  -2.249  1.00  0.00     0.016 A 
BRANCH  11  14
HETATM   14  C17 UNL     1      61.589   3.356  -5.745  1.00  0.00     0.099 C 
HETATM   15  N3  UNL     1      61.342   2.102  -5.599  1.00  0.00    -0.365 N 
ATOM     16  H3  UNL     1      61.048   1.731  -4.695  1.00  0.00     0.165 HD
BRANCH  15  17
HETATM   17  C18 UNL     1      61.488   1.244  -6.721  1.00  0.00     0.031 A 
HETATM   18  C19 UNL     1      62.194   1.644  -7.834  1.00  0.00     0.029 A 
HETATM   19  C20 UNL     1      62.323   0.795  -8.911  1.00  0.00     0.002 A 
HETATM   20  C21 UNL     1      61.757  -0.481  -8.931  1.00  0.00     0.000 A 
HETATM   21  C22 UNL     1      61.054  -0.869  -7.819  1.00  0.00     0.002 A 
HETATM   22  C23 UNL     1      60.920  -0.032  -6.739  1.00  0.00     0.029 A 
ENDBRANCH  15  17
ENDBRANCH  11  14
ENDBRANCH   5   8
BRANCH   1  23
HETATM   23  C9  UNL     1      61.683   7.561   2.300  1.00  0.00    -0.008 A 
HETATM   24  C8  UNL     1      61.055   8.401   3.186  1.00  0.00     0.014 A 
HETATM   25  C7  UNL     1      61.488   8.455   4.489  1.00  0.00     0.013 A 
HETATM   26  C6  UNL     1      62.541   7.702   4.978  1.00  0.00    -0.020 A 
HETATM   27  C27 UNL     1      63.153   6.869   4.076  1.00  0.00     0.013 A 
HETATM   28  C26 UNL     1      62.734   6.799   2.764  1.00  0.00     0.014 A 
BRANCH  26  29
HETATM   29  C5  UNL     1      62.959   7.802   6.375  1.00  0.00     0.042 A 
HETATM   30  C1  UNL     1      62.755   6.770   7.268  1.00  0.00     0.256 A 
HETATM   31  O1  UNL     1      62.191   5.705   6.873  1.00  0.00    -0.267 OA
HETATM   32  N1  UNL     1      63.149   6.879   8.565  1.00  0.00    -0.333 N 
HETATM   33  C2  UNL     1      63.756   8.004   9.022  1.00  0.00     0.091 A 
ATOM     34  H1  UNL     1      62.986   6.101   9.206  1.00  0.00     0.168 HD
HETATM   35  C3  UNL     1      63.983   9.066   8.167  1.00  0.00     0.018 A 
HETATM   36  C4  UNL     1      63.579   8.941   6.862  1.00  0.00     0.019 A 
ENDBRANCH  26  29
ENDBRANCH   1  23
TORSDOF 5
ENDMDL
MODEL 3
REMARK VINA RESULT: -5.704759075      0.913      1.420
REMARK  5 active torsions:
REMARK  status: ('A' for Active; 'I' for Inactive)
REMARK    1  A    between atoms: C5_8  and  C6_9 
REMARK    2  A    between atoms: C9_12  and  C10_13 
REMARK    3  A    between atoms: C12_17  and  C13_18 
REMARK    4  A    between atoms: C16_21  and  C17_22 
REMARK    5  A    between atoms: N3_23  and  C18_25 
ROOT
HETATM    1  C10 UNL     1      61.269   7.462   0.968  1.00  0.00     0.059 A 
HETATM    2  C11 UNL     1      60.460   8.318   0.260  1.00  0.00     0.120 A 
HETATM    3  N2  UNL     1      60.363   7.807  -0.991  1.00  0.00    -0.349 N 
ATOM      4  H2  UNL     1      59.825   8.222  -1.752  1.00  0.00     0.167 HD
HETATM    5  C12 UNL     1      61.079   6.676  -1.082  1.00  0.00     0.116 A 
HETATM    6  N4  UNL     1      61.629   6.476   0.129  1.00  0.00    -0.340 N 
ATOM      7  H4  UNL     1      62.231   5.691   0.375  1.00  0.00     0.167 HD
ENDROOT
BRANCH   5   8
HETATM    8  C13 UNL     1      61.232   5.826  -2.257  1.00  0.00     0.008 A 
HETATM    9  C14 UNL     1      60.752   6.193  -3.497  1.00  0.00     0.016 A 
HETATM   10  C15 UNL     1      60.919   5.354  -4.595  1.00  0.00     0.014 A 
HETATM   11  C16 UNL     1      61.561   4.138  -4.489  1.00  0.00    -0.021 A 
HETATM   12  C24 UNL     1      62.037   3.773  -3.267  1.00  0.00     0.014 A 
HETATM   13  C25 UNL     1      61.871   4.603  -2.184  1.00  0.00     0.016 A 
BRANCH  11  14
HETATM   14  C17 UNL     1      61.741   3.258  -5.623  1.00  0.00     0.099 C 
HETATM   15  N3  UNL     1      61.289   2.055  -5.544  1.00  0.00    -0.365 N 
ATOM     16  H3  UNL     1      60.815   1.732  -4.700  1.00  0.00     0.165 HD
BRANCH  15  17
HETATM   17  C18 UNL     1      61.463   1.188  -6.655  1.00  0.00     0.031 A 
HETATM   18  C19 UNL     1      60.860  -0.050  -6.691  1.00  0.00     0.029 A 
HETATM   19  C20 UNL     1      61.042  -0.875  -7.778  1.00  0.00     0.002 A 
HETATM   20  C21 UNL     1      61.827  -0.509  -8.872  1.00  0.00     0.000 A 
HETATM   21  C22 UNL     1      62.425   0.725  -8.827  1.00  0.00     0.002 A 
HETATM   22  C23 UNL     1      62.250   1.556  -7.748  1.00  0.00     0.029 A 
ENDBRANCH  15  17
ENDBRANCH  11  14
ENDBRANCH   5   8
BRANCH   1  23
HETATM   23  C9  UNL     1      61.692   7.556   2.371  1.00  0.00    -0.008 A 
HETATM   24  C8  UNL     1      62.733   6.791   2.838  1.00  0.00     0.014 A 
HETATM   25  C7  UNL     1      63.111   6.897   4.155  1.00  0.00     0.013 A 
HETATM   26  C6  UNL     1      62.498   7.743   5.063  1.00  0.00    -0.020 A 
HETATM   27  C27 UNL     1      61.461   8.497   4.574  1.00  0.00     0.013 A 
HETATM   28  C26 UNL     1      61.066   8.406   3.256  1.00  0.00     0.014 A 
BRANCH  26  29
HETATM   29  C5  UNL     1      62.943   7.813   6.453  1.00  0.00     0.042 A 
HETATM   30  C1  UNL     1      62.750   6.764   7.329  1.00  0.00     0.256 A 
HETATM   31  O1  UNL     1      62.175   5.709   6.923  1.00  0.00    -0.267 OA
HETATM   32  N1  UNL     1      63.169   6.845   8.620  1.00  0.00    -0.333 N 
HETATM   33  C2  UNL     1      63.790   7.958   9.088  1.00  0.00     0.091 A 
ATOM     34  H1  UNL     1      63.015   6.055   9.248  1.00  0.00     0.168 HD
HETATM   35  C3  UNL     1      64.005   9.037   8.251  1.00  0.00     0.018 A 
HETATM   36  C4  UNL     1      63.576   8.940   6.951  1.00  0.00     0.019 A 
ENDBRANCH  26  29
ENDBRANCH   1  23
TORSDOF 5
ENDMDL
MODEL 4
REMARK VINA RESULT: -5.663874633      4.370     12.622
REMARK  5 active torsions:
REMARK  status: ('A' for Active; 'I' for Inactive)
REMARK    1  A    between atoms: C5_8  and  C6_9 
REMARK    2  A    between atoms: C9_12  and  C10_13 
REMARK    3  A    between atoms: C12_17  and  C13_18 
REMARK    4  A    between atoms: C16_21  and  C17_22 
REMARK    5  A    between atoms: N3_23  and  C18_25 
ROOT
HETATM    1  C10 UNL     1      62.926   3.295  -4.368  1.00  0.00     0.059 A 
HETATM    2  C11 UNL     1      61.733   3.826  -4.797  1.00  0.00     0.120 A 
HETATM    3  N2  UNL     1      61.286   4.623  -3.797  1.00  0.00    -0.349 N 
ATOM      4  H2  UNL     1      60.418   5.159  -3.820  1.00  0.00     0.167 HD
HETATM    5  C12 UNL     1      62.152   4.602  -2.772  1.00  0.00     0.116 A 
HETATM    6  N4  UNL     1      63.154   3.783  -3.138  1.00  0.00    -0.340 N 
ATOM      7  H4  UNL     1      63.968   3.564  -2.565  1.00  0.00     0.167 HD
ENDROOT
BRANCH   5   8
HETATM    8  C13 UNL     1      62.036   5.324  -1.510  1.00  0.00     0.008 A 
HETATM    9  C14 UNL     1      61.696   6.660  -1.457  1.00  0.00     0.016 A 
HETATM   10  C15 UNL     1      61.594   7.314  -0.232  1.00  0.00     0.014 A 
HETATM   11  C16 UNL     1      61.827   6.662   0.960  1.00  0.00    -0.021 A 
HETATM   12  C24 UNL     1      62.162   5.344   0.912  1.00  0.00     0.014 A 
HETATM   13  C25 UNL     1      62.262   4.700  -0.299  1.00  0.00     0.016 A 
BRANCH  11  14
HETATM   14  C17 UNL     1      61.725   7.331   2.240  1.00  0.00     0.099 C 
HETATM   15  N3  UNL     1      62.635   7.110   3.123  1.00  0.00    -0.365 N 
ATOM     16  H3  UNL     1      63.410   6.477   2.924  1.00  0.00     0.165 HD
BRANCH  15  17
HETATM   17  C18 UNL     1      62.538   7.764   4.379  1.00  0.00     0.031 A 
HETATM   18  C19 UNL     1      61.410   7.639   5.161  1.00  0.00     0.029 A 
HETATM   19  C20 UNL     1      61.339   8.283   6.376  1.00  0.00     0.002 A 
HETATM   20  C21 UNL     1      62.377   9.076   6.865  1.00  0.00     0.000 A 
HETATM   21  C22 UNL     1      63.495   9.196   6.080  1.00  0.00     0.002 A 
HETATM   22  C23 UNL     1      63.579   8.558   4.867  1.00  0.00     0.029 A 
ENDBRANCH  15  17
ENDBRANCH  11  14
ENDBRANCH   5   8
BRANCH   1  23
HETATM   23  C9  UNL     1      63.820   2.369  -5.074  1.00  0.00    -0.008 A 
HETATM   24  C8  UNL     1      65.064   2.778  -5.486  1.00  0.00     0.014 A 
HETATM   25  C7  UNL     1      65.883   1.892  -6.145  1.00  0.00     0.013 A 
HETATM   26  C6  UNL     1      65.528   0.585  -6.427  1.00  0.00    -0.020 A 
HETATM   27  C27 UNL     1      64.281   0.198  -6.006  1.00  0.00     0.013 A 
HETATM   28  C26 UNL     1      63.444   1.070  -5.344  1.00  0.00     0.014 A 
BRANCH  26  29
HETATM   29  C5  UNL     1      66.441  -0.312  -7.133  1.00  0.00     0.042 A 
HETATM   30  C1  UNL     1      66.559  -1.643  -6.787  1.00  0.00     0.256 A 
HETATM   31  O1  UNL     1      65.859  -2.105  -5.836  1.00  0.00    -0.267 OA
HETATM   32  N1  UNL     1      67.413  -2.465  -7.453  1.00  0.00    -0.333 N 
HETATM   33  C2  UNL     1      68.176  -2.004  -8.477  1.00  0.00     0.091 A 
ATOM     34  H1  UNL     1      67.482  -3.446  -7.178  1.00  0.00     0.168 HD
HETATM   35  C3  UNL     1      68.096  -0.679  -8.861  1.00  0.00     0.018 A 
HETATM   36  C4  UNL     1      67.228   0.139  -8.179  1.00  0.00     0.019 A 
ENDBRANCH  26  29
ENDBRANCH   1  23
TORSDOF 5
ENDMDL
MODEL 5
REMARK VINA RESULT: -5.530306417      4.386     12.610
REMARK  5 active torsions:
REMARK  status: ('A' for Active; 'I' for Inactive)
REMARK    1  A    between atoms: C5_8  and  C6_9 
REMARK    2  A    between atoms: C9_12  and  C10_13 
REMARK    3  A    between atoms: C12_17  and  C13_18 
REMARK    4  A    between atoms: C16_21  and  C17_22 
REMARK    5  A    between atoms: N3_23  and  C18_25 
ROOT
HETATM    1  C10 UNL     1      62.875   3.189  -4.409  1.00  0.00     0.059 A 
HETATM    2  C11 UNL     1      61.697   3.741  -4.851  1.00  0.00     0.120 A 
HETATM    3  N2  UNL     1      61.261   4.557  -3.861  1.00  0.00    -0.349 N 
ATOM      4  H2  UNL     1      60.406   5.113  -3.895  1.00  0.00     0.167 HD
HETATM    5  C12 UNL     1      62.120   4.527  -2.830  1.00  0.00     0.116 A 
HETATM    6  N4  UNL     1      63.106   3.683  -3.182  1.00  0.00    -0.340 N 
ATOM      7  H4  UNL     1      63.912   3.452  -2.602  1.00  0.00     0.167 HD
ENDROOT
BRANCH   5   8
HETATM    8  C13 UNL     1      62.012   5.264  -1.576  1.00  0.00     0.008 A 
HETATM    9  C14 UNL     1      61.692   6.605  -1.537  1.00  0.00     0.016 A 
HETATM   10  C15 UNL     1      61.598   7.272  -0.318  1.00  0.00     0.014 A 
HETATM   11  C16 UNL     1      61.818   6.629   0.881  1.00  0.00    -0.021 A 
HETATM   12  C24 UNL     1      62.134   5.306   0.847  1.00  0.00     0.014 A 
HETATM   13  C25 UNL     1      62.227   4.648  -0.358  1.00  0.00     0.016 A 
BRANCH  11  14
HETATM   14  C17 UNL     1      61.723   7.312   2.153  1.00  0.00     0.099 C 
HETATM   15  N3  UNL     1      62.613   7.066   3.050  1.00  0.00    -0.365 N 
ATOM     16  H3  UNL     1      63.368   6.405   2.867  1.00  0.00     0.165 HD
BRANCH  15  17
HETATM   17  C18 UNL     1      62.523   7.735   4.299  1.00  0.00     0.031 A 
HETATM   18  C19 UNL     1      61.380   7.661   5.064  1.00  0.00     0.029 A 
HETATM   19  C20 UNL     1      61.315   8.318   6.273  1.00  0.00     0.002 A 
HETATM   20  C21 UNL     1      62.377   9.073   6.773  1.00  0.00     0.000 A 
HETATM   21  C22 UNL     1      63.511   9.141   6.004  1.00  0.00     0.002 A 
HETATM   22  C23 UNL     1      63.588   8.490   4.797  1.00  0.00     0.029 A 
ENDBRANCH  15  17
ENDBRANCH  11  14
ENDBRANCH   5   8
BRANCH   1  23
HETATM   23  C9  UNL     1      63.753   2.236  -5.101  1.00  0.00    -0.008 A 
HETATM   24  C8  UNL     1      65.008   2.614  -5.508  1.00  0.00     0.014 A 
HETATM   25  C7  UNL     1      65.812   1.704  -6.153  1.00  0.00     0.013 A 
HETATM   26  C6  UNL     1      65.430   0.403  -6.426  1.00  0.00    -0.020 A 
HETATM   27  C27 UNL     1      64.172   0.047  -6.010  1.00  0.00     0.013 A 
HETATM   28  C26 UNL     1      63.350   0.944  -5.361  1.00  0.00     0.014 A 
BRANCH  26  29
HETATM   29  C5  UNL     1      66.327  -0.521  -7.117  1.00  0.00     0.042 A 
HETATM   30  C1  UNL     1      67.285  -0.074  -8.004  1.00  0.00     0.256 A 
HETATM   31  O1  UNL     1      67.395   1.169  -8.228  1.00  0.00    -0.267 OA
HETATM   32  N1  UNL     1      68.112  -0.946  -8.640  1.00  0.00    -0.333 N 
HETATM   33  C2  UNL     1      68.022  -2.283  -8.422  1.00  0.00     0.091 A 
ATOM     34  H1  UNL     1      68.811  -0.590  -9.291  1.00  0.00     0.168 HD
HETATM   35  C3  UNL     1      67.079  -2.782  -7.544  1.00  0.00     0.018 A 
HETATM   36  C4  UNL     1      66.252  -1.889  -6.910  1.00  0.00     0.019 A 
ENDBRANCH  26  29
ENDBRANCH   1  23
TORSDOF 5
ENDMDL
