MODEL 1
REMARK VINA RESULT: -8.704247405      0.000      0.000
REMARK  12 active torsions:
REMARK  status: ('A' for Active; 'I' for Inactive)
REMARK    1  A    between atoms: C2_2  and  C3_3 
REMARK    2  A    between atoms: C3_3  and  C4_4 
REMARK    3  A    between atoms: C4_4  and  O1_5 
REMARK    4  A    between atoms: O1_5  and  C5_6 
REMARK    5  A    between atoms: C5_6  and  C6_7 
REMARK    6  A    between atoms: C6_7  and  N1_8 
REMARK    7  A    between atoms: N2_11  and  C9_12 
REMARK    8  A    between atoms: C12_17  and  S1_18 
REMARK    9  A    between atoms: S1_18  and  C13_19 
REMARK   10  A    between atoms: C16_23  and  C17_24 
REMARK       I    between atoms: C17_24  and  N4_26 
REMARK   11  A    between atoms: N4_26  and  C18_28 
REMARK   12  A    between atoms: C21_31  and  C22_32 
ROOT
HETATM    1  C9  UNL     1     -16.175  20.141  17.345  1.00  0.00     0.055 A 
HETATM    2  C10 UNL     1     -14.968  20.272  16.666  1.00  0.00     0.063 A 
HETATM    3  C11 UNL     1     -14.167  21.370  16.799  1.00  0.00     0.063 A 
HETATM    4  N3  UNL     1     -12.976  21.762  16.280  1.00  0.00    -0.335 N 
ATOM      5  H3  UNL     1     -12.410  21.228  15.620  1.00  0.00     0.168 HD
HETATM    6  C12 UNL     1     -12.664  22.967  16.779  1.00  0.00     0.150 A 
HETATM    7  N5  UNL     1     -13.660  23.324  17.607  1.00  0.00    -0.335 N 
ATOM      8  H5  UNL     1     -13.696  24.199  18.131  1.00  0.00     0.168 HD
HETATM    9  C25 UNL     1     -14.604  22.367  17.646  1.00  0.00     0.062 A 
HETATM   10  C26 UNL     1     -15.788  22.285  18.339  1.00  0.00     0.058 A 
HETATM   11  C27 UNL     1     -16.561  21.157  18.173  1.00  0.00     0.062 A 
HETATM   12 CL2  UNL     1     -18.066  21.080  19.072  1.00  0.00    -0.082 Cl
ENDROOT
BRANCH   6  13
HETATM   13  S1  UNL     1     -11.239  23.985  16.463  1.00  0.00    -0.052 SA
BRANCH  13  14
HETATM   14  C13 UNL     1     -11.249  24.709  14.854  1.00  0.00     0.036 A 
HETATM   15  C14 UNL     1     -11.186  26.083  14.759  1.00  0.00     0.052 A 
HETATM   16 CL1  UNL     1     -11.098  27.107  16.196  1.00  0.00    -0.083 Cl
HETATM   17  C15 UNL     1     -11.188  26.736  13.546  1.00  0.00     0.042 A 
HETATM   18  C16 UNL     1     -11.255  25.990  12.365  1.00  0.00     0.034 A 
HETATM   19  C20 UNL     1     -11.318  24.623  12.493  1.00  0.00     0.026 A 
HETATM   20  C21 UNL     1     -11.317  23.955  13.706  1.00  0.00    -0.035 A 
BRANCH  18  21
HETATM   21  C17 UNL     1     -11.256  26.686  11.082  1.00  0.00     0.251 C 
HETATM   22  O2  UNL     1     -10.351  26.444  10.220  1.00  0.00    -0.268 OA
HETATM   23  N4  UNL     1     -12.232  27.648  10.716  1.00  0.00    -0.357 N 
ATOM     24  H4  UNL     1     -12.972  27.868  11.382  1.00  0.00     0.162 HD
BRANCH  23  25
HETATM   25  C18 UNL     1     -12.225  28.329   9.447  1.00  0.00     0.118 C 
HETATM   26  C19 UNL     1     -13.570  28.254   8.762  1.00  0.00     0.026 C 
ENDBRANCH  23  25
ENDBRANCH  18  21
BRANCH  20  27
HETATM   27  C22 UNL     1     -11.388  22.457  13.759  1.00  0.00     0.012 C 
HETATM   28  C23 UNL     1     -10.024  21.851  13.502  1.00  0.00     0.015 C 
HETATM   29  C24 UNL     1     -12.443  21.890  12.862  1.00  0.00     0.015 C 
ENDBRANCH  20  27
ENDBRANCH  13  14
ENDBRANCH   6  13
BRANCH   1  30
HETATM   30  N2  UNL     1     -16.988  18.977  17.174  1.00  0.00    -0.370 N 
HETATM   31  C8  UNL     1     -17.773  18.777  15.981  1.00  0.00     0.168 C 
HETATM   32  C7  UNL     1     -19.126  18.279  16.311  1.00  0.00     0.083 C 
HETATM   33  N1  UNL     1     -19.429  17.933  17.622  1.00  0.00    -0.369 N 
HETATM   34  C29 UNL     1     -18.456  17.625  18.567  1.00  0.00     0.083 C 
HETATM   35  C28 UNL     1     -17.048  17.945  18.186  1.00  0.00     0.168 C 
BRANCH  33  36
HETATM   36  C6  UNL     1     -20.808  17.930  18.032  1.00  0.00     0.153 C 
BRANCH  36  37
HETATM   37  C5  UNL     1     -21.166  16.560  18.500  1.00  0.00     0.187 C 
BRANCH  37  38
HETATM   38  O1  UNL     1     -21.361  15.626  17.606  1.00  0.00    -0.390 OA
BRANCH  38  39
HETATM   39  C4  UNL     1     -22.299  15.389  16.725  1.00  0.00     0.167 C 
BRANCH  39  40
HETATM   40  C3  UNL     1     -22.035  15.579  15.263  1.00  0.00     0.026 C 
BRANCH  40  41
HETATM   41  C2  UNL     1     -20.553  15.224  14.998  1.00  0.00    -0.002 C 
HETATM   42  C1  UNL     1     -20.176  15.568  13.577  1.00  0.00     0.005 C 
ENDBRANCH  40  41
ENDBRANCH  39  40
ENDBRANCH  38  39
ENDBRANCH  37  38
ENDBRANCH  36  37
ENDBRANCH  33  36
ENDBRANCH   1  30
TORSDOF 12
ENDMDL
MODEL 2
REMARK VINA RESULT: -8.501079928      2.402      3.507
REMARK  12 active torsions:
REMARK  status: ('A' for Active; 'I' for Inactive)
REMARK    1  A    between atoms: C2_2  and  C3_3 
REMARK    2  A    between atoms: C3_3  and  C4_4 
REMARK    3  A    between atoms: C4_4  and  O1_5 
REMARK    4  A    between atoms: O1_5  and  C5_6 
REMARK    5  A    between atoms: C5_6  and  C6_7 
REMARK    6  A    between atoms: C6_7  and  N1_8 
REMARK    7  A    between atoms: N2_11  and  C9_12 
REMARK    8  A    between atoms: C12_17  and  S1_18 
REMARK    9  A    between atoms: S1_18  and  C13_19 
REMARK   10  A    between atoms: C16_23  and  C17_24 
REMARK       I    between atoms: C17_24  and  N4_26 
REMARK   11  A    between atoms: N4_26  and  C18_28 
REMARK   12  A    between atoms: C21_31  and  C22_32 
ROOT
HETATM    1  C9  UNL     1     -16.357  19.809  16.617  1.00  0.00     0.055 A 
HETATM    2  C10 UNL     1     -15.339  19.705  15.676  1.00  0.00     0.063 A 
HETATM    3  C11 UNL     1     -14.470  20.727  15.420  1.00  0.00     0.063 A 
HETATM    4  N3  UNL     1     -13.414  20.908  14.587  1.00  0.00    -0.335 N 
ATOM      5  H3  UNL     1     -13.050  20.218  13.929  1.00  0.00     0.168 HD
HETATM    6  C12 UNL     1     -12.927  22.144  14.771  1.00  0.00     0.150 A 
HETATM    7  N5  UNL     1     -13.678  22.730  15.717  1.00  0.00    -0.335 N 
ATOM      8  H5  UNL     1     -13.540  23.680  16.063  1.00  0.00     0.168 HD
HETATM    9  C25 UNL     1     -14.638  21.889  16.142  1.00  0.00     0.062 A 
HETATM   10  C26 UNL     1     -15.627  22.042  17.083  1.00  0.00     0.058 A 
HETATM   11  C27 UNL     1     -16.480  20.982  17.306  1.00  0.00     0.062 A 
HETATM   12 CL2  UNL     1     -17.732  21.204  18.515  1.00  0.00    -0.082 Cl
ENDROOT
BRANCH   6  13
HETATM   13  S1  UNL     1     -11.562  22.950  13.962  1.00  0.00    -0.052 SA
BRANCH  13  14
HETATM   14  C13 UNL     1     -11.223  24.555  14.613  1.00  0.00     0.036 A 
HETATM   15  C14 UNL     1     -10.682  24.642  15.878  1.00  0.00     0.052 A 
HETATM   16 CL1  UNL     1     -10.333  23.201  16.837  1.00  0.00    -0.083 Cl
HETATM   17  C15 UNL     1     -10.384  25.852  16.467  1.00  0.00     0.042 A 
HETATM   18  C16 UNL     1     -10.634  27.036  15.766  1.00  0.00     0.034 A 
HETATM   19  C20 UNL     1     -11.173  26.916  14.508  1.00  0.00     0.026 A 
HETATM   20  C21 UNL     1     -11.477  25.706  13.906  1.00  0.00    -0.035 A 
BRANCH  18  21
HETATM   21  C17 UNL     1     -10.315  28.316  16.394  1.00  0.00     0.251 C 
HETATM   22  O2  UNL     1     -10.995  29.355  16.114  1.00  0.00    -0.268 OA
HETATM   23  N4  UNL     1      -9.262  28.487  17.328  1.00  0.00    -0.357 N 
ATOM     24  H4  UNL     1      -8.695  27.676  17.576  1.00  0.00     0.162 HD
BRANCH  23  25
HETATM   25  C18 UNL     1      -8.956  29.753  17.943  1.00  0.00     0.118 C 
HETATM   26  C19 UNL     1      -7.592  30.260  17.534  1.00  0.00     0.026 C 
ENDBRANCH  23  25
ENDBRANCH  18  21
BRANCH  20  27
HETATM   27  C22 UNL     1     -12.066  25.662  12.527  1.00  0.00     0.012 C 
HETATM   28  C23 UNL     1     -10.970  25.689  11.480  1.00  0.00     0.015 C 
HETATM   29  C24 UNL     1     -13.100  26.718  12.297  1.00  0.00     0.015 C 
ENDBRANCH  20  27
ENDBRANCH  13  14
ENDBRANCH   6  13
BRANCH   1  30
HETATM   30  N2  UNL     1     -17.251  18.717  16.852  1.00  0.00    -0.370 N 
HETATM   31  C8  UNL     1     -18.278  18.369  15.901  1.00  0.00     0.168 C 
HETATM   32  C7  UNL     1     -19.557  18.076  16.583  1.00  0.00     0.083 C 
HETATM   33  N1  UNL     1     -19.598  18.017  17.971  1.00  0.00    -0.369 N 
HETATM   34  C29 UNL     1     -18.467  17.802  18.751  1.00  0.00     0.083 C 
HETATM   35  C28 UNL     1     -17.155  17.907  18.046  1.00  0.00     0.168 C 
BRANCH  33  36
HETATM   36  C6  UNL     1     -20.858  18.225  18.631  1.00  0.00     0.153 C 
BRANCH  36  37
HETATM   37  C5  UNL     1     -21.369  16.909  19.112  1.00  0.00     0.187 C 
BRANCH  37  38
HETATM   38  O1  UNL     1     -21.620  15.977  18.230  1.00  0.00    -0.390 OA
BRANCH  38  39
HETATM   39  C4  UNL     1     -22.582  15.774  17.366  1.00  0.00     0.167 C 
BRANCH  39  40
HETATM   40  C3  UNL     1     -22.325  15.002  16.109  1.00  0.00     0.026 C 
BRANCH  40  41
HETATM   41  C2  UNL     1     -22.058  16.018  14.974  1.00  0.00    -0.002 C 
HETATM   42  C1  UNL     1     -20.918  15.547  14.104  1.00  0.00     0.005 C 
ENDBRANCH  40  41
ENDBRANCH  39  40
ENDBRANCH  38  39
ENDBRANCH  37  38
ENDBRANCH  36  37
ENDBRANCH  33  36
ENDBRANCH   1  30
TORSDOF 12
ENDMDL
MODEL 3
REMARK VINA RESULT: -8.282096871      1.300      1.800
REMARK  12 active torsions:
REMARK  status: ('A' for Active; 'I' for Inactive)
REMARK    1  A    between atoms: C2_2  and  C3_3 
REMARK    2  A    between atoms: C3_3  and  C4_4 
REMARK    3  A    between atoms: C4_4  and  O1_5 
REMARK    4  A    between atoms: O1_5  and  C5_6 
REMARK    5  A    between atoms: C5_6  and  C6_7 
REMARK    6  A    between atoms: C6_7  and  N1_8 
REMARK    7  A    between atoms: N2_11  and  C9_12 
REMARK    8  A    between atoms: C12_17  and  S1_18 
REMARK    9  A    between atoms: S1_18  and  C13_19 
REMARK   10  A    between atoms: C16_23  and  C17_24 
REMARK       I    between atoms: C17_24  and  N4_26 
REMARK   11  A    between atoms: N4_26  and  C18_28 
REMARK   12  A    between atoms: C21_31  and  C22_32 
ROOT
HETATM    1  C9  UNL     1     -16.511  20.637  17.567  1.00  0.00     0.055 A 
HETATM    2  C10 UNL     1     -15.802  21.743  18.021  1.00  0.00     0.063 A 
HETATM    3  C11 UNL     1     -14.595  22.107  17.496  1.00  0.00     0.063 A 
HETATM    4  N3  UNL     1     -13.704  23.104  17.730  1.00  0.00    -0.335 N 
ATOM      5  H3  UNL     1     -13.805  23.840  18.428  1.00  0.00     0.168 HD
HETATM    6  C12 UNL     1     -12.668  22.961  16.889  1.00  0.00     0.150 A 
HETATM    7  N5  UNL     1     -12.915  21.878  16.134  1.00  0.00    -0.335 N 
ATOM      8  H5  UNL     1     -12.296  21.524  15.405  1.00  0.00     0.168 HD
HETATM    9  C25 UNL     1     -14.092  21.326  16.477  1.00  0.00     0.062 A 
HETATM   10  C26 UNL     1     -14.754  20.223  15.993  1.00  0.00     0.058 A 
HETATM   11  C27 UNL     1     -15.969  19.896  16.555  1.00  0.00     0.062 A 
HETATM   12 CL2  UNL     1     -16.792  18.485  15.915  1.00  0.00    -0.082 Cl
ENDROOT
BRANCH   6  13
HETATM   13  S1  UNL     1     -11.199  23.953  16.731  1.00  0.00    -0.052 SA
BRANCH  13  14
HETATM   14  C13 UNL     1     -11.189  24.947  15.274  1.00  0.00     0.036 A 
HETATM   15  C14 UNL     1     -11.112  26.316  15.422  1.00  0.00     0.052 A 
HETATM   16 CL1  UNL     1     -11.027  27.072  17.016  1.00  0.00    -0.083 Cl
HETATM   17  C15 UNL     1     -11.098  27.171  14.342  1.00  0.00     0.042 A 
HETATM   18  C16 UNL     1     -11.162  26.643  13.047  1.00  0.00     0.034 A 
HETATM   19  C20 UNL     1     -11.238  25.276  12.934  1.00  0.00     0.026 A 
HETATM   20  C21 UNL     1     -11.254  24.406  14.012  1.00  0.00    -0.035 A 
BRANCH  18  21
HETATM   21  C17 UNL     1     -11.145  27.553  11.906  1.00  0.00     0.251 C 
HETATM   22  O2  UNL     1     -10.871  28.785  12.071  1.00  0.00    -0.268 OA
HETATM   23  N4  UNL     1     -11.424  27.144  10.577  1.00  0.00    -0.357 N 
ATOM     24  H4  UNL     1     -11.649  26.164  10.407  1.00  0.00     0.162 HD
BRANCH  23  25
HETATM   25  C18 UNL     1     -11.404  28.049   9.457  1.00  0.00     0.118 C 
HETATM   26  C19 UNL     1     -12.797  28.340   8.945  1.00  0.00     0.026 C 
ENDBRANCH  23  25
ENDBRANCH  18  21
BRANCH  20  27
HETATM   27  C22 UNL     1     -11.339  22.923  13.801  1.00  0.00     0.012 C 
HETATM   28  C23 UNL     1      -9.973  22.353  13.477  1.00  0.00     0.015 C 
HETATM   29  C24 UNL     1     -12.374  22.534  12.793  1.00  0.00     0.015 C 
ENDBRANCH  20  27
ENDBRANCH  13  14
ENDBRANCH   6  13
BRANCH   1  30
HETATM   30  N2  UNL     1     -17.769  20.285  18.148  1.00  0.00    -0.370 N 
HETATM   31  C8  UNL     1     -17.867  19.834  19.515  1.00  0.00     0.168 C 
HETATM   32  C7  UNL     1     -18.780  18.676  19.629  1.00  0.00     0.083 C 
HETATM   33  N1  UNL     1     -19.516  18.269  18.523  1.00  0.00    -0.369 N 
HETATM   34  C29 UNL     1     -19.776  19.104  17.441  1.00  0.00     0.083 C 
HETATM   35  C28 UNL     1     -19.000  20.378  17.394  1.00  0.00     0.168 C 
BRANCH  33  36
HETATM   36  C6  UNL     1     -19.996  16.915  18.477  1.00  0.00     0.153 C 
BRANCH  36  37
HETATM   37  C5  UNL     1     -20.805  16.736  17.237  1.00  0.00     0.187 C 
BRANCH  37  38
HETATM   38  O1  UNL     1     -20.922  15.533  16.736  1.00  0.00    -0.390 OA
BRANCH  38  39
HETATM   39  C4  UNL     1     -21.529  15.037  15.689  1.00  0.00     0.167 C 
BRANCH  39  40
HETATM   40  C3  UNL     1     -21.595  15.811  14.409  1.00  0.00     0.026 C 
BRANCH  40  41
HETATM   41  C2  UNL     1     -20.252  15.614  13.666  1.00  0.00    -0.002 C 
HETATM   42  C1  UNL     1     -19.368  16.823  13.849  1.00  0.00     0.005 C 
ENDBRANCH  40  41
ENDBRANCH  39  40
ENDBRANCH  38  39
ENDBRANCH  37  38
ENDBRANCH  36  37
ENDBRANCH  33  36
ENDBRANCH   1  30
TORSDOF 12
ENDMDL
MODEL 4
REMARK VINA RESULT: -8.240502712      0.961      2.061
REMARK  12 active torsions:
REMARK  status: ('A' for Active; 'I' for Inactive)
REMARK    1  A    between atoms: C2_2  and  C3_3 
REMARK    2  A    between atoms: C3_3  and  C4_4 
REMARK    3  A    between atoms: C4_4  and  O1_5 
REMARK    4  A    between atoms: O1_5  and  C5_6 
REMARK    5  A    between atoms: C5_6  and  C6_7 
REMARK    6  A    between atoms: C6_7  and  N1_8 
REMARK    7  A    between atoms: N2_11  and  C9_12 
REMARK    8  A    between atoms: C12_17  and  S1_18 
REMARK    9  A    between atoms: S1_18  and  C13_19 
REMARK   10  A    between atoms: C16_23  and  C17_24 
REMARK       I    between atoms: C17_24  and  N4_26 
REMARK   11  A    between atoms: N4_26  and  C18_28 
REMARK   12  A    between atoms: C21_31  and  C22_32 
ROOT
HETATM    1  C9  UNL     1     -16.147  20.092  17.216  1.00  0.00     0.055 A 
HETATM    2  C10 UNL     1     -14.904  20.218  16.607  1.00  0.00     0.063 A 
HETATM    3  C11 UNL     1     -14.145  21.348  16.717  1.00  0.00     0.063 A 
HETATM    4  N3  UNL     1     -12.934  21.744  16.249  1.00  0.00    -0.335 N 
ATOM      5  H3  UNL     1     -12.313  21.188  15.662  1.00  0.00     0.168 HD
HETATM    6  C12 UNL     1     -12.690  22.988  16.687  1.00  0.00     0.150 A 
HETATM    7  N5  UNL     1     -13.746  23.365  17.426  1.00  0.00    -0.335 N 
ATOM      8  H5  UNL     1     -13.840  24.269  17.888  1.00  0.00     0.168 HD
HETATM    9  C25 UNL     1     -14.663  22.381  17.468  1.00  0.00     0.062 A 
HETATM   10  C26 UNL     1     -15.886  22.306  18.090  1.00  0.00     0.058 A 
HETATM   11  C27 UNL     1     -16.615  21.145  17.950  1.00  0.00     0.062 A 
HETATM   12 CL2  UNL     1     -18.172  21.076  18.757  1.00  0.00    -0.082 Cl
ENDROOT
BRANCH   6  13
HETATM   13  S1  UNL     1     -11.276  24.030  16.394  1.00  0.00    -0.052 SA
BRANCH  13  14
HETATM   14  C13 UNL     1     -11.261  24.738  14.778  1.00  0.00     0.036 A 
HETATM   15  C14 UNL     1     -11.176  26.109  14.670  1.00  0.00     0.052 A 
HETATM   16 CL1  UNL     1     -11.085  27.147  16.097  1.00  0.00    -0.083 Cl
HETATM   17  C15 UNL     1     -11.157  26.750  13.450  1.00  0.00     0.042 A 
HETATM   18  C16 UNL     1     -11.225  25.992  12.276  1.00  0.00     0.034 A 
HETATM   19  C20 UNL     1     -11.310  24.628  12.418  1.00  0.00     0.026 A 
HETATM   20  C21 UNL     1     -11.330  23.972  13.638  1.00  0.00    -0.035 A 
BRANCH  18  21
HETATM   21  C17 UNL     1     -11.204  26.675  10.986  1.00  0.00     0.251 C 
HETATM   22  O2  UNL     1     -10.383  26.314  10.082  1.00  0.00    -0.268 OA
HETATM   23  N4  UNL     1     -12.067  27.751  10.657  1.00  0.00    -0.357 N 
ATOM     24  H4  UNL     1     -12.738  28.067  11.357  1.00  0.00     0.162 HD
BRANCH  23  25
HETATM   25  C18 UNL     1     -12.039  28.417   9.381  1.00  0.00     0.118 C 
HETATM   26  C19 UNL     1     -13.391  28.393   8.704  1.00  0.00     0.026 C 
ENDBRANCH  23  25
ENDBRANCH  18  21
BRANCH  20  27
HETATM   27  C22 UNL     1     -11.425  22.477  13.705  1.00  0.00     0.012 C 
HETATM   28  C23 UNL     1     -10.072  21.847  13.444  1.00  0.00     0.015 C 
HETATM   29  C24 UNL     1     -12.495  21.918  12.821  1.00  0.00     0.015 C 
ENDBRANCH  20  27
ENDBRANCH  13  14
ENDBRANCH   6  13
BRANCH   1  30
HETATM   30  N2  UNL     1     -16.915  18.894  17.071  1.00  0.00    -0.370 N 
HETATM   31  C8  UNL     1     -17.544  18.550  15.819  1.00  0.00     0.168 C 
HETATM   32  C7  UNL     1     -18.919  18.049  16.035  1.00  0.00     0.083 C 
HETATM   33  N1  UNL     1     -19.376  17.830  17.329  1.00  0.00    -0.369 N 
HETATM   34  C29 UNL     1     -18.520  17.648  18.411  1.00  0.00     0.083 C 
HETATM   35  C28 UNL     1     -17.082  17.968  18.170  1.00  0.00     0.168 C 
BRANCH  33  36
HETATM   36  C6  UNL     1     -20.794  17.830  17.567  1.00  0.00     0.153 C 
BRANCH  36  37
HETATM   37  C5  UNL     1     -21.269  16.417  17.626  1.00  0.00     0.187 C 
BRANCH  37  38
HETATM   38  O1  UNL     1     -21.420  15.858  18.799  1.00  0.00    -0.390 OA
BRANCH  38  39
HETATM   39  C4  UNL     1     -22.109  16.158  19.870  1.00  0.00     0.167 C 
BRANCH  39  40
HETATM   40  C3  UNL     1     -21.424  16.345  21.189  1.00  0.00     0.026 C 
BRANCH  40  41
HETATM   41  C2  UNL     1     -20.952  17.816  21.273  1.00  0.00    -0.002 C 
HETATM   42  C1  UNL     1     -22.107  18.754  21.018  1.00  0.00     0.005 C 
ENDBRANCH  40  41
ENDBRANCH  39  40
ENDBRANCH  38  39
ENDBRANCH  37  38
ENDBRANCH  36  37
ENDBRANCH  33  36
ENDBRANCH   1  30
TORSDOF 12
ENDMDL
MODEL 5
REMARK VINA RESULT: -8.239402466      1.248      1.628
REMARK  12 active torsions:
REMARK  status: ('A' for Active; 'I' for Inactive)
REMARK    1  A    between atoms: C2_2  and  C3_3 
REMARK    2  A    between atoms: C3_3  and  C4_4 
REMARK    3  A    between atoms: C4_4  and  O1_5 
REMARK    4  A    between atoms: O1_5  and  C5_6 
REMARK    5  A    between atoms: C5_6  and  C6_7 
REMARK    6  A    between atoms: C6_7  and  N1_8 
REMARK    7  A    between atoms: N2_11  and  C9_12 
REMARK    8  A    between atoms: C12_17  and  S1_18 
REMARK    9  A    between atoms: S1_18  and  C13_19 
REMARK   10  A    between atoms: C16_23  and  C17_24 
REMARK       I    between atoms: C17_24  and  N4_26 
REMARK   11  A    between atoms: N4_26  and  C18_28 
REMARK   12  A    between atoms: C21_31  and  C22_32 
ROOT
HETATM    1  C9  UNL     1     -16.117  20.544  18.027  1.00  0.00     0.055 A 
HETATM    2  C10 UNL     1     -14.990  21.172  18.545  1.00  0.00     0.063 A 
HETATM    3  C11 UNL     1     -14.121  21.880  17.764  1.00  0.00     0.063 A 
HETATM    4  N3  UNL     1     -12.976  22.575  17.984  1.00  0.00    -0.335 N 
ATOM      5  H3  UNL     1     -12.519  22.698  18.887  1.00  0.00     0.168 HD
HETATM    6  C12 UNL     1     -12.545  23.074  16.816  1.00  0.00     0.150 A 
HETATM    7  N5  UNL     1     -13.419  22.690  15.872  1.00  0.00    -0.335 N 
ATOM      8  H5  UNL     1     -13.347  22.924  14.882  1.00  0.00     0.168 HD
HETATM    9  C25 UNL     1     -14.404  21.954  16.417  1.00  0.00     0.062 A 
HETATM   10  C26 UNL     1     -15.505  21.352  15.857  1.00  0.00     0.058 A 
HETATM   11  C27 UNL     1     -16.353  20.649  16.685  1.00  0.00     0.062 A 
HETATM   12 CL2  UNL     1     -17.752  19.893  15.943  1.00  0.00    -0.082 Cl
ENDROOT
BRANCH   6  13
HETATM   13  S1  UNL     1     -11.101  24.058  16.473  1.00  0.00    -0.052 SA
BRANCH  13  14
HETATM   14  C13 UNL     1     -11.045  24.648  14.811  1.00  0.00     0.036 A 
HETATM   15  C14 UNL     1     -11.062  26.011  14.605  1.00  0.00     0.052 A 
HETATM   16 CL1  UNL     1     -11.139  27.151  15.952  1.00  0.00    -0.083 Cl
HETATM   17  C15 UNL     1     -11.021  26.563  13.343  1.00  0.00     0.042 A 
HETATM   18  C16 UNL     1     -10.958  25.721  12.227  1.00  0.00     0.034 A 
HETATM   19  C20 UNL     1     -10.943  24.367  12.467  1.00  0.00     0.026 A 
HETATM   20  C21 UNL     1     -10.985  23.801  13.730  1.00  0.00    -0.035 A 
BRANCH  18  21
HETATM   21  C17 UNL     1     -10.913  26.310  10.892  1.00  0.00     0.251 C 
HETATM   22  O2  UNL     1     -10.438  25.648   9.914  1.00  0.00    -0.268 OA
HETATM   23  N4  UNL     1     -11.380  27.616  10.599  1.00  0.00    -0.357 N 
ATOM     24  H4  UNL     1     -11.767  28.177  11.359  1.00  0.00     0.162 HD
BRANCH  23  25
HETATM   25  C18 UNL     1     -11.332  28.188   9.278  1.00  0.00     0.118 C 
HETATM   26  C19 UNL     1     -12.709  28.555   8.775  1.00  0.00     0.026 C 
ENDBRANCH  23  25
ENDBRANCH  18  21
BRANCH  20  27
HETATM   27  C22 UNL     1     -10.966  22.311  13.905  1.00  0.00     0.012 C 
HETATM   28  C23 UNL     1      -9.601  21.753  13.554  1.00  0.00     0.015 C 
HETATM   29  C24 UNL     1     -12.071  21.621  13.170  1.00  0.00     0.015 C 
ENDBRANCH  20  27
ENDBRANCH  13  14
ENDBRANCH   6  13
BRANCH   1  30
HETATM   30  N2  UNL     1     -17.000  19.807  18.877  1.00  0.00    -0.370 N 
HETATM   31  C8  UNL     1     -16.998  18.365  18.893  1.00  0.00     0.168 C 
HETATM   32  C7  UNL     1     -18.378  17.831  18.908  1.00  0.00     0.083 C 
HETATM   33  N1  UNL     1     -19.450  18.703  19.052  1.00  0.00    -0.369 N 
HETATM   34  C29 UNL     1     -19.319  19.978  19.594  1.00  0.00     0.083 C 
HETATM   35  C28 UNL     1     -17.923  20.476  19.767  1.00  0.00     0.168 C 
BRANCH  33  36
HETATM   36  C6  UNL     1     -20.744  18.285  18.585  1.00  0.00     0.153 C 
BRANCH  36  37
HETATM   37  C5  UNL     1     -20.718  16.811  18.361  1.00  0.00     0.187 C 
BRANCH  37  38
HETATM   38  O1  UNL     1     -21.018  16.356  17.171  1.00  0.00    -0.390 OA
BRANCH  38  39
HETATM   39  C4  UNL     1     -20.411  16.364  16.012  1.00  0.00     0.167 C 
BRANCH  39  40
HETATM   40  C3  UNL     1     -20.739  17.406  14.988  1.00  0.00     0.026 C 
BRANCH  40  41
HETATM   41  C2  UNL     1     -19.854  17.146  13.746  1.00  0.00    -0.002 C 
HETATM   42  C1  UNL     1     -18.427  16.885  14.163  1.00  0.00     0.005 C 
ENDBRANCH  40  41
ENDBRANCH  39  40
ENDBRANCH  38  39
ENDBRANCH  37  38
ENDBRANCH  36  37
ENDBRANCH  33  36
ENDBRANCH   1  30
TORSDOF 12
ENDMDL
