MODEL 1
REMARK VINA RESULT: -9.125272302      0.000      0.000
REMARK  12 active torsions:
REMARK  status: ('A' for Active; 'I' for Inactive)
REMARK    1  A    between atoms: O1_2  and  C2_3 
REMARK    2  A    between atoms: C4_5  and  N1_6 
REMARK    3  A    between atoms: N1_6  and  C5_8 
REMARK    4  A    between atoms: C5_8  and  C6_9 
REMARK    5  A    between atoms: C6_9  and  C7_10 
REMARK    6  A    between atoms: N2_13  and  C10_14 
REMARK    7  A    between atoms: C10_14  and  C11_15 
REMARK    8  A    between atoms: C21_28  and  O2_29 
REMARK    9  A    between atoms: O2_29  and  C22_30 
REMARK   10  A    between atoms: C22_30  and  C23_31 
REMARK   11  A    between atoms: C27_35  and  C28_36 
REMARK   12  A    between atoms: C28_36  and  O3_37 
ROOT
HETATM    1  C2  UNL     1     -11.994  23.022  15.957  1.00  0.00     0.103 A 
HETATM    2  C3  UNL     1     -12.676  23.102  17.143  1.00  0.00     0.072 A 
HETATM    3  C4  UNL     1     -12.255  23.897  18.191  1.00  0.00     0.070 A 
HETATM    4  C19 UNL     1     -11.101  24.627  18.007  1.00  0.00     0.145 A 
HETATM    5  F1  UNL     1     -10.689  25.409  19.032  1.00  0.00    -0.204 F 
HETATM    6  C20 UNL     1     -10.400  24.553  16.803  1.00  0.00     0.084 A 
HETATM    7  C21 UNL     1     -10.817  23.764  15.766  1.00  0.00     0.105 A 
ENDROOT
BRANCH   3   8
HETATM    8  N1  UNL     1     -12.974  23.952  19.420  1.00  0.00    -0.387 N 
ATOM      9  H1  UNL     1     -12.478  24.070  20.303  1.00  0.00     0.159 HD
BRANCH   8  10
HETATM   10  C5  UNL     1     -14.417  23.840  19.399  1.00  0.00     0.120 C 
BRANCH  10  11
HETATM   11  C6  UNL     1     -14.900  22.696  20.260  1.00  0.00     0.024 C 
BRANCH  11  12
HETATM   12  C7  UNL     1     -15.628  21.718  19.351  1.00  0.00    -0.010 C 
HETATM   13  C8  UNL     1     -16.222  22.394  18.162  1.00  0.00     0.024 C 
HETATM   14  C9  UNL     1     -16.266  21.535  16.961  1.00  0.00     0.117 C 
HETATM   15  N2  UNL     1     -16.332  20.127  17.147  1.00  0.00    -0.408 N 
HETATM   16  C17 UNL     1     -15.533  19.599  18.189  1.00  0.00     0.117 C 
HETATM   17  C18 UNL     1     -14.656  20.648  18.849  1.00  0.00     0.024 C 
BRANCH  15  18
HETATM   18  C10 UNL     1     -16.425  19.377  15.942  1.00  0.00     0.155 C 
BRANCH  18  19
HETATM   19  C11 UNL     1     -17.729  18.668  15.890  1.00  0.00    -0.039 A 
HETATM   20  C12 UNL     1     -18.727  18.953  16.813  1.00  0.00     0.010 A 
HETATM   21  C13 UNL     1     -19.931  18.289  16.751  1.00  0.00     0.026 A 
HETATM   22  C14 UNL     1     -20.200  17.340  15.802  1.00  0.00     0.055 A 
HETATM   23 CL1  UNL     1     -21.717  16.509  15.730  1.00  0.00    -0.083 Cl
HETATM   24  C15 UNL     1     -19.220  17.038  14.869  1.00  0.00     0.056 A 
HETATM   25 CL2  UNL     1     -19.548  15.830  13.653  1.00  0.00    -0.083 Cl
HETATM   26  C16 UNL     1     -18.012  17.712  14.941  1.00  0.00     0.034 A 
ENDBRANCH  18  19
ENDBRANCH  15  18
ENDBRANCH  11  12
ENDBRANCH  10  11
ENDBRANCH   8  10
ENDBRANCH   3   8
BRANCH   1  27
HETATM   27  O1  UNL     1     -12.452  22.210  14.929  1.00  0.00    -0.353 OA
HETATM   28  C1  UNL     1     -13.754  22.245  14.413  1.00  0.00     0.210 C 
ENDBRANCH   1  27
BRANCH   7  29
HETATM   29  O2  UNL     1     -10.205  23.632  14.584  1.00  0.00    -0.346 OA
BRANCH  29  30
HETATM   30  C22 UNL     1     -10.552  23.822  13.284  1.00  0.00     0.207 C 
BRANCH  30  31
HETATM   31  C23 UNL     1     -10.750  25.268  12.858  1.00  0.00     0.146 C 
HETATM   32  C24 UNL     1     -12.186  25.605  13.227  1.00  0.00     0.034 C 
HETATM   33  C25 UNL     1     -12.718  26.540  12.189  1.00  0.00     0.003 C 
HETATM   34  C26 UNL     1     -12.185  27.946  12.350  1.00  0.00     0.010 C 
HETATM   35  C27 UNL     1     -10.706  28.014  12.428  1.00  0.00     0.043 C 
HETATM   36  C29 UNL     1     -10.036  27.385  13.584  1.00  0.00     0.060 C 
HETATM   37  C30 UNL     1     -10.586  27.833  14.924  1.00  0.00     0.046 C 
HETATM   38  C31 UNL     1      -8.594  27.953  13.568  1.00  0.00     0.046 C 
HETATM   39  O4  UNL     1      -9.890  26.036  13.597  1.00  0.00    -0.373 OA
BRANCH  35  40
HETATM   40  C28 UNL     1     -10.347  29.509  12.385  1.00  0.00     0.171 C 
BRANCH  40  41
HETATM   41  O3  UNL     1     -10.484  29.896  11.046  1.00  0.00    -0.400 OA
ATOM     42  H3  UNL     1     -10.714  30.817  11.065  1.00  0.00     0.209 HD
ENDBRANCH  40  41
ENDBRANCH  35  40
ENDBRANCH  30  31
ENDBRANCH  29  30
ENDBRANCH   7  29
TORSDOF 12
ENDMDL
MODEL 2
REMARK VINA RESULT: -9.116997761      5.204      8.653
REMARK  12 active torsions:
REMARK  status: ('A' for Active; 'I' for Inactive)
REMARK    1  A    between atoms: O1_2  and  C2_3 
REMARK    2  A    between atoms: C4_5  and  N1_6 
REMARK    3  A    between atoms: N1_6  and  C5_8 
REMARK    4  A    between atoms: C5_8  and  C6_9 
REMARK    5  A    between atoms: C6_9  and  C7_10 
REMARK    6  A    between atoms: N2_13  and  C10_14 
REMARK    7  A    between atoms: C10_14  and  C11_15 
REMARK    8  A    between atoms: C21_28  and  O2_29 
REMARK    9  A    between atoms: O2_29  and  C22_30 
REMARK   10  A    between atoms: C22_30  and  C23_31 
REMARK   11  A    between atoms: C27_35  and  C28_36 
REMARK   12  A    between atoms: C28_36  and  O3_37 
ROOT
HETATM    1  C2  UNL     1     -18.400  19.854  17.563  1.00  0.00     0.103 A 
HETATM    2  C3  UNL     1     -19.355  19.059  16.987  1.00  0.00     0.072 A 
HETATM    3  C4  UNL     1     -19.084  18.224  15.921  1.00  0.00     0.070 A 
HETATM    4  C19 UNL     1     -17.793  18.211  15.440  1.00  0.00     0.145 A 
HETATM    5  F1  UNL     1     -17.525  17.392  14.397  1.00  0.00    -0.204 F 
HETATM    6  C20 UNL     1     -16.812  19.017  16.021  1.00  0.00     0.084 A 
HETATM    7  C21 UNL     1     -17.082  19.845  17.076  1.00  0.00     0.105 A 
ENDROOT
BRANCH   3   8
HETATM    8  N1  UNL     1     -20.098  17.417  15.329  1.00  0.00    -0.387 N 
ATOM      9  H1  UNL     1     -20.914  17.849  14.896  1.00  0.00     0.159 HD
BRANCH   8  10
HETATM   10  C5  UNL     1     -19.956  15.977  15.350  1.00  0.00     0.120 C 
BRANCH  10  11
HETATM   11  C6  UNL     1     -21.192  15.301  15.895  1.00  0.00     0.024 C 
BRANCH  11  12
HETATM   12  C7  UNL     1     -21.787  16.222  16.949  1.00  0.00    -0.010 C 
HETATM   13  C8  UNL     1     -23.251  15.999  17.123  1.00  0.00     0.024 C 
HETATM   14  C9  UNL     1     -23.723  16.252  18.500  1.00  0.00     0.117 C 
HETATM   15  N2  UNL     1     -22.993  17.175  19.300  1.00  0.00    -0.408 N 
HETATM   16  C17 UNL     1     -21.583  17.116  19.187  1.00  0.00     0.117 C 
HETATM   17  C18 UNL     1     -21.109  15.980  18.299  1.00  0.00     0.024 C 
BRANCH  15  18
HETATM   18  C10 UNL     1     -23.543  17.400  20.592  1.00  0.00     0.155 C 
BRANCH  18  19
HETATM   19  C11 UNL     1     -24.754  18.254  20.482  1.00  0.00    -0.039 A 
HETATM   20  C12 UNL     1     -25.956  17.851  21.049  1.00  0.00     0.010 A 
HETATM   21  C13 UNL     1     -27.069  18.654  20.940  1.00  0.00     0.026 A 
HETATM   22  C14 UNL     1     -27.049  19.856  20.287  1.00  0.00     0.055 A 
HETATM   23 CL1  UNL     1     -28.452  20.861  20.155  1.00  0.00    -0.083 Cl
HETATM   24  C15 UNL     1     -25.860  20.280  19.713  1.00  0.00     0.056 A 
HETATM   25 CL2  UNL     1     -25.818  21.811  18.877  1.00  0.00    -0.083 Cl
HETATM   26  C16 UNL     1     -24.746  19.464  19.828  1.00  0.00     0.034 A 
ENDBRANCH  18  19
ENDBRANCH  15  18
ENDBRANCH  11  12
ENDBRANCH  10  11
ENDBRANCH   8  10
ENDBRANCH   3   8
BRANCH   1  27
HETATM   27  O1  UNL     1     -18.715  20.679  18.634  1.00  0.00    -0.353 OA
HETATM   28  C1  UNL     1     -19.241  20.229  19.852  1.00  0.00     0.210 C 
ENDBRANCH   1  27
BRANCH   7  29
HETATM   29  O2  UNL     1     -16.207  20.649  17.688  1.00  0.00    -0.346 OA
BRANCH  29  30
HETATM   30  C22 UNL     1     -15.365  20.541  18.749  1.00  0.00     0.207 C 
BRANCH  30  31
HETATM   31  C23 UNL     1     -14.355  21.665  18.907  1.00  0.00     0.146 C 
HETATM   32  C24 UNL     1     -14.332  22.381  17.565  1.00  0.00     0.034 C 
HETATM   33  C25 UNL     1     -12.934  22.849  17.319  1.00  0.00     0.003 C 
HETATM   34  C26 UNL     1     -12.576  24.063  18.146  1.00  0.00     0.010 C 
HETATM   35  C27 UNL     1     -12.838  23.892  19.595  1.00  0.00     0.043 C 
HETATM   36  C29 UNL     1     -14.237  23.721  20.039  1.00  0.00     0.060 C 
HETATM   37  C30 UNL     1     -15.173  24.798  19.529  1.00  0.00     0.046 C 
HETATM   38  C31 UNL     1     -14.202  23.956  21.571  1.00  0.00     0.046 C 
HETATM   39  O4  UNL     1     -14.828  22.510  19.875  1.00  0.00    -0.373 OA
BRANCH  35  40
HETATM   40  C28 UNL     1     -12.234  25.126  20.284  1.00  0.00     0.171 C 
BRANCH  40  41
HETATM   41  O3  UNL     1     -10.858  25.069  20.033  1.00  0.00    -0.400 OA
ATOM     42  H3  UNL     1     -10.707  25.636  19.286  1.00  0.00     0.209 HD
ENDBRANCH  40  41
ENDBRANCH  35  40
ENDBRANCH  30  31
ENDBRANCH  29  30
ENDBRANCH   7  29
TORSDOF 12
ENDMDL
MODEL 3
REMARK VINA RESULT: -9.103879962      4.613     10.762
REMARK  12 active torsions:
REMARK  status: ('A' for Active; 'I' for Inactive)
REMARK    1  A    between atoms: O1_2  and  C2_3 
REMARK    2  A    between atoms: C4_5  and  N1_6 
REMARK    3  A    between atoms: N1_6  and  C5_8 
REMARK    4  A    between atoms: C5_8  and  C6_9 
REMARK    5  A    between atoms: C6_9  and  C7_10 
REMARK    6  A    between atoms: N2_13  and  C10_14 
REMARK    7  A    between atoms: C10_14  and  C11_15 
REMARK    8  A    between atoms: C21_28  and  O2_29 
REMARK    9  A    between atoms: O2_29  and  C22_30 
REMARK   10  A    between atoms: C22_30  and  C23_31 
REMARK   11  A    between atoms: C27_35  and  C28_36 
REMARK   12  A    between atoms: C28_36  and  O3_37 
ROOT
HETATM    1  C2  UNL     1     -16.609  20.810  18.641  1.00  0.00     0.103 A 
HETATM    2  C3  UNL     1     -16.134  22.002  19.120  1.00  0.00     0.072 A 
HETATM    3  C4  UNL     1     -15.220  22.771  18.427  1.00  0.00     0.070 A 
HETATM    4  C19 UNL     1     -14.789  22.297  17.207  1.00  0.00     0.145 A 
HETATM    5  F1  UNL     1     -13.896  23.051  16.526  1.00  0.00    -0.204 F 
HETATM    6  C20 UNL     1     -15.268  21.084  16.710  1.00  0.00     0.084 A 
HETATM    7  C21 UNL     1     -16.173  20.322  17.398  1.00  0.00     0.105 A 
ENDROOT
BRANCH   3   8
HETATM    8  N1  UNL     1     -14.728  24.001  18.954  1.00  0.00    -0.387 N 
ATOM      9  H1  UNL     1     -14.666  24.828  18.361  1.00  0.00     0.159 HD
BRANCH   8  10
HETATM   10  C5  UNL     1     -14.319  24.061  20.341  1.00  0.00     0.120 C 
BRANCH  10  11
HETATM   11  C6  UNL     1     -12.881  24.503  20.480  1.00  0.00     0.024 C 
BRANCH  11  12
HETATM   12  C7  UNL     1     -12.462  25.115  19.153  1.00  0.00    -0.010 C 
HETATM   13  C8  UNL     1     -12.051  26.541  19.300  1.00  0.00     0.024 C 
HETATM   14  C9  UNL     1     -11.007  26.952  18.340  1.00  0.00     0.117 C 
HETATM   15  N2  UNL     1     -10.929  26.262  17.098  1.00  0.00    -0.408 N 
HETATM   16  C17 UNL     1     -11.127  24.862  17.152  1.00  0.00     0.117 C 
HETATM   17  C18 UNL     1     -11.278  24.341  18.570  1.00  0.00     0.024 C 
BRANCH  15  18
HETATM   18  C10 UNL     1      -9.931  26.754  16.212  1.00  0.00     0.155 C 
BRANCH  18  19
HETATM   19  C11 UNL     1     -10.517  26.964  14.863  1.00  0.00    -0.039 A 
HETATM   20  C12 UNL     1     -10.948  28.224  14.468  1.00  0.00     0.010 A 
HETATM   21  C13 UNL     1     -11.486  28.403  13.213  1.00  0.00     0.026 A 
HETATM   22  C14 UNL     1     -11.621  27.380  12.316  1.00  0.00     0.055 A 
HETATM   23 CL1  UNL     1     -12.299  27.613  10.741  1.00  0.00    -0.083 Cl
HETATM   24  C15 UNL     1     -11.197  26.112  12.687  1.00  0.00     0.056 A 
HETATM   25 CL2  UNL     1     -11.363  24.795  11.554  1.00  0.00    -0.083 Cl
HETATM   26  C16 UNL     1     -10.657  25.942  13.952  1.00  0.00     0.034 A 
ENDBRANCH  18  19
ENDBRANCH  15  18
ENDBRANCH  11  12
ENDBRANCH  10  11
ENDBRANCH   8  10
ENDBRANCH   3   8
BRANCH   1  27
HETATM   27  O1  UNL     1     -17.527  20.068  19.370  1.00  0.00    -0.353 OA
HETATM   28  C1  UNL     1     -18.786  20.536  19.768  1.00  0.00     0.210 C 
ENDBRANCH   1  27
BRANCH   7  29
HETATM   29  O2  UNL     1     -16.680  19.151  16.998  1.00  0.00    -0.346 OA
BRANCH  29  30
HETATM   30  C22 UNL     1     -17.305  18.694  15.882  1.00  0.00     0.207 C 
BRANCH  30  31
HETATM   31  C23 UNL     1     -18.448  17.720  16.118  1.00  0.00     0.146 C 
HETATM   32  C24 UNL     1     -19.471  18.489  16.940  1.00  0.00     0.034 C 
HETATM   33  C25 UNL     1     -20.118  17.526  17.883  1.00  0.00     0.003 C 
HETATM   34  C26 UNL     1     -21.120  16.627  17.194  1.00  0.00     0.010 C 
HETATM   35  C27 UNL     1     -20.572  15.930  16.006  1.00  0.00     0.043 C 
HETATM   36  C29 UNL     1     -20.163  16.744  14.843  1.00  0.00     0.060 C 
HETATM   37  C30 UNL     1     -21.237  17.699  14.360  1.00  0.00     0.046 C 
HETATM   38  C31 UNL     1     -20.017  15.733  13.678  1.00  0.00     0.046 C 
HETATM   39  O4  UNL     1     -18.979  17.406  14.896  1.00  0.00    -0.373 OA
BRANCH  35  40
HETATM   40  C28 UNL     1     -21.652  14.927  15.568  1.00  0.00     0.171 C 
BRANCH  40  41
HETATM   41  O3  UNL     1     -22.651  14.989  16.546  1.00  0.00    -0.400 OA
ATOM     42  H3  UNL     1     -23.080  15.828  16.426  1.00  0.00     0.209 HD
ENDBRANCH  40  41
ENDBRANCH  35  40
ENDBRANCH  30  31
ENDBRANCH  29  30
ENDBRANCH   7  29
TORSDOF 12
ENDMDL
MODEL 4
REMARK VINA RESULT: -9.097555063      4.261     10.331
REMARK  12 active torsions:
REMARK  status: ('A' for Active; 'I' for Inactive)
REMARK    1  A    between atoms: O1_2  and  C2_3 
REMARK    2  A    between atoms: C4_5  and  N1_6 
REMARK    3  A    between atoms: N1_6  and  C5_8 
REMARK    4  A    between atoms: C5_8  and  C6_9 
REMARK    5  A    between atoms: C6_9  and  C7_10 
REMARK    6  A    between atoms: N2_13  and  C10_14 
REMARK    7  A    between atoms: C10_14  and  C11_15 
REMARK    8  A    between atoms: C21_28  and  O2_29 
REMARK    9  A    between atoms: O2_29  and  C22_30 
REMARK   10  A    between atoms: C22_30  and  C23_31 
REMARK   11  A    between atoms: C27_35  and  C28_36 
REMARK   12  A    between atoms: C28_36  and  O3_37 
ROOT
HETATM    1  C2  UNL     1     -14.173  22.402  17.519  1.00  0.00     0.103 A 
HETATM    2  C3  UNL     1     -13.276  23.247  18.117  1.00  0.00     0.072 A 
HETATM    3  C4  UNL     1     -13.460  23.747  19.391  1.00  0.00     0.070 A 
HETATM    4  C19 UNL     1     -14.599  23.361  20.064  1.00  0.00     0.145 A 
HETATM    5  F1  UNL     1     -14.780  23.847  21.313  1.00  0.00    -0.204 F 
HETATM    6  C20 UNL     1     -15.519  22.499  19.463  1.00  0.00     0.084 A 
HETATM    7  C21 UNL     1     -15.336  22.006  18.200  1.00  0.00     0.105 A 
ENDROOT
BRANCH   3   8
HETATM    8  N1  UNL     1     -12.520  24.637  19.986  1.00  0.00    -0.387 N 
ATOM      9  H1  UNL     1     -12.699  25.036  20.908  1.00  0.00     0.159 HD
BRANCH   8  10
HETATM   10  C5  UNL     1     -11.309  24.967  19.268  1.00  0.00     0.120 C 
BRANCH  10  11
HETATM   11  C6  UNL     1     -11.245  26.437  18.926  1.00  0.00     0.024 C 
BRANCH  11  12
HETATM   12  C7  UNL     1     -11.309  26.556  17.411  1.00  0.00    -0.010 C 
HETATM   13  C8  UNL     1     -10.655  27.803  16.919  1.00  0.00     0.024 C 
HETATM   14  C9  UNL     1     -10.040  27.655  15.585  1.00  0.00     0.117 C 
HETATM   15  N2  UNL     1     -10.581  26.681  14.701  1.00  0.00    -0.408 N 
HETATM   16  C17 UNL     1     -10.958  25.450  15.289  1.00  0.00     0.117 C 
HETATM   17  C18 UNL     1     -10.601  25.365  16.762  1.00  0.00     0.024 C 
BRANCH  15  18
HETATM   18  C10 UNL     1      -9.965  26.640  13.420  1.00  0.00     0.155 C 
BRANCH  18  19
HETATM   19  C11 UNL     1     -10.953  27.008  12.374  1.00  0.00    -0.039 A 
HETATM   20  C12 UNL     1     -10.533  27.366  11.100  1.00  0.00     0.010 A 
HETATM   21  C13 UNL     1     -11.462  27.703  10.141  1.00  0.00     0.026 A 
HETATM   22  C14 UNL     1     -12.807  27.703  10.386  1.00  0.00     0.055 A 
HETATM   23 CL1  UNL     1     -13.969  28.128   9.175  1.00  0.00    -0.083 Cl
HETATM   24  C15 UNL     1     -13.252  27.349  11.651  1.00  0.00     0.056 A 
HETATM   25 CL2  UNL     1     -14.965  27.344  11.980  1.00  0.00    -0.083 Cl
HETATM   26  C16 UNL     1     -12.309  27.011  12.609  1.00  0.00     0.034 A 
ENDBRANCH  18  19
ENDBRANCH  15  18
ENDBRANCH  11  12
ENDBRANCH  10  11
ENDBRANCH   8  10
ENDBRANCH   3   8
BRANCH   1  27
HETATM   27  O1  UNL     1     -13.949  21.923  16.235  1.00  0.00    -0.353 OA
HETATM   28  C1  UNL     1     -13.612  22.727  15.138  1.00  0.00     0.210 C 
ENDBRANCH   1  27
BRANCH   7  29
HETATM   29  O2  UNL     1     -16.164  21.181  17.551  1.00  0.00    -0.346 OA
BRANCH  29  30
HETATM   30  C22 UNL     1     -17.399  21.285  16.993  1.00  0.00     0.207 C 
BRANCH  30  31
HETATM   31  C23 UNL     1     -18.399  20.216  17.401  1.00  0.00     0.146 C 
HETATM   32  C24 UNL     1     -17.710  18.889  17.122  1.00  0.00     0.034 C 
HETATM   33  C25 UNL     1     -18.753  17.917  16.672  1.00  0.00     0.003 C 
HETATM   34  C26 UNL     1     -19.602  17.410  17.816  1.00  0.00     0.010 C 
HETATM   35  C27 UNL     1     -20.195  18.491  18.639  1.00  0.00     0.043 C 
HETATM   36  C29 UNL     1     -19.285  19.367  19.405  1.00  0.00     0.060 C 
HETATM   37  C30 UNL     1     -18.306  18.611  20.280  1.00  0.00     0.046 C 
HETATM   38  C31 UNL     1     -20.198  20.101  20.421  1.00  0.00     0.046 C 
HETATM   39  O4  UNL     1     -18.619  20.349  18.746  1.00  0.00    -0.373 OA
BRANCH  35  40
HETATM   40  C28 UNL     1     -21.170  17.802  19.607  1.00  0.00     0.171 C 
BRANCH  40  41
HETATM   41  O3  UNL     1     -20.876  16.435  19.536  1.00  0.00    -0.400 OA
ATOM     42  H3  UNL     1     -21.466  16.010  20.149  1.00  0.00     0.209 HD
ENDBRANCH  40  41
ENDBRANCH  35  40
ENDBRANCH  30  31
ENDBRANCH  29  30
ENDBRANCH   7  29
TORSDOF 12
ENDMDL
MODEL 5
REMARK VINA RESULT: -8.993127866      5.373      9.431
REMARK  12 active torsions:
REMARK  status: ('A' for Active; 'I' for Inactive)
REMARK    1  A    between atoms: O1_2  and  C2_3 
REMARK    2  A    between atoms: C4_5  and  N1_6 
REMARK    3  A    between atoms: N1_6  and  C5_8 
REMARK    4  A    between atoms: C5_8  and  C6_9 
REMARK    5  A    between atoms: C6_9  and  C7_10 
REMARK    6  A    between atoms: N2_13  and  C10_14 
REMARK    7  A    between atoms: C10_14  and  C11_15 
REMARK    8  A    between atoms: C21_28  and  O2_29 
REMARK    9  A    between atoms: O2_29  and  C22_30 
REMARK   10  A    between atoms: C22_30  and  C23_31 
REMARK   11  A    between atoms: C27_35  and  C28_36 
REMARK   12  A    between atoms: C28_36  and  O3_37 
ROOT
HETATM    1  C2  UNL     1     -19.310  18.287  17.395  1.00  0.00     0.103 A 
HETATM    2  C3  UNL     1     -19.969  17.293  16.720  1.00  0.00     0.072 A 
HETATM    3  C4  UNL     1     -19.571  16.851  15.474  1.00  0.00     0.070 A 
HETATM    4  C19 UNL     1     -18.464  17.449  14.913  1.00  0.00     0.145 A 
HETATM    5  F1  UNL     1     -18.072  17.015  13.693  1.00  0.00    -0.204 F 
HETATM    6  C20 UNL     1     -17.786  18.462  15.593  1.00  0.00     0.084 A 
HETATM    7  C21 UNL     1     -18.182  18.901  16.828  1.00  0.00     0.105 A 
ENDROOT
BRANCH   3   8
HETATM    8  N1  UNL     1     -20.282  15.825  14.785  1.00  0.00    -0.387 N 
ATOM      9  H1  UNL     1     -20.061  15.608  13.813  1.00  0.00     0.159 HD
BRANCH   8  10
HETATM   10  C5  UNL     1     -21.321  15.097  15.480  1.00  0.00     0.120 C 
BRANCH  10  11
HETATM   11  C6  UNL     1     -22.690  15.409  14.925  1.00  0.00     0.024 C 
BRANCH  11  12
HETATM   12  C7  UNL     1     -23.466  16.141  16.009  1.00  0.00    -0.010 C 
HETATM   13  C8  UNL     1     -24.940  16.015  15.824  1.00  0.00     0.024 C 
HETATM   14  C9  UNL     1     -25.693  16.018  17.095  1.00  0.00     0.117 C 
HETATM   15  N2  UNL     1     -25.121  16.690  18.211  1.00  0.00    -0.408 N 
HETATM   16  C17 UNL     1     -23.724  16.533  18.381  1.00  0.00     0.117 C 
HETATM   17  C18 UNL     1     -23.112  15.568  17.383  1.00  0.00     0.024 C 
BRANCH  15  18
HETATM   18  C10 UNL     1     -25.932  16.690  19.378  1.00  0.00     0.155 C 
BRANCH  18  19
HETATM   19  C11 UNL     1     -26.579  18.017  19.541  1.00  0.00    -0.039 A 
HETATM   20  C12 UNL     1     -27.866  18.118  20.056  1.00  0.00     0.010 A 
HETATM   21  C13 UNL     1     -28.451  19.356  20.202  1.00  0.00     0.026 A 
HETATM   22  C14 UNL     1     -27.815  20.517  19.859  1.00  0.00     0.055 A 
HETATM   23 CL1  UNL     1     -28.558  22.069  20.046  1.00  0.00    -0.083 Cl
HETATM   24  C15 UNL     1     -26.530  20.442  19.343  1.00  0.00     0.056 A 
HETATM   25 CL2  UNL     1     -25.705  21.915  18.899  1.00  0.00    -0.083 Cl
HETATM   26  C16 UNL     1     -25.950  19.192  19.200  1.00  0.00     0.034 A 
ENDBRANCH  18  19
ENDBRANCH  15  18
ENDBRANCH  11  12
ENDBRANCH  10  11
ENDBRANCH   8  10
ENDBRANCH   3   8
BRANCH   1  27
HETATM   27  O1  UNL     1     -19.744  18.701  18.646  1.00  0.00    -0.353 OA
HETATM   28  C1  UNL     1     -20.379  17.871  19.580  1.00  0.00     0.210 C 
ENDBRANCH   1  27
BRANCH   7  29
HETATM   29  O2  UNL     1     -17.594  19.864  17.545  1.00  0.00    -0.346 OA
BRANCH  29  30
HETATM   30  C22 UNL     1     -17.566  21.221  17.511  1.00  0.00     0.207 C 
BRANCH  30  31
HETATM   31  C23 UNL     1     -16.227  21.846  17.157  1.00  0.00     0.146 C 
HETATM   32  C24 UNL     1     -15.280  21.432  18.273  1.00  0.00     0.034 C 
HETATM   33  C25 UNL     1     -14.326  22.560  18.506  1.00  0.00     0.003 C 
HETATM   34  C26 UNL     1     -13.266  22.652  17.432  1.00  0.00     0.010 C 
HETATM   35  C27 UNL     1     -13.818  22.691  16.057  1.00  0.00     0.043 C 
HETATM   36  C29 UNL     1     -14.541  21.503  15.558  1.00  0.00     0.060 C 
HETATM   37  C30 UNL     1     -13.761  20.211  15.703  1.00  0.00     0.046 C 
HETATM   38  C31 UNL     1     -14.636  21.707  14.025  1.00  0.00     0.046 C 
HETATM   39  O4  UNL     1     -15.816  21.296  15.973  1.00  0.00    -0.373 OA
BRANCH  35  40
HETATM   40  C28 UNL     1     -12.627  22.986  15.130  1.00  0.00     0.171 C 
BRANCH  40  41
HETATM   41  O3  UNL     1     -12.219  24.289  15.435  1.00  0.00    -0.400 OA
ATOM     42  H3  UNL     1     -11.968  24.683  14.608  1.00  0.00     0.209 HD
ENDBRANCH  40  41
ENDBRANCH  35  40
ENDBRANCH  30  31
ENDBRANCH  29  30
ENDBRANCH   7  29
TORSDOF 12
ENDMDL
