MODEL 1
REMARK VINA RESULT: -8.985544160      0.000      0.000
REMARK  12 active torsions:
REMARK  status: ('A' for Active; 'I' for Inactive)
REMARK       I    between atoms: C1_2  and  N1_3 
REMARK    1  A    between atoms: C1_2  and  C12_19 
REMARK    2  A    between atoms: N1_3  and  C2_5 
REMARK    3  A    between atoms: C2_5  and  C3_6 
REMARK    4  A    between atoms: C3_6  and  C4_7 
REMARK    5  A    between atoms: C4_7  and  C5_8 
REMARK    6  A    between atoms: C5_8  and  C6_9 
REMARK    7  A    between atoms: C6_9  and  N2_10 
REMARK    8  A    between atoms: N2_10  and  C7_12 
REMARK    9  A    between atoms: C15_23  and  O2_24 
REMARK   10  A    between atoms: O2_24  and  C16_25 
REMARK   11  A    between atoms: C23_36  and  O5_37 
REMARK   12  A    between atoms: O5_37  and  C24_38 
ROOT
HETATM    1  C12 UNL     1     -15.748  20.597  17.406  1.00  0.00     0.036 A 
HETATM    2  C13 UNL     1     -15.810  20.631  16.031  1.00  0.00     0.044 A 
HETATM    3  C14 UNL     1     -15.053  21.515  15.309  1.00  0.00     0.071 A 
HETATM    4 CL1  UNL     1     -15.143  21.404  13.545  1.00  0.00    -0.081 Cl
HETATM    5  C15 UNL     1     -14.205  22.401  15.972  1.00  0.00     0.131 A 
HETATM    6  C23 UNL     1     -14.098  22.410  17.371  1.00  0.00     0.105 A 
HETATM    7  C29 UNL     1     -14.921  21.455  18.036  1.00  0.00     0.057 A 
ENDROOT
BRANCH   1   8
HETATM    8  C1  UNL     1     -16.613  19.607  18.127  1.00  0.00     0.251 C 
HETATM    9  O1  UNL     1     -16.709  18.467  17.615  1.00  0.00    -0.268 OA
HETATM   10  N1  UNL     1     -17.237  20.018  19.290  1.00  0.00    -0.357 N 
ATOM     11  H1  UNL     1     -17.005  20.983  19.526  1.00  0.00     0.162 HD
BRANCH  10  12
HETATM   12  C2  UNL     1     -18.115  19.442  20.234  1.00  0.00     0.123 C 
BRANCH  12  13
HETATM   13  C3  UNL     1     -19.470  19.987  20.450  1.00  0.00     0.020 C 
BRANCH  13  14
HETATM   14  C4  UNL     1     -20.666  19.158  20.243  1.00  0.00     0.003 C 
BRANCH  14  15
HETATM   15  C5  UNL     1     -20.331  17.769  19.681  1.00  0.00     0.020 C 
BRANCH  15  16
HETATM   16  C6  UNL     1     -20.875  17.675  18.251  1.00  0.00     0.119 C 
BRANCH  16  17
HETATM   17  N2  UNL     1     -19.796  17.802  17.301  1.00  0.00    -0.390 N 
ATOM     18  H2  UNL     1     -19.055  18.471  17.510  1.00  0.00     0.159 HD
BRANCH  17  19
HETATM   19  C7  UNL     1     -19.706  17.136  16.218  1.00  0.00     0.030 A 
HETATM   20  C8  UNL     1     -20.489  16.001  16.112  1.00  0.00     0.046 A 
HETATM   21  C9  UNL     1     -20.436  15.243  14.967  1.00  0.00     0.089 A 
HETATM   22  N3  UNL     1     -19.623  15.596  13.938  1.00  0.00    -0.375 N 
HETATM   23  C10 UNL     1     -18.850  16.692  14.008  1.00  0.00     0.089 A 
ATOM     24  H3  UNL     1     -19.599  15.018  13.098  1.00  0.00     0.164 HD
HETATM   25  C11 UNL     1     -18.895  17.464  15.155  1.00  0.00     0.046 A 
ENDBRANCH  17  19
ENDBRANCH  16  17
ENDBRANCH  15  16
ENDBRANCH  14  15
ENDBRANCH  13  14
ENDBRANCH  12  13
ENDBRANCH  10  12
ENDBRANCH   1   8
BRANCH   6  26
HETATM   26  O5  UNL     1     -13.349  23.176  18.101  1.00  0.00    -0.343 OA
BRANCH  26  27
HETATM   27  C24 UNL     1     -12.608  23.936  18.826  1.00  0.00     0.129 C 
HETATM   28  C25 UNL     1     -13.341  25.044  19.614  1.00  0.00     0.032 C 
HETATM   29  C26 UNL     1     -12.150  25.776  20.232  1.00  0.00     0.002 C 
HETATM   30  C27 UNL     1     -11.310  25.991  18.986  1.00  0.00     0.002 C 
HETATM   31  C28 UNL     1     -11.536  24.771  18.123  1.00  0.00     0.032 C 
ENDBRANCH  26  27
ENDBRANCH   6  26
BRANCH   5  32
HETATM   32  O2  UNL     1     -13.506  23.247  15.214  1.00  0.00    -0.301 OA
BRANCH  32  33
HETATM   33  C16 UNL     1     -12.456  23.312  14.412  1.00  0.00     0.136 A 
HETATM   34  C17 UNL     1     -11.455  22.399  14.311  1.00  0.00     0.092 A 
HETATM   35 CL2  UNL     1     -11.497  20.938  15.238  1.00  0.00    -0.079 Cl
HETATM   36  C18 UNL     1     -10.363  22.535  13.447  1.00  0.00     0.061 A 
HETATM   37 CL3  UNL     1      -9.114  21.311  13.381  1.00  0.00    -0.082 Cl
HETATM   38  C19 UNL     1     -10.266  23.643  12.638  1.00  0.00     0.065 A 
HETATM   39  C20 UNL     1     -11.258  24.591  12.707  1.00  0.00     0.109 A 
HETATM   40  C21 UNL     1     -12.318  24.439  13.560  1.00  0.00     0.140 A 
HETATM   41  O4  UNL     1     -11.365  25.775  11.992  1.00  0.00    -0.323 OA
HETATM   42  O3  UNL     1     -13.128  25.539  13.400  1.00  0.00    -0.320 OA
HETATM   43  C22 UNL     1     -12.566  26.396  12.400  1.00  0.00     0.352 A 
ENDBRANCH  32  33
ENDBRANCH   5  32
TORSDOF 12
ENDMDL
MODEL 2
REMARK VINA RESULT: -8.966557965      2.044      4.062
REMARK  12 active torsions:
REMARK  status: ('A' for Active; 'I' for Inactive)
REMARK       I    between atoms: C1_2  and  N1_3 
REMARK    1  A    between atoms: C1_2  and  C12_19 
REMARK    2  A    between atoms: N1_3  and  C2_5 
REMARK    3  A    between atoms: C2_5  and  C3_6 
REMARK    4  A    between atoms: C3_6  and  C4_7 
REMARK    5  A    between atoms: C4_7  and  C5_8 
REMARK    6  A    between atoms: C5_8  and  C6_9 
REMARK    7  A    between atoms: C6_9  and  N2_10 
REMARK    8  A    between atoms: N2_10  and  C7_12 
REMARK    9  A    between atoms: C15_23  and  O2_24 
REMARK   10  A    between atoms: O2_24  and  C16_25 
REMARK   11  A    between atoms: C23_36  and  O5_37 
REMARK   12  A    between atoms: O5_37  and  C24_38 
ROOT
HETATM    1  C12 UNL     1     -15.884  20.204  16.069  1.00  0.00     0.036 A 
HETATM    2  C13 UNL     1     -14.976  20.111  15.039  1.00  0.00     0.044 A 
HETATM    3  C14 UNL     1     -13.817  20.839  15.047  1.00  0.00     0.071 A 
HETATM    4 CL1  UNL     1     -12.681  20.568  13.718  1.00  0.00    -0.081 Cl
HETATM    5  C15 UNL     1     -13.546  21.695  16.114  1.00  0.00     0.131 A 
HETATM    6  C23 UNL     1     -14.432  21.829  17.193  1.00  0.00     0.105 A 
HETATM    7  C29 UNL     1     -15.610  21.032  17.097  1.00  0.00     0.057 A 
ENDROOT
BRANCH   1   8
HETATM    8  C1  UNL     1     -17.135  19.382  15.984  1.00  0.00     0.251 C 
HETATM    9  O1  UNL     1     -18.123  19.792  16.638  1.00  0.00    -0.268 OA
HETATM   10  N1  UNL     1     -17.109  18.242  15.203  1.00  0.00    -0.357 N 
ATOM     11  H1  UNL     1     -16.204  18.110  14.752  1.00  0.00     0.162 HD
BRANCH  10  12
HETATM   12  C2  UNL     1     -18.018  17.213  14.870  1.00  0.00     0.123 C 
BRANCH  12  13
HETATM   13  C3  UNL     1     -19.399  17.521  14.450  1.00  0.00     0.020 C 
BRANCH  13  14
HETATM   14  C4  UNL     1     -20.518  17.453  15.401  1.00  0.00     0.003 C 
BRANCH  14  15
HETATM   15  C5  UNL     1     -20.565  16.120  16.161  1.00  0.00     0.020 C 
BRANCH  15  16
HETATM   16  C6  UNL     1     -20.690  16.415  17.660  1.00  0.00     0.119 C 
BRANCH  16  17
HETATM   17  N2  UNL     1     -19.536  17.151  18.119  1.00  0.00    -0.390 N 
ATOM     18  H2  UNL     1     -18.644  16.972  17.658  1.00  0.00     0.159 HD
BRANCH  17  19
HETATM   19  C7  UNL     1     -19.556  18.009  19.062  1.00  0.00     0.030 A 
HETATM   20  C8  UNL     1     -20.781  18.569  19.375  1.00  0.00     0.046 A 
HETATM   21  C9  UNL     1     -20.865  19.500  20.382  1.00  0.00     0.089 A 
HETATM   22  N3  UNL     1     -19.758  19.875  21.074  1.00  0.00    -0.375 N 
HETATM   23  C10 UNL     1     -18.553  19.350  20.796  1.00  0.00     0.089 A 
ATOM     24  H3  UNL     1     -19.844  20.568  21.818  1.00  0.00     0.164 HD
HETATM   25  C11 UNL     1     -18.456  18.413  19.784  1.00  0.00     0.046 A 
ENDBRANCH  17  19
ENDBRANCH  16  17
ENDBRANCH  15  16
ENDBRANCH  14  15
ENDBRANCH  13  14
ENDBRANCH  12  13
ENDBRANCH  10  12
ENDBRANCH   1   8
BRANCH   6  26
HETATM   26  O5  UNL     1     -14.296  22.584  18.239  1.00  0.00    -0.343 OA
BRANCH  26  27
HETATM   27  C24 UNL     1     -14.160  23.331  19.275  1.00  0.00     0.129 C 
HETATM   28  C25 UNL     1     -14.763  22.784  20.589  1.00  0.00     0.032 C 
HETATM   29  C26 UNL     1     -14.509  23.968  21.522  1.00  0.00     0.002 C 
HETATM   30  C27 UNL     1     -15.100  25.085  20.679  1.00  0.00     0.002 C 
HETATM   31  C28 UNL     1     -14.800  24.721  19.245  1.00  0.00     0.032 C 
ENDBRANCH  26  27
ENDBRANCH   6  26
BRANCH   5  32
HETATM   32  O2  UNL     1     -12.408  22.389  16.057  1.00  0.00    -0.301 OA
BRANCH  32  33
HETATM   33  C16 UNL     1     -11.934  23.605  15.844  1.00  0.00     0.136 A 
HETATM   34  C17 UNL     1     -11.862  24.252  14.651  1.00  0.00     0.092 A 
HETATM   35 CL2  UNL     1     -12.488  23.518  13.213  1.00  0.00    -0.079 Cl
HETATM   36  C18 UNL     1     -11.337  25.538  14.495  1.00  0.00     0.061 A 
HETATM   37 CL3  UNL     1     -11.280  26.298  12.918  1.00  0.00    -0.082 Cl
HETATM   38  C19 UNL     1     -10.856  26.218  15.588  1.00  0.00     0.065 A 
HETATM   39  C20 UNL     1     -10.910  25.603  16.816  1.00  0.00     0.109 A 
HETATM   40  C21 UNL     1     -11.429  24.342  16.948  1.00  0.00     0.140 A 
HETATM   41  O4  UNL     1     -10.488  26.094  18.042  1.00  0.00    -0.323 OA
HETATM   42  O3  UNL     1     -11.344  24.007  18.279  1.00  0.00    -0.320 OA
HETATM   43  C22 UNL     1     -10.772  25.100  19.005  1.00  0.00     0.352 A 
ENDBRANCH  32  33
ENDBRANCH   5  32
TORSDOF 12
ENDMDL
MODEL 3
REMARK VINA RESULT: -8.881753817      2.164      3.925
REMARK  12 active torsions:
REMARK  status: ('A' for Active; 'I' for Inactive)
REMARK       I    between atoms: C1_2  and  N1_3 
REMARK    1  A    between atoms: C1_2  and  C12_19 
REMARK    2  A    between atoms: N1_3  and  C2_5 
REMARK    3  A    between atoms: C2_5  and  C3_6 
REMARK    4  A    between atoms: C3_6  and  C4_7 
REMARK    5  A    between atoms: C4_7  and  C5_8 
REMARK    6  A    between atoms: C5_8  and  C6_9 
REMARK    7  A    between atoms: C6_9  and  N2_10 
REMARK    8  A    between atoms: N2_10  and  C7_12 
REMARK    9  A    between atoms: C15_23  and  O2_24 
REMARK   10  A    between atoms: O2_24  and  C16_25 
REMARK   11  A    between atoms: C23_36  and  O5_37 
REMARK   12  A    between atoms: O5_37  and  C24_38 
ROOT
HETATM    1  C12 UNL     1     -15.795  20.344  16.171  1.00  0.00     0.036 A 
HETATM    2  C13 UNL     1     -14.889  20.242  15.140  1.00  0.00     0.044 A 
HETATM    3  C14 UNL     1     -13.733  20.975  15.135  1.00  0.00     0.071 A 
HETATM    4 CL1  UNL     1     -12.600  20.691  13.806  1.00  0.00    -0.081 Cl
HETATM    5  C15 UNL     1     -13.463  21.847  16.190  1.00  0.00     0.131 A 
HETATM    6  C23 UNL     1     -14.347  21.991  17.269  1.00  0.00     0.105 A 
HETATM    7  C29 UNL     1     -15.521  21.187  17.187  1.00  0.00     0.057 A 
ENDROOT
BRANCH   1   8
HETATM    8  C1  UNL     1     -17.041  19.515  16.101  1.00  0.00     0.251 C 
HETATM    9  O1  UNL     1     -18.079  20.017  16.596  1.00  0.00    -0.268 OA
HETATM   10  N1  UNL     1     -16.960  18.271  15.505  1.00  0.00    -0.357 N 
ATOM     11  H1  UNL     1     -16.020  18.075  15.161  1.00  0.00     0.162 HD
BRANCH  10  12
HETATM   12  C2  UNL     1     -17.846  17.201  15.252  1.00  0.00     0.123 C 
BRANCH  12  13
HETATM   13  C3  UNL     1     -18.630  17.138  14.002  1.00  0.00     0.020 C 
BRANCH  13  14
HETATM   14  C4  UNL     1     -20.100  17.117  14.025  1.00  0.00     0.003 C 
BRANCH  14  15
HETATM   15  C5  UNL     1     -20.669  15.691  14.003  1.00  0.00     0.020 C 
BRANCH  15  16
HETATM   16  C6  UNL     1     -21.099  15.313  15.425  1.00  0.00     0.119 C 
BRANCH  16  17
HETATM   17  N2  UNL     1     -21.426  16.500  16.177  1.00  0.00    -0.390 N 
ATOM     18  H2  UNL     1     -21.887  17.264  15.682  1.00  0.00     0.159 HD
BRANCH  17  19
HETATM   19  C7  UNL     1     -21.180  16.659  17.418  1.00  0.00     0.030 A 
HETATM   20  C8  UNL     1     -21.793  15.785  18.297  1.00  0.00     0.046 A 
HETATM   21  C9  UNL     1     -21.565  15.907  19.646  1.00  0.00     0.089 A 
HETATM   22  N3  UNL     1     -20.744  16.876  20.127  1.00  0.00    -0.375 N 
HETATM   23  C10 UNL     1     -20.132  17.740  19.300  1.00  0.00     0.089 A 
ATOM     24  H3  UNL     1     -20.589  16.948  21.132  1.00  0.00     0.164 HD
HETATM   25  C11 UNL     1     -20.354  17.628  17.940  1.00  0.00     0.046 A 
ENDBRANCH  17  19
ENDBRANCH  16  17
ENDBRANCH  15  16
ENDBRANCH  14  15
ENDBRANCH  13  14
ENDBRANCH  12  13
ENDBRANCH  10  12
ENDBRANCH   1   8
BRANCH   6  26
HETATM   26  O5  UNL     1     -14.211  22.760  18.305  1.00  0.00    -0.343 OA
BRANCH  26  27
HETATM   27  C24 UNL     1     -14.076  23.521  19.331  1.00  0.00     0.129 C 
HETATM   28  C25 UNL     1     -14.588  22.948  20.671  1.00  0.00     0.032 C 
HETATM   29  C26 UNL     1     -14.367  24.151  21.588  1.00  0.00     0.002 C 
HETATM   30  C27 UNL     1     -15.059  25.225  20.768  1.00  0.00     0.002 C 
HETATM   31  C28 UNL     1     -14.800  24.869  19.323  1.00  0.00     0.032 C 
ENDBRANCH  26  27
ENDBRANCH   6  26
BRANCH   5  32
HETATM   32  O2  UNL     1     -12.329  22.545  16.120  1.00  0.00    -0.301 OA
BRANCH  32  33
HETATM   33  C16 UNL     1     -11.861  23.762  15.897  1.00  0.00     0.136 A 
HETATM   34  C17 UNL     1     -11.792  24.398  14.699  1.00  0.00     0.092 A 
HETATM   35 CL2  UNL     1     -12.412  23.649  13.267  1.00  0.00    -0.079 Cl
HETATM   36  C18 UNL     1     -11.274  25.687  14.532  1.00  0.00     0.061 A 
HETATM   37 CL3  UNL     1     -11.220  26.433  12.948  1.00  0.00    -0.082 Cl
HETATM   38  C19 UNL     1     -10.798  26.379  15.620  1.00  0.00     0.065 A 
HETATM   39  C20 UNL     1     -10.850  25.773  16.853  1.00  0.00     0.109 A 
HETATM   40  C21 UNL     1     -11.362  24.511  16.995  1.00  0.00     0.140 A 
HETATM   41  O4  UNL     1     -10.432  26.278  18.075  1.00  0.00    -0.323 OA
HETATM   42  O3  UNL     1     -11.276  24.188  18.329  1.00  0.00    -0.320 OA
HETATM   43  C22 UNL     1     -10.711  25.291  19.046  1.00  0.00     0.352 A 
ENDBRANCH  32  33
ENDBRANCH   5  32
TORSDOF 12
ENDMDL
MODEL 4
REMARK VINA RESULT: -8.872864028      4.239     11.310
REMARK  12 active torsions:
REMARK  status: ('A' for Active; 'I' for Inactive)
REMARK       I    between atoms: C1_2  and  N1_3 
REMARK    1  A    between atoms: C1_2  and  C12_19 
REMARK    2  A    between atoms: N1_3  and  C2_5 
REMARK    3  A    between atoms: C2_5  and  C3_6 
REMARK    4  A    between atoms: C3_6  and  C4_7 
REMARK    5  A    between atoms: C4_7  and  C5_8 
REMARK    6  A    between atoms: C5_8  and  C6_9 
REMARK    7  A    between atoms: C6_9  and  N2_10 
REMARK    8  A    between atoms: N2_10  and  C7_12 
REMARK    9  A    between atoms: C15_23  and  O2_24 
REMARK   10  A    between atoms: O2_24  and  C16_25 
REMARK   11  A    between atoms: C23_36  and  O5_37 
REMARK   12  A    between atoms: O5_37  and  C24_38 
ROOT
HETATM    1  C12 UNL     1     -17.131  20.430  17.869  1.00  0.00     0.036 A 
HETATM    2  C13 UNL     1     -17.539  20.360  19.182  1.00  0.00     0.044 A 
HETATM    3  C14 UNL     1     -18.476  19.446  19.585  1.00  0.00     0.071 A 
HETATM    4 CL1  UNL     1     -18.852  19.383  21.313  1.00  0.00    -0.081 Cl
HETATM    5  C15 UNL     1     -19.033  18.570  18.654  1.00  0.00     0.131 A 
HETATM    6  C23 UNL     1     -18.654  18.594  17.304  1.00  0.00     0.105 A 
HETATM    7  C29 UNL     1     -17.674  19.576  16.978  1.00  0.00     0.057 A 
ENDROOT
BRANCH   1   8
HETATM    8  C1  UNL     1     -16.108  21.463  17.502  1.00  0.00     0.251 C 
HETATM    9  O1  UNL     1     -15.890  21.629  16.279  1.00  0.00    -0.268 OA
HETATM   10  N1  UNL     1     -15.484  22.150  18.527  1.00  0.00    -0.357 N 
ATOM     11  H1  UNL     1     -15.828  21.861  19.443  1.00  0.00     0.162 HD
BRANCH  10  12
HETATM   12  C2  UNL     1     -14.491  23.149  18.628  1.00  0.00     0.123 C 
BRANCH  12  13
HETATM   13  C3  UNL     1     -14.788  24.461  19.236  1.00  0.00     0.020 C 
BRANCH  13  14
HETATM   14  C4  UNL     1     -14.508  24.724  20.655  1.00  0.00     0.003 C 
BRANCH  14  15
HETATM   15  C5  UNL     1     -13.036  24.486  21.020  1.00  0.00     0.020 C 
BRANCH  15  16
HETATM   16  C6  UNL     1     -12.253  25.778  20.765  1.00  0.00     0.119 C 
BRANCH  16  17
HETATM   17  N2  UNL     1     -11.082  25.501  19.968  1.00  0.00    -0.390 N 
ATOM     18  H2  UNL     1     -10.233  25.215  20.455  1.00  0.00     0.159 HD
BRANCH  17  19
HETATM   19  C7  UNL     1     -11.037  25.588  18.697  1.00  0.00     0.030 A 
HETATM   20  C8  UNL     1     -11.023  26.861  18.156  1.00  0.00     0.046 A 
HETATM   21  C9  UNL     1     -10.973  27.018  16.791  1.00  0.00     0.089 A 
HETATM   22  N3  UNL     1     -10.937  25.938  15.969  1.00  0.00    -0.375 N 
HETATM   23  C10 UNL     1     -10.949  24.689  16.462  1.00  0.00     0.089 A 
ATOM     24  H3  UNL     1     -10.901  26.078  14.959  1.00  0.00     0.164 HD
HETATM   25  C11 UNL     1     -10.999  24.517  17.834  1.00  0.00     0.046 A 
ENDBRANCH  17  19
ENDBRANCH  16  17
ENDBRANCH  15  16
ENDBRANCH  14  15
ENDBRANCH  13  14
ENDBRANCH  12  13
ENDBRANCH  10  12
ENDBRANCH   1   8
BRANCH   6  26
HETATM   26  O5  UNL     1     -19.093  17.836  16.346  1.00  0.00    -0.343 OA
BRANCH  26  27
HETATM   27  C24 UNL     1     -19.527  17.085  15.399  1.00  0.00     0.129 C 
HETATM   28  C25 UNL     1     -18.529  16.792  14.256  1.00  0.00     0.032 C 
HETATM   29  C26 UNL     1     -19.425  15.997  13.306  1.00  0.00     0.002 C 
HETATM   30  C27 UNL     1     -20.607  16.946  13.220  1.00  0.00     0.002 C 
HETATM   31  C28 UNL     1     -20.726  17.578  14.587  1.00  0.00     0.032 C 
ENDBRANCH  26  27
ENDBRANCH   6  26
BRANCH   5  32
HETATM   32  O2  UNL     1     -19.951  17.715  19.105  1.00  0.00    -0.301 OA
BRANCH  32  33
HETATM   33  C16 UNL     1     -21.256  17.502  19.139  1.00  0.00     0.136 A 
HETATM   34  C17 UNL     1     -22.159  18.117  19.946  1.00  0.00     0.092 A 
HETATM   35 CL2  UNL     1     -21.659  19.369  21.033  1.00  0.00    -0.079 Cl
HETATM   36  C18 UNL     1     -23.529  17.835  19.938  1.00  0.00     0.061 A 
HETATM   37 CL3  UNL     1     -24.624  18.676  21.015  1.00  0.00    -0.082 Cl
HETATM   38  C19 UNL     1     -24.026  16.886  19.077  1.00  0.00     0.065 A 
HETATM   39  C20 UNL     1     -23.148  16.239  18.240  1.00  0.00     0.109 A 
HETATM   40  C21 UNL     1     -21.810  16.531  18.264  1.00  0.00     0.140 A 
HETATM   41  O4  UNL     1     -23.424  15.258  17.300  1.00  0.00    -0.323 OA
HETATM   42  O3  UNL     1     -21.205  15.727  17.326  1.00  0.00    -0.320 OA
HETATM   43  C22 UNL     1     -22.199  14.923  16.682  1.00  0.00     0.352 A 
ENDBRANCH  32  33
ENDBRANCH   5  32
TORSDOF 12
ENDMDL
MODEL 5
REMARK VINA RESULT: -8.780184451      2.140      3.514
REMARK  12 active torsions:
REMARK  status: ('A' for Active; 'I' for Inactive)
REMARK       I    between atoms: C1_2  and  N1_3 
REMARK    1  A    between atoms: C1_2  and  C12_19 
REMARK    2  A    between atoms: N1_3  and  C2_5 
REMARK    3  A    between atoms: C2_5  and  C3_6 
REMARK    4  A    between atoms: C3_6  and  C4_7 
REMARK    5  A    between atoms: C4_7  and  C5_8 
REMARK    6  A    between atoms: C5_8  and  C6_9 
REMARK    7  A    between atoms: C6_9  and  N2_10 
REMARK    8  A    between atoms: N2_10  and  C7_12 
REMARK    9  A    between atoms: C15_23  and  O2_24 
REMARK   10  A    between atoms: O2_24  and  C16_25 
REMARK   11  A    between atoms: C23_36  and  O5_37 
REMARK   12  A    between atoms: O5_37  and  C24_38 
ROOT
HETATM    1  C12 UNL     1     -15.629  20.613  16.770  1.00  0.00     0.036 A 
HETATM    2  C13 UNL     1     -15.544  20.803  15.409  1.00  0.00     0.044 A 
HETATM    3  C14 UNL     1     -14.733  21.771  14.878  1.00  0.00     0.071 A 
HETATM    4 CL1  UNL     1     -14.630  21.860  13.114  1.00  0.00    -0.081 Cl
HETATM    5  C15 UNL     1     -13.981  22.584  15.724  1.00  0.00     0.131 A 
HETATM    6  C23 UNL     1     -14.026  22.435  17.118  1.00  0.00     0.105 A 
HETATM    7  C29 UNL     1     -14.895  21.403  17.578  1.00  0.00     0.057 A 
ENDROOT
BRANCH   1   8
HETATM    8  C1  UNL     1     -16.545  19.540  17.276  1.00  0.00     0.251 C 
HETATM    9  O1  UNL     1     -16.509  19.306  18.508  1.00  0.00    -0.268 OA
HETATM   10  N1  UNL     1     -17.352  18.891  16.361  1.00  0.00    -0.357 N 
ATOM     11  H1  UNL     1     -17.225  19.255  15.416  1.00  0.00     0.162 HD
BRANCH  10  12
HETATM   12  C2  UNL     1     -18.308  17.853  16.400  1.00  0.00     0.123 C 
BRANCH  12  13
HETATM   13  C3  UNL     1     -19.264  17.652  15.293  1.00  0.00     0.020 C 
BRANCH  13  14
HETATM   14  C4  UNL     1     -18.874  16.936  14.071  1.00  0.00     0.003 C 
BRANCH  14  15
HETATM   15  C5  UNL     1     -19.898  15.868  13.660  1.00  0.00     0.020 C 
BRANCH  15  16
HETATM   16  C6  UNL     1     -20.418  15.176  14.925  1.00  0.00     0.119 C 
BRANCH  16  17
HETATM   17  N2  UNL     1     -21.861  15.153  14.922  1.00  0.00    -0.390 N 
ATOM     18  H2  UNL     1     -22.329  14.839  14.072  1.00  0.00     0.159 HD
BRANCH  17  19
HETATM   19  C7  UNL     1     -22.590  15.497  15.910  1.00  0.00     0.030 A 
HETATM   20  C8  UNL     1     -23.947  15.623  15.673  1.00  0.00     0.046 A 
HETATM   21  C9  UNL     1     -24.784  15.991  16.699  1.00  0.00     0.089 A 
HETATM   22  N3  UNL     1     -24.294  16.229  17.943  1.00  0.00    -0.375 N 
HETATM   23  C10 UNL     1     -22.981  16.114  18.207  1.00  0.00     0.089 A 
ATOM     24  H3  UNL     1     -24.933  16.501  18.690  1.00  0.00     0.164 HD
HETATM   25  C11 UNL     1     -22.129  15.746  17.182  1.00  0.00     0.046 A 
ENDBRANCH  17  19
ENDBRANCH  16  17
ENDBRANCH  15  16
ENDBRANCH  14  15
ENDBRANCH  13  14
ENDBRANCH  12  13
ENDBRANCH  10  12
ENDBRANCH   1   8
BRANCH   6  26
HETATM   26  O5  UNL     1     -13.377  23.122  18.008  1.00  0.00    -0.343 OA
BRANCH  26  27
HETATM   27  C24 UNL     1     -12.735  23.801  18.889  1.00  0.00     0.129 C 
HETATM   28  C25 UNL     1     -13.585  24.747  19.766  1.00  0.00     0.032 C 
HETATM   29  C26 UNL     1     -12.486  25.435  20.575  1.00  0.00     0.002 C 
HETATM   30  C27 UNL     1     -11.571  25.867  19.442  1.00  0.00     0.002 C 
HETATM   31  C28 UNL     1     -11.664  24.778  18.400  1.00  0.00     0.032 C 
ENDBRANCH  26  27
ENDBRANCH   6  26
BRANCH   5  32
HETATM   32  O2  UNL     1     -13.223  23.518  15.147  1.00  0.00    -0.301 OA
BRANCH  32  33
HETATM   33  C16 UNL     1     -12.266  23.681  14.249  1.00  0.00     0.136 A 
HETATM   34  C17 UNL     1     -12.255  24.578  13.229  1.00  0.00     0.092 A 
HETATM   35 CL2  UNL     1     -13.550  25.710  13.036  1.00  0.00    -0.079 Cl
HETATM   36  C18 UNL     1     -11.211  24.690  12.304  1.00  0.00     0.061 A 
HETATM   37 CL3  UNL     1     -11.278  25.874  11.016  1.00  0.00    -0.082 Cl
HETATM   38  C19 UNL     1     -10.118  23.862  12.403  1.00  0.00     0.065 A 
HETATM   39  C20 UNL     1     -10.087  22.940  13.422  1.00  0.00     0.109 A 
HETATM   40  C21 UNL     1     -11.120  22.847  14.317  1.00  0.00     0.140 A 
HETATM   41  O4  UNL     1      -9.096  22.014  13.712  1.00  0.00    -0.323 OA
HETATM   42  O3  UNL     1     -10.798  21.845  15.203  1.00  0.00    -0.320 OA
HETATM   43  C22 UNL     1      -9.514  21.309  14.862  1.00  0.00     0.352 A 
ENDBRANCH  32  33
ENDBRANCH   5  32
TORSDOF 12
ENDMDL
