MODEL 1
REMARK VINA RESULT: -10.253437311      0.000      0.000
REMARK  10 active torsions:
REMARK  status: ('A' for Active; 'I' for Inactive)
REMARK    1  A    between atoms: C2_3  and  C3_4 
REMARK    2  A    between atoms: C5_6  and  O1_7 
REMARK    3  A    between atoms: O1_7  and  C6_8 
REMARK    4  A    between atoms: C6_8  and  C7_9 
REMARK    5  A    between atoms: C7_9  and  C8_10 
REMARK    6  A    between atoms: C8_10  and  N2_11 
REMARK    7  A    between atoms: N2_11  and  C9_14 
REMARK    8  A    between atoms: C9_14  and  C10_15 
REMARK    9  A    between atoms: C10_15  and  C11_16 
REMARK   10  A    between atoms: C11_16  and  N3_17 
ROOT
HETATM    1  C3  UNL     1      11.683  19.699  17.883  1.00  0.00     0.033 A 
HETATM    2  C4  UNL     1      12.331  20.247  16.816  1.00  0.00     0.053 A 
HETATM    3  C5  UNL     1      13.403  21.137  16.969  1.00  0.00     0.071 A 
HETATM    4  C22 UNL     1      13.800  21.458  18.241  1.00  0.00     0.062 A 
HETATM    5  C23 UNL     1      13.135  20.900  19.309  1.00  0.00     0.058 A 
HETATM    6 CL1  UNL     1      13.656  21.330  20.923  1.00  0.00    -0.083 Cl
HETATM    7  C24 UNL     1      12.072  20.017  19.184  1.00  0.00     0.080 A 
HETATM    8  C25 UNL     1      11.440  19.473  20.358  1.00  0.00     0.102 C 
HETATM    9  N4  UNL     1      10.952  19.044  21.323  1.00  0.00    -0.191 NA
ENDROOT
BRANCH   1  10
HETATM   10  C2  UNL     1      10.607  18.717  17.708  1.00  0.00     0.120 A 
HETATM   11  N1  UNL     1      10.426  17.794  16.753  1.00  0.00    -0.334 N 
HETATM   12  C1  UNL     1      11.272  17.491  15.624  1.00  0.00     0.158 C 
HETATM   13  C31 UNL     1       9.286  17.110  17.071  1.00  0.00     0.086 A 
HETATM   14  C26 UNL     1       8.761  17.621  18.245  1.00  0.00     0.084 A 
HETATM   15  C30 UNL     1       8.586  16.078  16.493  1.00  0.00     0.063 A 
HETATM   16  N5  UNL     1       9.597  18.595  18.596  1.00  0.00    -0.338 N 
HETATM   17  C27 UNL     1       7.609  17.153  18.839  1.00  0.00     0.063 A 
ATOM     18  H5  UNL     1       9.488  19.175  19.427  1.00  0.00     0.167 HD
HETATM   19 CL2  UNL     1       6.981  17.830  20.327  1.00  0.00    -0.082 Cl
HETATM   20  C28 UNL     1       6.924  16.123  18.252  1.00  0.00     0.028 A 
HETATM   21  C29 UNL     1       7.414  15.588  17.080  1.00  0.00     0.028 A 
HETATM   22 CL3  UNL     1       9.078  15.331  14.996  1.00  0.00    -0.082 Cl
ENDBRANCH   1  10
BRANCH   3  23
HETATM   23  O1  UNL     1      14.010  21.648  15.872  1.00  0.00    -0.351 OA
BRANCH  23  24
HETATM   24  C6  UNL     1      15.233  22.189  15.602  1.00  0.00     0.177 C 
BRANCH  24  25
HETATM   25  C7  UNL     1      15.458  22.725  14.229  1.00  0.00     0.054 C 
BRANCH  25  26
HETATM   26  C8  UNL     1      16.662  23.623  14.204  1.00  0.00     0.234 C 
BRANCH  26  27
HETATM   27  N2  UNL     1      16.427  24.976  13.817  1.00  0.00    -0.075 N 
ATOM     28  H22 UNL     1      16.127  25.021  12.843  1.00  0.00     0.277 HD
ATOM     29  H21 UNL     1      15.589  25.336  14.274  1.00  0.00     0.277 HD
BRANCH  27  30
HETATM   30  C9  UNL     1      17.527  25.850  14.039  1.00  0.00     0.234 C 
BRANCH  30  31
HETATM   31  C10 UNL     1      18.517  25.223  14.987  1.00  0.00     0.057 C 
BRANCH  31  32
HETATM   32  C11 UNL     1      18.677  25.980  16.270  1.00  0.00     0.274 C 
BRANCH  32  33
HETATM   33  N3  UNL     1      18.764  25.187  17.462  1.00  0.00     0.088 N 
HETATM   34  C12 UNL     1      17.714  24.228  17.635  1.00  0.00     0.273 C 
HETATM   35  C13 UNL     1      17.352  24.020  19.113  1.00  0.00     0.039 C 
HETATM   36  C14 UNL     1      16.685  25.275  19.631  1.00  0.00    -0.037 C 
HETATM   37  C15 UNL     1      16.960  25.502  21.095  1.00  0.00     0.010 C 
HETATM   38  C19 UNL     1      15.224  25.330  19.277  1.00  0.00     0.010 C 
HETATM   39  C20 UNL     1      17.349  26.450  18.905  1.00  0.00     0.039 C 
HETATM   40  C16 UNL     1      15.996  24.880  22.036  1.00  0.00     0.001 C 
HETATM   41  C17 UNL     1      14.568  24.850  21.567  1.00  0.00     0.000 C 
HETATM   42  C18 UNL     1      14.440  24.385  20.136  1.00  0.00     0.001 C 
HETATM   43  C21 UNL     1      18.793  26.053  18.622  1.00  0.00     0.273 C 
ENDBRANCH  32  33
ENDBRANCH  31  32
ENDBRANCH  30  31
ENDBRANCH  27  30
ENDBRANCH  26  27
ENDBRANCH  25  26
ENDBRANCH  24  25
ENDBRANCH  23  24
ENDBRANCH   3  23
TORSDOF 10
ENDMDL
MODEL 2
REMARK VINA RESULT: -9.563760473      6.454     10.006
REMARK  10 active torsions:
REMARK  status: ('A' for Active; 'I' for Inactive)
REMARK    1  A    between atoms: C2_3  and  C3_4 
REMARK    2  A    between atoms: C5_6  and  O1_7 
REMARK    3  A    between atoms: O1_7  and  C6_8 
REMARK    4  A    between atoms: C6_8  and  C7_9 
REMARK    5  A    between atoms: C7_9  and  C8_10 
REMARK    6  A    between atoms: C8_10  and  N2_11 
REMARK    7  A    between atoms: N2_11  and  C9_14 
REMARK    8  A    between atoms: C9_14  and  C10_15 
REMARK    9  A    between atoms: C10_15  and  C11_16 
REMARK   10  A    between atoms: C11_16  and  N3_17 
ROOT
HETATM    1  C3  UNL     1       3.766  16.935  17.950  1.00  0.00     0.033 A 
HETATM    2  C4  UNL     1       5.069  16.534  17.929  1.00  0.00     0.053 A 
HETATM    3  C5  UNL     1       5.551  15.609  16.993  1.00  0.00     0.071 A 
HETATM    4  C22 UNL     1       4.669  15.098  16.077  1.00  0.00     0.062 A 
HETATM    5  C23 UNL     1       3.356  15.509  16.111  1.00  0.00     0.058 A 
HETATM    6 CL1  UNL     1       2.249  14.838  14.934  1.00  0.00    -0.083 Cl
HETATM    7  C24 UNL     1       2.855  16.424  17.025  1.00  0.00     0.080 A 
HETATM    8  C25 UNL     1       1.467  16.806  16.983  1.00  0.00     0.102 C 
HETATM    9  N4  UNL     1       0.344  17.100  16.922  1.00  0.00    -0.191 NA
ENDROOT
BRANCH   1  10
HETATM   10  C2  UNL     1       3.290  17.955  18.891  1.00  0.00     0.120 A 
HETATM   11  N1  UNL     1       2.628  17.822  20.049  1.00  0.00    -0.334 N 
HETATM   12  C1  UNL     1       2.214  16.609  20.713  1.00  0.00     0.158 C 
HETATM   13  C31 UNL     1       2.453  19.080  20.556  1.00  0.00     0.086 A 
HETATM   14  C26 UNL     1       3.023  20.000  19.694  1.00  0.00     0.084 A 
HETATM   15  C30 UNL     1       1.856  19.592  21.682  1.00  0.00     0.063 A 
HETATM   16  N5  UNL     1       3.519  19.272  18.697  1.00  0.00    -0.338 N 
HETATM   17  C27 UNL     1       3.019  21.362  19.912  1.00  0.00     0.063 A 
ATOM     18  H5  UNL     1       4.010  19.658  17.891  1.00  0.00     0.167 HD
HETATM   19 CL2  UNL     1       3.753  22.491  18.793  1.00  0.00    -0.082 Cl
HETATM   20  C28 UNL     1       2.421  21.857  21.039  1.00  0.00     0.028 A 
HETATM   21  C29 UNL     1       1.840  20.971  21.921  1.00  0.00     0.028 A 
HETATM   22 CL3  UNL     1       1.059  18.588  22.864  1.00  0.00    -0.082 Cl
ENDBRANCH   1  10
BRANCH   3  23
HETATM   23  O1  UNL     1       6.856  15.250  17.019  1.00  0.00    -0.351 OA
BRANCH  23  24
HETATM   24  C6  UNL     1       7.838  15.090  16.085  1.00  0.00     0.177 C 
BRANCH  24  25
HETATM   25  C7  UNL     1       8.306  16.308  15.367  1.00  0.00     0.054 C 
BRANCH  25  26
HETATM   26  C8  UNL     1       9.805  16.315  15.262  1.00  0.00     0.234 C 
BRANCH  26  27
HETATM   27  N2  UNL     1      10.431  17.597  15.308  1.00  0.00    -0.075 N 
ATOM     28  H22 UNL     1      10.323  18.079  14.416  1.00  0.00     0.277 HD
ATOM     29  H21 UNL     1       9.904  18.229  15.912  1.00  0.00     0.277 HD
BRANCH  27  30
HETATM   30  C9  UNL     1      11.800  17.569  15.694  1.00  0.00     0.234 C 
BRANCH  30  31
HETATM   31  C10 UNL     1      12.059  18.563  16.797  1.00  0.00     0.057 C 
BRANCH  31  32
HETATM   32  C11 UNL     1      11.748  18.034  18.164  1.00  0.00     0.274 C 
BRANCH  32  33
HETATM   33  N3  UNL     1      10.967  18.892  19.008  1.00  0.00     0.088 N 
HETATM   34  C12 UNL     1      10.789  18.428  20.352  1.00  0.00     0.273 C 
HETATM   35  C13 UNL     1       9.422  18.826  20.928  1.00  0.00     0.039 C 
HETATM   36  C14 UNL     1       8.346  18.045  20.208  1.00  0.00    -0.037 C 
HETATM   37  C15 UNL     1       7.053  18.814  20.114  1.00  0.00     0.010 C 
HETATM   38  C19 UNL     1       8.181  16.656  20.765  1.00  0.00     0.010 C 
HETATM   39  C20 UNL     1       8.825  17.875  18.763  1.00  0.00     0.039 C 
HETATM   40  C16 UNL     1       6.108  18.628  21.242  1.00  0.00     0.001 C 
HETATM   41  C17 UNL     1       6.084  17.249  21.840  1.00  0.00     0.000 C 
HETATM   42  C18 UNL     1       7.470  16.701  22.084  1.00  0.00     0.001 C 
HETATM   43  C21 UNL     1       9.663  19.101  18.415  1.00  0.00     0.273 C 
ENDBRANCH  32  33
ENDBRANCH  31  32
ENDBRANCH  30  31
ENDBRANCH  27  30
ENDBRANCH  26  27
ENDBRANCH  25  26
ENDBRANCH  24  25
ENDBRANCH  23  24
ENDBRANCH   3  23
TORSDOF 10
ENDMDL
MODEL 3
REMARK VINA RESULT: -9.390574978      3.813      7.269
REMARK  10 active torsions:
REMARK  status: ('A' for Active; 'I' for Inactive)
REMARK    1  A    between atoms: C2_3  and  C3_4 
REMARK    2  A    between atoms: C5_6  and  O1_7 
REMARK    3  A    between atoms: O1_7  and  C6_8 
REMARK    4  A    between atoms: C6_8  and  C7_9 
REMARK    5  A    between atoms: C7_9  and  C8_10 
REMARK    6  A    between atoms: C8_10  and  N2_11 
REMARK    7  A    between atoms: N2_11  and  C9_14 
REMARK    8  A    between atoms: C9_14  and  C10_15 
REMARK    9  A    between atoms: C10_15  and  C11_16 
REMARK   10  A    between atoms: C11_16  and  N3_17 
ROOT
HETATM    1  C3  UNL     1       6.254  15.662  17.501  1.00  0.00     0.033 A 
HETATM    2  C4  UNL     1       6.712  16.246  18.645  1.00  0.00     0.053 A 
HETATM    3  C5  UNL     1       8.033  16.692  18.779  1.00  0.00     0.071 A 
HETATM    4  C22 UNL     1       8.882  16.528  17.716  1.00  0.00     0.062 A 
HETATM    5  C23 UNL     1       8.408  15.934  16.568  1.00  0.00     0.058 A 
HETATM    6 CL1  UNL     1       9.512  15.730  15.227  1.00  0.00    -0.083 Cl
HETATM    7  C24 UNL     1       7.105  15.485  16.410  1.00  0.00     0.080 A 
HETATM    8  C25 UNL     1       6.691  14.883  15.169  1.00  0.00     0.102 C 
HETATM    9  N4  UNL     1       6.383  14.407  14.154  1.00  0.00    -0.191 NA
ENDROOT
BRANCH   1  10
HETATM   10  C2  UNL     1       4.851  15.261  17.350  1.00  0.00     0.120 A 
HETATM   11  N1  UNL     1       3.728  15.982  17.472  1.00  0.00    -0.334 N 
HETATM   12  C1  UNL     1       3.590  17.388  17.767  1.00  0.00     0.158 C 
HETATM   13  C31 UNL     1       2.683  15.144  17.197  1.00  0.00     0.086 A 
HETATM   14  C26 UNL     1       3.177  13.886  16.897  1.00  0.00     0.084 A 
HETATM   15  C30 UNL     1       1.317  15.282  17.164  1.00  0.00     0.063 A 
HETATM   16  N5  UNL     1       4.498  14.005  17.003  1.00  0.00    -0.338 N 
HETATM   17  C27 UNL     1       2.383  12.806  16.575  1.00  0.00     0.063 A 
ATOM     18  H5  UNL     1       5.158  13.245  16.842  1.00  0.00     0.167 HD
HETATM   19 CL2  UNL     1       3.052  11.231  16.202  1.00  0.00    -0.082 Cl
HETATM   20  C28 UNL     1       1.023  12.960  16.545  1.00  0.00     0.028 A 
HETATM   21  C29 UNL     1       0.493  14.198  16.840  1.00  0.00     0.028 A 
HETATM   22 CL3  UNL     1       0.514  16.783  17.545  1.00  0.00    -0.082 Cl
ENDBRANCH   1  10
BRANCH   3  23
HETATM   23  O1  UNL     1       8.431  17.267  19.938  1.00  0.00    -0.351 OA
BRANCH  23  24
HETATM   24  C6  UNL     1       8.481  18.542  20.424  1.00  0.00     0.177 C 
BRANCH  24  25
HETATM   25  C7  UNL     1       9.754  18.983  21.061  1.00  0.00     0.054 C 
BRANCH  25  26
HETATM   26  C8  UNL     1      10.819  19.192  20.022  1.00  0.00     0.234 C 
BRANCH  26  27
HETATM   27  N2  UNL     1      11.545  18.028  19.626  1.00  0.00    -0.075 N 
ATOM     28  H22 UNL     1      12.307  17.846  20.278  1.00  0.00     0.277 HD
ATOM     29  H21 UNL     1      10.983  17.190  19.775  1.00  0.00     0.277 HD
BRANCH  27  30
HETATM   30  C9  UNL     1      12.033  18.068  18.290  1.00  0.00     0.234 C 
BRANCH  30  31
HETATM   31  C10 UNL     1      11.669  19.374  17.633  1.00  0.00     0.057 C 
BRANCH  31  32
HETATM   32  C11 UNL     1      12.820  20.036  16.939  1.00  0.00     0.274 C 
BRANCH  32  33
HETATM   33  N3  UNL     1      14.023  20.176  17.710  1.00  0.00     0.088 N 
HETATM   34  C12 UNL     1      13.857  20.789  18.994  1.00  0.00     0.273 C 
HETATM   35  C13 UNL     1      15.076  21.630  19.399  1.00  0.00     0.039 C 
HETATM   36  C14 UNL     1      15.144  22.848  18.505  1.00  0.00    -0.037 C 
HETATM   37  C15 UNL     1      16.562  23.304  18.273  1.00  0.00     0.010 C 
HETATM   38  C19 UNL     1      14.226  23.947  18.969  1.00  0.00     0.010 C 
HETATM   39  C20 UNL     1      14.629  22.407  17.131  1.00  0.00     0.039 C 
HETATM   40  C16 UNL     1      17.093  24.282  19.254  1.00  0.00     0.001 C 
HETATM   41  C17 UNL     1      16.093  25.275  19.778  1.00  0.00     0.000 C 
HETATM   42  C18 UNL     1      14.790  24.625  20.180  1.00  0.00     0.001 C 
HETATM   43  C21 UNL     1      14.997  20.938  16.957  1.00  0.00     0.273 C 
ENDBRANCH  32  33
ENDBRANCH  31  32
ENDBRANCH  30  31
ENDBRANCH  27  30
ENDBRANCH  26  27
ENDBRANCH  25  26
ENDBRANCH  24  25
ENDBRANCH  23  24
ENDBRANCH   3  23
TORSDOF 10
ENDMDL
MODEL 4
REMARK VINA RESULT: -9.322332946      3.375      7.549
REMARK  10 active torsions:
REMARK  status: ('A' for Active; 'I' for Inactive)
REMARK    1  A    between atoms: C2_3  and  C3_4 
REMARK    2  A    between atoms: C5_6  and  O1_7 
REMARK    3  A    between atoms: O1_7  and  C6_8 
REMARK    4  A    between atoms: C6_8  and  C7_9 
REMARK    5  A    between atoms: C7_9  and  C8_10 
REMARK    6  A    between atoms: C8_10  and  N2_11 
REMARK    7  A    between atoms: N2_11  and  C9_14 
REMARK    8  A    between atoms: C9_14  and  C10_15 
REMARK    9  A    between atoms: C10_15  and  C11_16 
REMARK   10  A    between atoms: C11_16  and  N3_17 
ROOT
HETATM    1  C3  UNL     1       5.634  15.617  17.213  1.00  0.00     0.033 A 
HETATM    2  C4  UNL     1       6.734  15.794  16.427  1.00  0.00     0.053 A 
HETATM    3  C5  UNL     1       6.905  15.112  15.215  1.00  0.00     0.071 A 
HETATM    4  C22 UNL     1       5.925  14.238  14.823  1.00  0.00     0.062 A 
HETATM    5  C23 UNL     1       4.822  14.066  15.627  1.00  0.00     0.058 A 
HETATM    6 CL1  UNL     1       3.587  12.940  15.107  1.00  0.00    -0.083 Cl
HETATM    7  C24 UNL     1       4.628  14.730  16.830  1.00  0.00     0.080 A 
HETATM    8  C25 UNL     1       3.437  14.496  17.604  1.00  0.00     0.102 C 
HETATM    9  N4  UNL     1       2.463  14.292  18.206  1.00  0.00    -0.191 NA
ENDROOT
BRANCH   1  10
HETATM   10  C2  UNL     1       5.437  16.389  18.445  1.00  0.00     0.120 A 
HETATM   11  N1  UNL     1       4.500  17.295  18.757  1.00  0.00    -0.334 N 
HETATM   12  C1  UNL     1       3.390  17.753  17.956  1.00  0.00     0.158 C 
HETATM   13  C31 UNL     1       4.740  17.692  20.043  1.00  0.00     0.086 A 
HETATM   14  C26 UNL     1       5.843  17.012  20.530  1.00  0.00     0.084 A 
HETATM   15  C30 UNL     1       4.149  18.584  20.905  1.00  0.00     0.063 A 
HETATM   16  N5  UNL     1       6.233  16.232  19.525  1.00  0.00    -0.338 N 
HETATM   17  C27 UNL     1       6.353  17.184  21.799  1.00  0.00     0.063 A 
ATOM     18  H5  UNL     1       7.029  15.597  19.565  1.00  0.00     0.167 HD
HETATM   19 CL2  UNL     1       7.751  16.301  22.373  1.00  0.00    -0.082 Cl
HETATM   20  C28 UNL     1       5.752  18.075  22.647  1.00  0.00     0.028 A 
HETATM   21  C29 UNL     1       4.651  18.773  22.197  1.00  0.00     0.028 A 
HETATM   22 CL3  UNL     1       2.771  19.553  20.456  1.00  0.00    -0.082 Cl
ENDBRANCH   1  10
BRANCH   3  23
HETATM   23  O1  UNL     1       8.017  15.330  14.475  1.00  0.00    -0.351 OA
BRANCH  23  24
HETATM   24  C6  UNL     1       9.334  15.560  14.745  1.00  0.00     0.177 C 
BRANCH  24  25
HETATM   25  C7  UNL     1       9.749  16.971  14.988  1.00  0.00     0.054 C 
BRANCH  25  26
HETATM   26  C8  UNL     1      10.011  17.200  16.450  1.00  0.00     0.234 C 
BRANCH  26  27
HETATM   27  N2  UNL     1       9.645  18.482  16.959  1.00  0.00    -0.075 N 
ATOM     28  H22 UNL     1       9.762  19.196  16.241  1.00  0.00     0.277 HD
ATOM     29  H21 UNL     1       8.636  18.536  17.096  1.00  0.00     0.277 HD
BRANCH  27  30
HETATM   30  C9  UNL     1      10.329  18.858  18.149  1.00  0.00     0.234 C 
BRANCH  30  31
HETATM   31  C10 UNL     1      11.055  20.163  17.951  1.00  0.00     0.057 C 
BRANCH  31  32
HETATM   32  C11 UNL     1      12.261  20.049  17.070  1.00  0.00     0.274 C 
BRANCH  32  33
HETATM   33  N3  UNL     1      13.532  20.094  17.733  1.00  0.00     0.088 N 
HETATM   34  C12 UNL     1      13.522  20.701  19.031  1.00  0.00     0.273 C 
HETATM   35  C13 UNL     1      14.828  21.449  19.334  1.00  0.00     0.039 C 
HETATM   36  C14 UNL     1      14.906  22.670  18.444  1.00  0.00    -0.037 C 
HETATM   37  C15 UNL     1      16.327  23.028  18.093  1.00  0.00     0.010 C 
HETATM   38  C19 UNL     1      14.112  23.825  18.993  1.00  0.00     0.010 C 
HETATM   39  C20 UNL     1      14.244  22.284  17.118  1.00  0.00     0.039 C 
HETATM   40  C16 UNL     1      17.010  23.954  19.030  1.00  0.00     0.001 C 
HETATM   41  C17 UNL     1      16.132  25.008  19.645  1.00  0.00     0.000 C 
HETATM   42  C18 UNL     1      14.826  24.447  20.155  1.00  0.00     0.001 C 
HETATM   43  C21 UNL     1      14.490  20.795  16.903  1.00  0.00     0.273 C 
ENDBRANCH  32  33
ENDBRANCH  31  32
ENDBRANCH  30  31
ENDBRANCH  27  30
ENDBRANCH  26  27
ENDBRANCH  25  26
ENDBRANCH  24  25
ENDBRANCH  23  24
ENDBRANCH   3  23
TORSDOF 10
ENDMDL
MODEL 5
REMARK VINA RESULT: -9.245791734      3.277      7.316
REMARK  10 active torsions:
REMARK  status: ('A' for Active; 'I' for Inactive)
REMARK    1  A    between atoms: C2_3  and  C3_4 
REMARK    2  A    between atoms: C5_6  and  O1_7 
REMARK    3  A    between atoms: O1_7  and  C6_8 
REMARK    4  A    between atoms: C6_8  and  C7_9 
REMARK    5  A    between atoms: C7_9  and  C8_10 
REMARK    6  A    between atoms: C8_10  and  N2_11 
REMARK    7  A    between atoms: N2_11  and  C9_14 
REMARK    8  A    between atoms: C9_14  and  C10_15 
REMARK    9  A    between atoms: C10_15  and  C11_16 
REMARK   10  A    between atoms: C11_16  and  N3_17 
ROOT
HETATM    1  C3  UNL     1       6.140  15.580  17.098  1.00  0.00     0.033 A 
HETATM    2  C4  UNL     1       7.299  15.731  16.395  1.00  0.00     0.053 A 
HETATM    3  C5  UNL     1       7.482  15.165  15.127  1.00  0.00     0.071 A 
HETATM    4  C22 UNL     1       6.454  14.436  14.589  1.00  0.00     0.062 A 
HETATM    5  C23 UNL     1       5.291  14.289  15.311  1.00  0.00     0.058 A 
HETATM    6 CL1  UNL     1       3.994  13.349  14.606  1.00  0.00    -0.083 Cl
HETATM    7  C24 UNL     1       5.084  14.840  16.567  1.00  0.00     0.080 A 
HETATM    8  C25 UNL     1       3.830  14.643  17.247  1.00  0.00     0.102 C 
HETATM    9  N4  UNL     1       2.806  14.473  17.771  1.00  0.00    -0.191 NA
ENDROOT
BRANCH   1  10
HETATM   10  C2  UNL     1       5.936  16.235  18.395  1.00  0.00     0.120 A 
HETATM   11  N1  UNL     1       6.701  16.230  19.495  1.00  0.00    -0.334 N 
HETATM   12  C1  UNL     1       7.975  15.584  19.702  1.00  0.00     0.158 C 
HETATM   13  C31 UNL     1       6.079  17.026  20.418  1.00  0.00     0.086 A 
HETATM   14  C26 UNL     1       4.914  17.531  19.869  1.00  0.00     0.084 A 
HETATM   15  C30 UNL     1       6.354  17.403  21.709  1.00  0.00     0.063 A 
HETATM   16  N5  UNL     1       4.868  17.024  18.640  1.00  0.00    -0.338 N 
HETATM   17  C27 UNL     1       4.049  18.369  20.540  1.00  0.00     0.063 A 
ATOM     18  H5  UNL     1       4.122  17.207  17.969  1.00  0.00     0.167 HD
HETATM   19 CL2  UNL     1       2.584  18.986  19.806  1.00  0.00    -0.082 Cl
HETATM   20  C28 UNL     1       4.338  18.738  21.827  1.00  0.00     0.028 A 
HETATM   21  C29 UNL     1       5.490  18.254  22.408  1.00  0.00     0.028 A 
HETATM   22 CL3  UNL     1       7.760  16.840  22.575  1.00  0.00    -0.082 Cl
ENDBRANCH   1  10
BRANCH   3  23
HETATM   23  O1  UNL     1       8.654  15.351  14.474  1.00  0.00    -0.351 OA
BRANCH  23  24
HETATM   24  C6  UNL     1       9.896  15.802  14.817  1.00  0.00     0.177 C 
BRANCH  24  25
HETATM   25  C7  UNL     1      10.061  17.269  15.020  1.00  0.00     0.054 C 
BRANCH  25  26
HETATM   26  C8  UNL     1      10.995  17.541  16.165  1.00  0.00     0.234 C 
BRANCH  26  27
HETATM   27  N2  UNL     1      10.408  17.542  17.466  1.00  0.00    -0.075 N 
ATOM     28  H22 UNL     1       9.456  17.903  17.426  1.00  0.00     0.277 HD
ATOM     29  H21 UNL     1      10.220  16.587  17.772  1.00  0.00     0.277 HD
BRANCH  27  30
HETATM   30  C9  UNL     1      11.163  18.239  18.450  1.00  0.00     0.234 C 
BRANCH  30  31
HETATM   31  C10 UNL     1      10.667  19.655  18.591  1.00  0.00     0.057 C 
BRANCH  31  32
HETATM   32  C11 UNL     1      11.572  20.672  17.965  1.00  0.00     0.274 C 
BRANCH  32  33
HETATM   33  N3  UNL     1      12.974  20.509  18.222  1.00  0.00     0.088 N 
HETATM   34  C12 UNL     1      13.425  21.010  19.487  1.00  0.00     0.273 C 
HETATM   35  C13 UNL     1      14.854  21.567  19.416  1.00  0.00     0.039 C 
HETATM   36  C14 UNL     1      14.840  22.835  18.592  1.00  0.00    -0.037 C 
HETATM   37  C15 UNL     1      16.135  23.043  17.848  1.00  0.00     0.010 C 
HETATM   38  C19 UNL     1      14.409  24.032  19.396  1.00  0.00     0.010 C 
HETATM   39  C20 UNL     1      13.776  22.637  17.508  1.00  0.00     0.039 C 
HETATM   40  C16 UNL     1      17.182  23.802  18.575  1.00  0.00     0.001 C 
HETATM   41  C17 UNL     1      16.676  24.905  19.463  1.00  0.00     0.000 C 
HETATM   42  C18 UNL     1      15.508  24.470  20.316  1.00  0.00     0.001 C 
HETATM   43  C21 UNL     1      13.738  21.150  17.173  1.00  0.00     0.273 C 
ENDBRANCH  32  33
ENDBRANCH  31  32
ENDBRANCH  30  31
ENDBRANCH  27  30
ENDBRANCH  26  27
ENDBRANCH  25  26
ENDBRANCH  24  25
ENDBRANCH  23  24
ENDBRANCH   3  23
TORSDOF 10
ENDMDL
