MODEL 1
REMARK VINA RESULT: -7.889251859      0.000      0.000
REMARK  11 active torsions:
REMARK  status: ('A' for Active; 'I' for Inactive)
REMARK    1  A    between atoms: C2_2  and  N1_3 
REMARK       I    between atoms: N2_9  and  C6_10 
REMARK       I    between atoms: C6_10  and  N6_32 
REMARK    2  A    between atoms: N3_11  and  C7_13 
REMARK    3  A    between atoms: C7_13  and  C8_14 
REMARK    4  A    between atoms: C8_14  and  C9_15 
REMARK    5  A    between atoms: C9_15  and  C10_16 
REMARK    6  A    between atoms: C10_16  and  C11_17 
REMARK    7  A    between atoms: C11_17  and  C12_18 
REMARK    8  A    between atoms: C12_18  and  N4_19 
REMARK    9  A    between atoms: C15_23  and  O1_24 
REMARK   10  A    between atoms: O1_24  and  C16_25 
REMARK   11  A    between atoms: N6_32  and  C20_34 
ROOT
HETATM    1  N1  UNL     1      17.722  26.790  10.494  1.00  0.00    -0.370 N 
ATOM      2  H1  UNL     1      16.959  26.806  11.170  1.00  0.00     0.161 HD
HETATM    3  C3  UNL     1      18.681  25.929  10.591  1.00  0.00     0.158 C 
HETATM    4  S1  UNL     1      20.108  25.753   9.492  1.00  0.00    -0.092 SA
HETATM    5  C4  UNL     1      20.928  24.411  10.451  1.00  0.00     0.103 C 
HETATM    6  C5  UNL     1      19.669  23.818  11.097  1.00  0.00     0.160 C 
HETATM    7  N2  UNL     1      18.865  24.920  11.565  1.00  0.00    -0.161 N 
HETATM    8  C6  UNL     1      18.274  25.011  12.904  1.00  0.00     0.686 C 
HETATM    9  N3  UNL     1      17.101  24.624  13.028  1.00  0.00    -0.205 N 
ATOM     10  H3  UNL     1      16.734  24.293  12.135  1.00  0.00     0.183 HD
HETATM   11  N6  UNL     1      19.063  25.520  13.949  1.00  0.00    -0.188 N 
ATOM     12  H6  UNL     1      19.900  26.025  13.657  1.00  0.00     0.184 HD
ENDROOT
BRANCH   9  13
HETATM   13  C7  UNL     1      16.133  24.508  14.033  1.00  0.00     0.079 C 
BRANCH  13  14
HETATM   14  C8  UNL     1      15.814  23.037  14.194  1.00  0.00     0.045 C 
BRANCH  14  15
HETATM   15  C9  UNL     1      15.569  22.744  15.667  1.00  0.00     0.005 C 
BRANCH  15  16
HETATM   16  C10 UNL     1      14.695  21.582  15.920  1.00  0.00     0.002 C 
BRANCH  16  17
HETATM   17  C11 UNL     1      14.040  21.568  17.252  1.00  0.00     0.020 C 
BRANCH  17  18
HETATM   18  C12 UNL     1      13.576  20.243  17.726  1.00  0.00     0.120 C 
BRANCH  18  19
HETATM   19  N4  UNL     1      13.090  19.312  16.767  1.00  0.00    -0.384 N 
HETATM   20  C13 UNL     1      11.938  18.759  16.917  1.00  0.00     0.075 A 
HETATM   21  C14 UNL     1      11.457  17.860  16.000  1.00  0.00     0.093 A 
HETATM   22  S2  UNL     1      10.926  19.086  18.238  1.00  0.00    -0.060 SA
HETATM   23  C15 UNL     1      10.227  17.253  16.133  1.00  0.00     0.145 A 
HETATM   24  N5  UNL     1       9.357  17.426  17.111  1.00  0.00    -0.335 N 
HETATM   25  C18 UNL     1       9.448  18.206  18.180  1.00  0.00     0.050 A 
ATOM     26  H5  UNL     1       8.495  16.884  17.034  1.00  0.00     0.168 HD
HETATM   27  C19 UNL     1       8.379  18.298  19.205  1.00  0.00     0.076 C 
ATOM     28  H4  UNL     1      13.659  19.080  15.953  1.00  0.00     0.160 HD
BRANCH  23  29
HETATM   29  O1  UNL     1       9.877  16.351  15.104  1.00  0.00    -0.336 OA
BRANCH  29  30
HETATM   30  C16 UNL     1       8.938  15.354  15.360  1.00  0.00     0.173 C 
HETATM   31  C17 UNL     1       7.933  15.266  14.249  1.00  0.00     0.034 C 
ENDBRANCH  29  30
ENDBRANCH  23  29
ENDBRANCH  18  19
ENDBRANCH  17  18
ENDBRANCH  16  17
ENDBRANCH  15  16
ENDBRANCH  14  15
ENDBRANCH  13  14
ENDBRANCH   9  13
BRANCH  11  32
HETATM   32  C20 UNL     1      18.869  25.435  15.329  1.00  0.00     0.092 A 
HETATM   33  C21 UNL     1      18.930  24.247  15.984  1.00  0.00     0.064 A 
HETATM   34 CL1  UNL     1      19.227  22.708  15.159  1.00  0.00    -0.082 Cl
HETATM   35  C22 UNL     1      18.739  24.165  17.342  1.00  0.00     0.050 A 
HETATM   36  C23 UNL     1      18.479  25.301  18.071  1.00  0.00     0.037 A 
HETATM   37 CL2  UNL     1      18.238  25.178  19.808  1.00  0.00    -0.084 Cl
HETATM   38  C24 UNL     1      18.413  26.517  17.420  1.00  0.00     0.050 A 
HETATM   39  C25 UNL     1      18.605  26.595  16.059  1.00  0.00     0.064 A 
HETATM   40 CL3  UNL     1      18.516  28.160  15.249  1.00  0.00    -0.082 Cl
ENDBRANCH  11  32
BRANCH   1  41
HETATM   41  C2  UNL     1      17.765  27.732   9.390  1.00  0.00     0.117 C 
HETATM   42  C1  UNL     1      16.362  27.947   8.911  1.00  0.00     0.026 C 
ENDBRANCH   1  41
TORSDOF 11
ENDMDL
MODEL 2
REMARK VINA RESULT: -7.683893377      6.115     13.061
REMARK  11 active torsions:
REMARK  status: ('A' for Active; 'I' for Inactive)
REMARK    1  A    between atoms: C2_2  and  N1_3 
REMARK       I    between atoms: N2_9  and  C6_10 
REMARK       I    between atoms: C6_10  and  N6_32 
REMARK    2  A    between atoms: N3_11  and  C7_13 
REMARK    3  A    between atoms: C7_13  and  C8_14 
REMARK    4  A    between atoms: C8_14  and  C9_15 
REMARK    5  A    between atoms: C9_15  and  C10_16 
REMARK    6  A    between atoms: C10_16  and  C11_17 
REMARK    7  A    between atoms: C11_17  and  C12_18 
REMARK    8  A    between atoms: C12_18  and  N4_19 
REMARK    9  A    between atoms: C15_23  and  O1_24 
REMARK   10  A    between atoms: O1_24  and  C16_25 
REMARK   11  A    between atoms: N6_32  and  C20_34 
ROOT
HETATM    1  N1  UNL     1       4.148  17.450  18.630  1.00  0.00    -0.370 N 
ATOM      2  H1  UNL     1       5.018  17.634  19.130  1.00  0.00     0.161 HD
HETATM    3  C3  UNL     1       4.095  16.567  17.687  1.00  0.00     0.158 C 
HETATM    4  S1  UNL     1       2.651  16.110  16.696  1.00  0.00    -0.092 SA
HETATM    5  C4  UNL     1       3.534  14.919  15.603  1.00  0.00     0.103 C 
HETATM    6  C5  UNL     1       4.650  14.528  16.581  1.00  0.00     0.160 C 
HETATM    7  N2  UNL     1       5.132  15.742  17.192  1.00  0.00    -0.161 N 
HETATM    8  C6  UNL     1       6.547  16.110  17.314  1.00  0.00     0.686 C 
HETATM    9  N3  UNL     1       7.112  15.821  18.382  1.00  0.00    -0.205 N 
ATOM     10  H3  UNL     1       6.464  15.355  19.018  1.00  0.00     0.183 HD
HETATM   11  N6  UNL     1       7.166  16.752  16.230  1.00  0.00    -0.188 N 
ATOM     12  H6  UNL     1       6.530  17.146  15.536  1.00  0.00     0.184 HD
ENDROOT
BRANCH   9  13
HETATM   13  C7  UNL     1       8.377  15.946  18.969  1.00  0.00     0.079 C 
BRANCH  13  14
HETATM   14  C8  UNL     1       8.172  16.213  20.444  1.00  0.00     0.045 C 
BRANCH  14  15
HETATM   15  C9  UNL     1       8.659  17.619  20.764  1.00  0.00     0.005 C 
BRANCH  15  16
HETATM   16  C10 UNL     1      10.117  17.802  20.639  1.00  0.00     0.002 C 
BRANCH  16  17
HETATM   17  C11 UNL     1      10.571  19.215  20.601  1.00  0.00     0.020 C 
BRANCH  17  18
HETATM   18  C12 UNL     1      11.647  19.519  19.629  1.00  0.00     0.120 C 
BRANCH  18  19
HETATM   19  N4  UNL     1      12.565  20.561  19.936  1.00  0.00    -0.384 N 
HETATM   20  C13 UNL     1      13.494  20.881  19.106  1.00  0.00     0.075 A 
HETATM   21  C14 UNL     1      14.386  21.884  19.389  1.00  0.00     0.093 A 
HETATM   22  S2  UNL     1      13.698  20.106  17.611  1.00  0.00    -0.060 SA
HETATM   23  C15 UNL     1      15.390  22.249  18.519  1.00  0.00     0.145 A 
HETATM   24  N5  UNL     1      15.646  21.723  17.336  1.00  0.00    -0.335 N 
HETATM   25  C18 UNL     1      15.018  20.739  16.706  1.00  0.00     0.050 A 
ATOM     26  H5  UNL     1      16.437  22.131  16.836  1.00  0.00     0.168 HD
HETATM   27  C19 UNL     1      15.424  20.250  15.365  1.00  0.00     0.076 C 
ATOM     28  H4  UNL     1      12.486  21.059  20.823  1.00  0.00     0.160 HD
BRANCH  23  29
HETATM   29  O1  UNL     1      16.225  23.300  18.959  1.00  0.00    -0.336 OA
BRANCH  29  30
HETATM   30  C16 UNL     1      15.765  24.170  19.945  1.00  0.00     0.173 C 
HETATM   31  C17 UNL     1      16.906  24.896  20.594  1.00  0.00     0.034 C 
ENDBRANCH  29  30
ENDBRANCH  23  29
ENDBRANCH  18  19
ENDBRANCH  17  18
ENDBRANCH  16  17
ENDBRANCH  15  16
ENDBRANCH  14  15
ENDBRANCH  13  14
ENDBRANCH   9  13
BRANCH  11  32
HETATM   32  C20 UNL     1       8.524  16.931  15.963  1.00  0.00     0.092 A 
HETATM   33  C21 UNL     1       9.257  17.875  16.607  1.00  0.00     0.064 A 
HETATM   34 CL1  UNL     1       8.564  18.977  17.809  1.00  0.00    -0.082 Cl
HETATM   35  C22 UNL     1      10.594  18.050  16.343  1.00  0.00     0.050 A 
HETATM   36  C23 UNL     1      11.221  17.260  15.409  1.00  0.00     0.037 A 
HETATM   37 CL2  UNL     1      12.932  17.497  15.085  1.00  0.00    -0.084 Cl
HETATM   38  C24 UNL     1      10.490  16.295  14.744  1.00  0.00     0.050 A 
HETATM   39  C25 UNL     1       9.151  16.124  15.011  1.00  0.00     0.064 A 
HETATM   40 CL3  UNL     1       8.236  14.885  14.150  1.00  0.00    -0.082 Cl
ENDBRANCH  11  32
BRANCH   1  41
HETATM   41  C2  UNL     1       2.931  18.173  18.953  1.00  0.00     0.117 C 
HETATM   42  C1  UNL     1       3.277  19.624  19.092  1.00  0.00     0.026 C 
ENDBRANCH   1  41
TORSDOF 11
ENDMDL
MODEL 3
REMARK VINA RESULT: -7.514147209      5.971     12.821
REMARK  11 active torsions:
REMARK  status: ('A' for Active; 'I' for Inactive)
REMARK    1  A    between atoms: C2_2  and  N1_3 
REMARK       I    between atoms: N2_9  and  C6_10 
REMARK       I    between atoms: C6_10  and  N6_32 
REMARK    2  A    between atoms: N3_11  and  C7_13 
REMARK    3  A    between atoms: C7_13  and  C8_14 
REMARK    4  A    between atoms: C8_14  and  C9_15 
REMARK    5  A    between atoms: C9_15  and  C10_16 
REMARK    6  A    between atoms: C10_16  and  C11_17 
REMARK    7  A    between atoms: C11_17  and  C12_18 
REMARK    8  A    between atoms: C12_18  and  N4_19 
REMARK    9  A    between atoms: C15_23  and  O1_24 
REMARK   10  A    between atoms: O1_24  and  C16_25 
REMARK   11  A    between atoms: N6_32  and  C20_34 
ROOT
HETATM    1  N1  UNL     1       4.116  17.356  18.599  1.00  0.00    -0.370 N 
ATOM      2  H1  UNL     1       4.986  17.518  19.107  1.00  0.00     0.161 HD
HETATM    3  C3  UNL     1       4.060  16.505  17.627  1.00  0.00     0.158 C 
HETATM    4  S1  UNL     1       2.615  16.091  16.618  1.00  0.00    -0.092 SA
HETATM    5  C4  UNL     1       3.494  14.932  15.487  1.00  0.00     0.103 C 
HETATM    6  C5  UNL     1       4.605  14.501  16.454  1.00  0.00     0.160 C 
HETATM    7  N2  UNL     1       5.093  15.691  17.106  1.00  0.00    -0.161 N 
HETATM    8  C6  UNL     1       6.509  16.045  17.244  1.00  0.00     0.686 C 
HETATM    9  N3  UNL     1       7.070  15.717  18.303  1.00  0.00    -0.205 N 
ATOM     10  H3  UNL     1       6.418  15.235  18.922  1.00  0.00     0.183 HD
HETATM   11  N6  UNL     1       7.136  16.720  16.183  1.00  0.00    -0.188 N 
ATOM     12  H6  UNL     1       6.504  17.141  15.502  1.00  0.00     0.184 HD
ENDROOT
BRANCH   9  13
HETATM   13  C7  UNL     1       8.335  15.815  18.896  1.00  0.00     0.079 C 
BRANCH  13  14
HETATM   14  C8  UNL     1       8.130  15.962  20.389  1.00  0.00     0.045 C 
BRANCH  14  15
HETATM   15  C9  UNL     1       8.207  17.437  20.755  1.00  0.00     0.005 C 
BRANCH  15  16
HETATM   16  C10 UNL     1       9.493  17.851  21.347  1.00  0.00     0.002 C 
BRANCH  16  17
HETATM   17  C11 UNL     1       9.932  19.224  20.995  1.00  0.00     0.020 C 
BRANCH  17  18
HETATM   18  C12 UNL     1      11.361  19.369  20.628  1.00  0.00     0.120 C 
BRANCH  18  19
HETATM   19  N4  UNL     1      11.695  19.542  19.256  1.00  0.00    -0.384 N 
HETATM   20  C13 UNL     1      12.533  20.450  18.897  1.00  0.00     0.075 A 
HETATM   21  C14 UNL     1      12.864  20.628  17.578  1.00  0.00     0.093 A 
HETATM   22  S2  UNL     1      13.290  21.491  20.000  1.00  0.00    -0.060 SA
HETATM   23  C15 UNL     1      13.759  21.591  17.163  1.00  0.00     0.145 A 
HETATM   24  N5  UNL     1      14.407  22.453  17.923  1.00  0.00    -0.335 N 
HETATM   25  C18 UNL     1      14.361  22.604  19.240  1.00  0.00     0.050 A 
ATOM     26  H5  UNL     1      15.031  23.092  17.429  1.00  0.00     0.168 HD
HETATM   27  C19 UNL     1      15.155  23.628  19.963  1.00  0.00     0.076 C 
ATOM     28  H4  UNL     1      11.267  18.942  18.552  1.00  0.00     0.160 HD
BRANCH  23  29
HETATM   29  O1  UNL     1      13.993  21.645  15.771  1.00  0.00    -0.336 OA
BRANCH  29  30
HETATM   30  C16 UNL     1      15.302  21.727  15.302  1.00  0.00     0.173 C 
HETATM   31  C17 UNL     1      15.862  20.362  15.032  1.00  0.00     0.034 C 
ENDBRANCH  29  30
ENDBRANCH  23  29
ENDBRANCH  18  19
ENDBRANCH  17  18
ENDBRANCH  16  17
ENDBRANCH  15  16
ENDBRANCH  14  15
ENDBRANCH  13  14
ENDBRANCH   9  13
BRANCH  11  32
HETATM   32  C20 UNL     1       8.495  16.899  15.926  1.00  0.00     0.092 A 
HETATM   33  C21 UNL     1       9.237  17.804  16.614  1.00  0.00     0.064 A 
HETATM   34 CL1  UNL     1       8.553  18.853  17.869  1.00  0.00    -0.082 Cl
HETATM   35  C22 UNL     1      10.575  17.980  16.360  1.00  0.00     0.050 A 
HETATM   36  C23 UNL     1      11.196  17.230  15.389  1.00  0.00     0.037 A 
HETATM   37 CL2  UNL     1      12.909  17.467  15.077  1.00  0.00    -0.084 Cl
HETATM   38  C24 UNL     1      10.456  16.305  14.678  1.00  0.00     0.050 A 
HETATM   39  C25 UNL     1       9.115  16.133  14.936  1.00  0.00     0.064 A 
HETATM   40 CL3  UNL     1       8.189  14.946  14.016  1.00  0.00    -0.082 Cl
ENDBRANCH  11  32
BRANCH   1  41
HETATM   41  C2  UNL     1       2.902  18.075  18.943  1.00  0.00     0.117 C 
HETATM   42  C1  UNL     1       3.247  19.527  19.079  1.00  0.00     0.026 C 
ENDBRANCH   1  41
TORSDOF 11
ENDMDL
MODEL 4
REMARK VINA RESULT: -7.482543897      6.118     13.008
REMARK  11 active torsions:
REMARK  status: ('A' for Active; 'I' for Inactive)
REMARK    1  A    between atoms: C2_2  and  N1_3 
REMARK       I    between atoms: N2_9  and  C6_10 
REMARK       I    between atoms: C6_10  and  N6_32 
REMARK    2  A    between atoms: N3_11  and  C7_13 
REMARK    3  A    between atoms: C7_13  and  C8_14 
REMARK    4  A    between atoms: C8_14  and  C9_15 
REMARK    5  A    between atoms: C9_15  and  C10_16 
REMARK    6  A    between atoms: C10_16  and  C11_17 
REMARK    7  A    between atoms: C11_17  and  C12_18 
REMARK    8  A    between atoms: C12_18  and  N4_19 
REMARK    9  A    between atoms: C15_23  and  O1_24 
REMARK   10  A    between atoms: O1_24  and  C16_25 
REMARK   11  A    between atoms: N6_32  and  C20_34 
ROOT
HETATM    1  N1  UNL     1       4.199  17.559  18.873  1.00  0.00    -0.370 N 
ATOM      2  H1  UNL     1       5.086  17.711  19.352  1.00  0.00     0.161 HD
HETATM    3  C3  UNL     1       4.096  16.695  17.917  1.00  0.00     0.158 C 
HETATM    4  S1  UNL     1       2.613  16.295  16.958  1.00  0.00    -0.092 SA
HETATM    5  C4  UNL     1       3.434  15.102  15.820  1.00  0.00     0.103 C 
HETATM    6  C5  UNL     1       4.566  14.664  16.759  1.00  0.00     0.160 C 
HETATM    7  N2  UNL     1       5.097  15.853  17.378  1.00  0.00    -0.161 N 
HETATM    8  C6  UNL     1       6.523  16.181  17.467  1.00  0.00     0.686 C 
HETATM    9  N3  UNL     1       7.109  15.857  18.514  1.00  0.00    -0.205 N 
ATOM     10  H3  UNL     1       6.467  15.398  19.159  1.00  0.00     0.183 HD
HETATM   11  N6  UNL     1       7.130  16.827  16.378  1.00  0.00    -0.188 N 
ATOM     12  H6  UNL     1       6.486  17.251  15.709  1.00  0.00     0.184 HD
ENDROOT
BRANCH   9  13
HETATM   13  C7  UNL     1       8.393  15.939  19.067  1.00  0.00     0.079 C 
BRANCH  13  14
HETATM   14  C8  UNL     1       8.236  16.171  20.555  1.00  0.00     0.045 C 
BRANCH  14  15
HETATM   15  C9  UNL     1       8.715  17.576  20.888  1.00  0.00     0.005 C 
BRANCH  15  16
HETATM   16  C10 UNL     1      10.161  17.789  20.691  1.00  0.00     0.002 C 
BRANCH  16  17
HETATM   17  C11 UNL     1      10.580  19.211  20.602  1.00  0.00     0.020 C 
BRANCH  17  18
HETATM   18  C12 UNL     1      11.664  19.503  19.635  1.00  0.00     0.120 C 
BRANCH  18  19
HETATM   19  N4  UNL     1      12.581  20.547  19.939  1.00  0.00    -0.384 N 
HETATM   20  C13 UNL     1      13.504  20.871  19.103  1.00  0.00     0.075 A 
HETATM   21  C14 UNL     1      14.394  21.877  19.383  1.00  0.00     0.093 A 
HETATM   22  S2  UNL     1      13.701  20.100  17.606  1.00  0.00    -0.060 SA
HETATM   23  C15 UNL     1      15.392  22.247  18.508  1.00  0.00     0.145 A 
HETATM   24  N5  UNL     1      15.642  21.724  17.321  1.00  0.00    -0.335 N 
HETATM   25  C18 UNL     1      15.013  20.739  16.694  1.00  0.00     0.050 A 
ATOM     26  H5  UNL     1      16.429  22.135  16.818  1.00  0.00     0.168 HD
HETATM   27  C19 UNL     1      15.413  20.254  15.350  1.00  0.00     0.076 C 
ATOM     28  H4  UNL     1      12.506  21.043  20.827  1.00  0.00     0.160 HD
BRANCH  23  29
HETATM   29  O1  UNL     1      16.226  23.299  18.944  1.00  0.00    -0.336 OA
BRANCH  29  30
HETATM   30  C16 UNL     1      15.760  24.181  19.917  1.00  0.00     0.173 C 
HETATM   31  C17 UNL     1      16.899  24.889  20.590  1.00  0.00     0.034 C 
ENDBRANCH  29  30
ENDBRANCH  23  29
ENDBRANCH  18  19
ENDBRANCH  17  18
ENDBRANCH  16  17
ENDBRANCH  15  16
ENDBRANCH  14  15
ENDBRANCH  13  14
ENDBRANCH   9  13
BRANCH  11  32
HETATM   32  C20 UNL     1       8.484  16.975  16.077  1.00  0.00     0.092 A 
HETATM   33  C21 UNL     1       9.095  16.197  15.147  1.00  0.00     0.064 A 
HETATM   34 CL1  UNL     1       8.251  14.916  14.260  1.00  0.00    -0.082 Cl
HETATM   35  C22 UNL     1      10.429  16.343  14.851  1.00  0.00     0.050 A 
HETATM   36  C23 UNL     1      11.178  17.294  15.501  1.00  0.00     0.037 A 
HETATM   37 CL2  UNL     1      12.883  17.469  15.110  1.00  0.00    -0.084 Cl
HETATM   38  C24 UNL     1      10.573  18.094  16.451  1.00  0.00     0.050 A 
HETATM   39  C25 UNL     1       9.236  17.944  16.744  1.00  0.00     0.064 A 
HETATM   40 CL3  UNL     1       8.483  18.976  17.961  1.00  0.00    -0.082 Cl
ENDBRANCH  11  32
BRANCH   1  41
HETATM   41  C2  UNL     1       3.010  18.307  19.242  1.00  0.00     0.117 C 
HETATM   42  C1  UNL     1       3.316  19.766  19.092  1.00  0.00     0.026 C 
ENDBRANCH   1  41
TORSDOF 11
ENDMDL
MODEL 5
REMARK VINA RESULT: -7.428187111      1.415      2.270
REMARK  11 active torsions:
REMARK  status: ('A' for Active; 'I' for Inactive)
REMARK    1  A    between atoms: C2_2  and  N1_3 
REMARK       I    between atoms: N2_9  and  C6_10 
REMARK       I    between atoms: C6_10  and  N6_32 
REMARK    2  A    between atoms: N3_11  and  C7_13 
REMARK    3  A    between atoms: C7_13  and  C8_14 
REMARK    4  A    between atoms: C8_14  and  C9_15 
REMARK    5  A    between atoms: C9_15  and  C10_16 
REMARK    6  A    between atoms: C10_16  and  C11_17 
REMARK    7  A    between atoms: C11_17  and  C12_18 
REMARK    8  A    between atoms: C12_18  and  N4_19 
REMARK    9  A    between atoms: C15_23  and  O1_24 
REMARK   10  A    between atoms: O1_24  and  C16_25 
REMARK   11  A    between atoms: N6_32  and  C20_34 
ROOT
HETATM    1  N1  UNL     1      17.759  26.764  10.438  1.00  0.00    -0.370 N 
ATOM      2  H1  UNL     1      16.989  26.755  11.106  1.00  0.00     0.161 HD
HETATM    3  C3  UNL     1      18.738  25.925  10.537  1.00  0.00     0.158 C 
HETATM    4  S1  UNL     1      20.180  25.794   9.451  1.00  0.00    -0.092 SA
HETATM    5  C4  UNL     1      21.022  24.462  10.406  1.00  0.00     0.103 C 
HETATM    6  C5  UNL     1      19.770  23.832  11.031  1.00  0.00     0.160 C 
HETATM    7  N2  UNL     1      18.936  24.910  11.503  1.00  0.00    -0.161 N 
HETATM    8  C6  UNL     1      18.328  24.973  12.836  1.00  0.00     0.686 C 
HETATM    9  N3  UNL     1      17.163  24.557  12.942  1.00  0.00    -0.205 N 
ATOM     10  H3  UNL     1      16.814  24.227  12.042  1.00  0.00     0.183 HD
HETATM   11  N6  UNL     1      19.093  25.490  13.895  1.00  0.00    -0.188 N 
ATOM     12  H6  UNL     1      19.921  26.018  13.617  1.00  0.00     0.184 HD
ENDROOT
BRANCH   9  13
HETATM   13  C7  UNL     1      16.187  24.407  13.935  1.00  0.00     0.079 C 
BRANCH  13  14
HETATM   14  C8  UNL     1      15.952  22.924  14.126  1.00  0.00     0.045 C 
BRANCH  14  15
HETATM   15  C9  UNL     1      15.177  22.710  15.418  1.00  0.00     0.005 C 
BRANCH  15  16
HETATM   16  C10 UNL     1      15.609  21.536  16.200  1.00  0.00     0.002 C 
BRANCH  16  17
HETATM   17  C11 UNL     1      15.185  21.538  17.622  1.00  0.00     0.020 C 
BRANCH  17  18
HETATM   18  C12 UNL     1      14.611  20.268  18.124  1.00  0.00     0.120 C 
BRANCH  18  19
HETATM   19  N4  UNL     1      13.445  20.324  18.937  1.00  0.00    -0.384 N 
HETATM   20  C13 UNL     1      12.357  19.749  18.562  1.00  0.00     0.075 A 
HETATM   21  C14 UNL     1      11.226  19.795  19.336  1.00  0.00     0.093 A 
HETATM   22  S2  UNL     1      12.224  18.896  17.103  1.00  0.00    -0.060 SA
HETATM   23  C15 UNL     1      10.047  19.188  18.961  1.00  0.00     0.145 A 
HETATM   24  N5  UNL     1       9.823  18.500  17.857  1.00  0.00    -0.335 N 
HETATM   25  C18 UNL     1      10.655  18.230  16.860  1.00  0.00     0.050 A 
ATOM     26  H5  UNL     1       8.880  18.125  17.756  1.00  0.00     0.168 HD
HETATM   27  C19 UNL     1      10.258  17.437  15.670  1.00  0.00     0.076 C 
ATOM     28  H4  UNL     1      13.471  20.825  19.825  1.00  0.00     0.160 HD
BRANCH  23  29
HETATM   29  O1  UNL     1       8.974  19.328  19.869  1.00  0.00    -0.336 OA
BRANCH  29  30
HETATM   30  C16 UNL     1       7.982  18.350  19.909  1.00  0.00     0.173 C 
HETATM   31  C17 UNL     1       7.748  17.881  21.315  1.00  0.00     0.034 C 
ENDBRANCH  29  30
ENDBRANCH  23  29
ENDBRANCH  18  19
ENDBRANCH  17  18
ENDBRANCH  16  17
ENDBRANCH  15  16
ENDBRANCH  14  15
ENDBRANCH  13  14
ENDBRANCH   9  13
BRANCH  11  32
HETATM   32  C20 UNL     1      18.886  25.386  15.271  1.00  0.00     0.092 A 
HETATM   33  C21 UNL     1      18.961  24.192  15.913  1.00  0.00     0.064 A 
HETATM   34 CL1  UNL     1      19.293  22.667  15.074  1.00  0.00    -0.082 Cl
HETATM   35  C22 UNL     1      18.757  24.091  17.268  1.00  0.00     0.050 A 
HETATM   36  C23 UNL     1      18.470  25.213  18.007  1.00  0.00     0.037 A 
HETATM   37 CL2  UNL     1      18.214  25.066  19.739  1.00  0.00    -0.084 Cl
HETATM   38  C24 UNL     1      18.390  26.436  17.369  1.00  0.00     0.050 A 
HETATM   39  C25 UNL     1      18.594  26.532  16.011  1.00  0.00     0.064 A 
HETATM   40 CL3  UNL     1      18.487  28.105  15.218  1.00  0.00    -0.082 Cl
ENDBRANCH  11  32
BRANCH   1  41
HETATM   41  C2  UNL     1      17.791  27.719   9.344  1.00  0.00     0.117 C 
HETATM   42  C1  UNL     1      18.171  29.054   9.907  1.00  0.00     0.026 C 
ENDBRANCH   1  41
TORSDOF 11
ENDMDL
