MODEL 1
REMARK VINA RESULT: -7.443127855      0.000      0.000
REMARK  13 active torsions:
REMARK  status: ('A' for Active; 'I' for Inactive)
REMARK    1  A    between atoms: C2_2  and  O2_4 
REMARK    2  A    between atoms: O2_4  and  C3_5 
REMARK    3  A    between atoms: C3_5  and  C4_6 
REMARK    4  A    between atoms: C4_6  and  C5_7 
REMARK    5  A    between atoms: C7_9  and  C8_10 
REMARK    6  A    between atoms: C8_10  and  C9_11 
REMARK    7  A    between atoms: C15_17  and  C16_18 
REMARK    8  A    between atoms: C16_18  and  C17_19 
REMARK    9  A    between atoms: C21_23  and  O3_24 
REMARK   10  A    between atoms: C22_26  and  C23_27 
REMARK   11  A    between atoms: C23_27  and  C24_28 
REMARK   12  A    between atoms: C28_32  and  O4_33 
REMARK   13  A    between atoms: O4_33  and  S1_34 
ROOT
HETATM    1  C9  UNL     1       2.911  13.675  15.769  1.00  0.00     0.025 C 
HETATM    2  C10 UNL     1       2.296  12.292  15.936  1.00  0.00     0.022 C 
HETATM    3  C11 UNL     1       4.376  13.373  15.482  1.00  0.00     0.020 C 
HETATM    4  C12 UNL     1       5.222  14.578  15.336  1.00  0.00     0.043 C 
HETATM    5  C13 UNL     1       5.469  15.337  16.590  1.00  0.00    -0.015 A 
HETATM    6  C14 UNL     1       4.478  15.917  17.378  1.00  0.00    -0.034 A 
HETATM    7  C15 UNL     1       4.795  16.610  18.490  1.00  0.00    -0.014 A 
HETATM    8  C21 UNL     1       6.174  16.716  18.813  1.00  0.00     0.082 A 
HETATM    9  C22 UNL     1       7.145  16.160  18.063  1.00  0.00     0.014 A 
HETATM   10  C28 UNL     1       6.803  15.443  16.908  1.00  0.00     0.108 A 
HETATM   11  C29 UNL     1       3.025  15.827  17.130  1.00  0.00     0.119 C 
HETATM   12  C30 UNL     1       2.705  14.359  17.059  1.00  0.00     0.255 C 
HETATM   13  F1  UNL     1       3.553  13.708  17.979  1.00  0.00    -0.205 F 
HETATM   14  F2  UNL     1       1.440  14.130  17.538  1.00  0.00    -0.205 F 
ENDROOT
BRANCH   1  15
HETATM   15  C8  UNL     1       2.256  14.315  14.570  1.00  0.00     0.042 C 
BRANCH  15  16
HETATM   16  C7  UNL     1       1.693  13.350  13.589  1.00  0.00    -0.023 C 
HETATM   17  C5  UNL     1       0.425  13.300  13.254  1.00  0.00    -0.086 C 
HETATM   18  C6  UNL     1      -0.587  14.217  13.843  1.00  0.00     0.043 C 
BRANCH  17  19
HETATM   19  C4  UNL     1      -0.066  12.314  12.273  1.00  0.00     0.060 C 
BRANCH  19  20
HETATM   20  C3  UNL     1       0.182  10.885  12.579  1.00  0.00     0.183 C 
BRANCH  20  21
HETATM   21  O2  UNL     1       1.165  10.373  11.713  1.00  0.00    -0.321 OA
BRANCH  21  22
HETATM   22  C2  UNL     1       2.403   9.948  12.141  1.00  0.00     0.254 C 
HETATM   23  C1  UNL     1       2.639   9.579  13.555  1.00  0.00     0.126 C 
HETATM   24  O1  UNL     1       3.331   9.881  11.297  1.00  0.00    -0.266 OA
ENDBRANCH  21  22
ENDBRANCH  20  21
ENDBRANCH  19  20
ENDBRANCH  17  19
ENDBRANCH  15  16
ENDBRANCH   1  15
BRANCH  10  25
HETATM   25  O4  UNL     1       7.776  14.871  16.132  1.00  0.00    -0.213 OA
BRANCH  25  26
HETATM   26  S1  UNL     1       8.559  15.526  14.808  1.00  0.00     0.257 S 
HETATM   27  O5  UNL     1      10.046  15.521  14.917  1.00  0.00    -0.572 OA
HETATM   28  O6  UNL     1       8.216  14.807  13.510  1.00  0.00    -0.572 OA
HETATM   29  O7  UNL     1       8.092  17.137  14.526  1.00  0.00    -0.572 OA
ENDBRANCH  25  26
ENDBRANCH  10  25
BRANCH   7  30
HETATM   30  C16 UNL     1       3.753  17.247  19.308  1.00  0.00     0.069 C 
BRANCH  30  31
HETATM   31  C17 UNL     1       3.520  18.676  19.003  1.00  0.00    -0.020 C 
HETATM   32  C18 UNL     1       3.361  19.595  19.937  1.00  0.00    -0.091 C 
HETATM   33  C19 UNL     1       3.128  21.035  19.622  1.00  0.00     0.042 C 
HETATM   34  C20 UNL     1       3.388  19.235  21.375  1.00  0.00     0.042 C 
ENDBRANCH  30  31
ENDBRANCH   7  30
BRANCH   9  35
HETATM   35  C23 UNL     1       8.574  16.267  18.400  1.00  0.00     0.072 C 
BRANCH  35  36
HETATM   36  C24 UNL     1       9.234  17.502  17.908  1.00  0.00    -0.020 C 
HETATM   37  C25 UNL     1       9.836  18.391  18.653  1.00  0.00    -0.091 C 
HETATM   38  C26 UNL     1       9.909  18.238  20.123  1.00  0.00     0.042 C 
HETATM   39  C27 UNL     1      10.460  19.584  18.013  1.00  0.00     0.042 C 
ENDBRANCH  35  36
ENDBRANCH   9  35
BRANCH   8  40
HETATM   40  O3  UNL     1       6.426  17.435  19.958  1.00  0.00    -0.359 OA
ATOM     41  H3  UNL     1       6.379  18.376  19.841  1.00  0.00     0.217 HD
ENDBRANCH   8  40
TORSDOF 13
ENDMDL
MODEL 2
REMARK VINA RESULT: -7.288231727      5.814      9.628
REMARK  13 active torsions:
REMARK  status: ('A' for Active; 'I' for Inactive)
REMARK    1  A    between atoms: C2_2  and  O2_4 
REMARK    2  A    between atoms: O2_4  and  C3_5 
REMARK    3  A    between atoms: C3_5  and  C4_6 
REMARK    4  A    between atoms: C4_6  and  C5_7 
REMARK    5  A    between atoms: C7_9  and  C8_10 
REMARK    6  A    between atoms: C8_10  and  C9_11 
REMARK    7  A    between atoms: C15_17  and  C16_18 
REMARK    8  A    between atoms: C16_18  and  C17_19 
REMARK    9  A    between atoms: C21_23  and  O3_24 
REMARK   10  A    between atoms: C22_26  and  C23_27 
REMARK   11  A    between atoms: C23_27  and  C24_28 
REMARK   12  A    between atoms: C28_32  and  O4_33 
REMARK   13  A    between atoms: O4_33  and  S1_34 
ROOT
HETATM    1  C9  UNL     1       9.874  19.187  19.896  1.00  0.00     0.025 C 
HETATM    2  C10 UNL     1       8.663  20.076  20.146  1.00  0.00     0.022 C 
HETATM    3  C11 UNL     1      11.051  20.127  20.126  1.00  0.00     0.020 C 
HETATM    4  C12 UNL     1      12.373  19.508  19.882  1.00  0.00     0.043 C 
HETATM    5  C13 UNL     1      12.687  19.220  18.459  1.00  0.00    -0.015 A 
HETATM    6  C14 UNL     1      11.948  18.376  17.635  1.00  0.00    -0.034 A 
HETATM    7  C15 UNL     1      12.321  18.153  16.358  1.00  0.00    -0.014 A 
HETATM    8  C21 UNL     1      13.491  18.816  15.903  1.00  0.00     0.082 A 
HETATM    9  C22 UNL     1      14.217  19.638  16.686  1.00  0.00     0.014 A 
HETATM   10  C28 UNL     1      13.820  19.861  18.012  1.00  0.00     0.108 A 
HETATM   11  C29 UNL     1      10.706  17.675  18.020  1.00  0.00     0.119 C 
HETATM   12  C30 UNL     1       9.757  18.740  18.496  1.00  0.00     0.255 C 
HETATM   13  F1  UNL     1       9.995  19.885  17.707  1.00  0.00    -0.205 F 
HETATM   14  F2  UNL     1       8.466  18.385  18.201  1.00  0.00    -0.205 F 
ENDROOT
BRANCH   1  15
HETATM   15  C8  UNL     1       9.854  18.098  20.940  1.00  0.00     0.042 C 
BRANCH  15  16
HETATM   16  C7  UNL     1       8.589  18.016  21.718  1.00  0.00    -0.023 C 
HETATM   17  C5  UNL     1       7.666  17.104  21.524  1.00  0.00    -0.086 C 
HETATM   18  C6  UNL     1       7.799  16.050  20.482  1.00  0.00     0.043 C 
BRANCH  17  19
HETATM   19  C4  UNL     1       6.433  17.082  22.333  1.00  0.00     0.060 C 
BRANCH  19  20
HETATM   20  C3  UNL     1       5.309  17.924  21.861  1.00  0.00     0.183 C 
BRANCH  20  21
HETATM   21  O2  UNL     1       4.373  17.129  21.172  1.00  0.00    -0.321 OA
BRANCH  21  22
HETATM   22  C2  UNL     1       4.217  17.158  19.804  1.00  0.00     0.254 C 
HETATM   23  C1  UNL     1       3.763  18.384  19.111  1.00  0.00     0.126 C 
HETATM   24  O1  UNL     1       4.472  16.112  19.157  1.00  0.00    -0.266 OA
ENDBRANCH  21  22
ENDBRANCH  20  21
ENDBRANCH  19  20
ENDBRANCH  17  19
ENDBRANCH  15  16
ENDBRANCH   1  15
BRANCH  10  25
HETATM   25  O4  UNL     1      14.545  20.692  18.824  1.00  0.00    -0.213 OA
BRANCH  25  26
HETATM   26  S1  UNL     1      14.410  22.350  18.989  1.00  0.00     0.257 S 
HETATM   27  O5  UNL     1      13.287  22.949  18.214  1.00  0.00    -0.572 OA
HETATM   28  O6  UNL     1      14.216  22.779  20.438  1.00  0.00    -0.572 OA
HETATM   29  O7  UNL     1      15.827  23.155  18.505  1.00  0.00    -0.572 OA
ENDBRANCH  25  26
ENDBRANCH  10  25
BRANCH   7  30
HETATM   30  C16 UNL     1      11.558  17.239  15.495  1.00  0.00     0.069 C 
BRANCH  30  31
HETATM   31  C17 UNL     1      10.187  17.696  15.178  1.00  0.00    -0.020 C 
HETATM   32  C18 UNL     1       9.175  16.867  15.002  1.00  0.00    -0.091 C 
HETATM   33  C19 UNL     1       7.793  17.335  14.684  1.00  0.00     0.042 C 
HETATM   34  C20 UNL     1       9.364  15.400  15.095  1.00  0.00     0.042 C 
ENDBRANCH  30  31
ENDBRANCH   7  30
BRANCH   9  35
HETATM   35  C23 UNL     1      15.428  20.329  16.213  1.00  0.00     0.072 C 
BRANCH  35  36
HETATM   36  C24 UNL     1      15.168  21.563  15.430  1.00  0.00    -0.020 C 
HETATM   37  C25 UNL     1      16.082  22.346  14.919  1.00  0.00    -0.091 C 
HETATM   38  C26 UNL     1      17.523  22.057  15.090  1.00  0.00     0.042 C 
HETATM   39  C27 UNL     1      15.667  23.553  14.149  1.00  0.00     0.042 C 
ENDBRANCH  35  36
ENDBRANCH   9  35
BRANCH   8  40
HETATM   40  O3  UNL     1      13.813  18.545  14.594  1.00  0.00    -0.359 OA
ATOM     41  H3  UNL     1      13.664  19.272  14.001  1.00  0.00     0.217 HD
ENDBRANCH   8  40
TORSDOF 13
ENDMDL
MODEL 3
REMARK VINA RESULT: -6.880910472      9.018     14.035
REMARK  13 active torsions:
REMARK  status: ('A' for Active; 'I' for Inactive)
REMARK    1  A    between atoms: C2_2  and  O2_4 
REMARK    2  A    between atoms: O2_4  and  C3_5 
REMARK    3  A    between atoms: C3_5  and  C4_6 
REMARK    4  A    between atoms: C4_6  and  C5_7 
REMARK    5  A    between atoms: C7_9  and  C8_10 
REMARK    6  A    between atoms: C8_10  and  C9_11 
REMARK    7  A    between atoms: C15_17  and  C16_18 
REMARK    8  A    between atoms: C16_18  and  C17_19 
REMARK    9  A    between atoms: C21_23  and  O3_24 
REMARK   10  A    between atoms: C22_26  and  C23_27 
REMARK   11  A    between atoms: C23_27  and  C24_28 
REMARK   12  A    between atoms: C28_32  and  O4_33 
REMARK   13  A    between atoms: O4_33  and  S1_34 
ROOT
HETATM    1  C9  UNL     1      13.776  21.520  17.475  1.00  0.00     0.025 C 
HETATM    2  C10 UNL     1      12.384  21.561  16.859  1.00  0.00     0.022 C 
HETATM    3  C11 UNL     1      13.800  22.756  18.366  1.00  0.00     0.020 C 
HETATM    4  C12 UNL     1      15.094  22.983  19.047  1.00  0.00     0.043 C 
HETATM    5  C13 UNL     1      16.209  23.413  18.164  1.00  0.00    -0.015 A 
HETATM    6  C14 UNL     1      16.706  22.677  17.092  1.00  0.00    -0.034 A 
HETATM    7  C15 UNL     1      17.741  23.134  16.358  1.00  0.00    -0.014 A 
HETATM    8  C21 UNL     1      18.289  24.390  16.729  1.00  0.00     0.082 A 
HETATM    9  C22 UNL     1      17.819  25.116  17.762  1.00  0.00     0.014 A 
HETATM   10  C28 UNL     1      16.745  24.630  18.519  1.00  0.00     0.108 A 
HETATM   11  C29 UNL     1      16.174  21.381  16.624  1.00  0.00     0.119 C 
HETATM   12  C30 UNL     1      14.714  21.608  16.342  1.00  0.00     0.255 C 
HETATM   13  F1  UNL     1      14.592  22.921  15.842  1.00  0.00    -0.205 F 
HETATM   14  F2  UNL     1      14.306  20.808  15.305  1.00  0.00    -0.205 F 
ENDROOT
BRANCH   1  15
HETATM   15  C8  UNL     1      13.861  20.265  18.308  1.00  0.00     0.042 C 
BRANCH  15  16
HETATM   16  C7  UNL     1      12.922  19.188  17.894  1.00  0.00    -0.023 C 
HETATM   17  C5  UNL     1      11.842  18.860  18.562  1.00  0.00    -0.086 C 
HETATM   18  C6  UNL     1      11.453  19.543  19.825  1.00  0.00     0.043 C 
BRANCH  17  19
HETATM   19  C4  UNL     1      10.954  17.780  18.093  1.00  0.00     0.060 C 
BRANCH  19  20
HETATM   20  C3  UNL     1      10.148  18.056  16.881  1.00  0.00     0.183 C 
BRANCH  20  21
HETATM   21  O2  UNL     1      10.270  16.989  15.972  1.00  0.00    -0.321 OA
BRANCH  21  22
HETATM   22  C2  UNL     1       9.194  16.267  15.503  1.00  0.00     0.254 C 
HETATM   23  C1  UNL     1       8.094  16.926  14.764  1.00  0.00     0.126 C 
HETATM   24  O1  UNL     1       9.172  15.030  15.720  1.00  0.00    -0.266 OA
ENDBRANCH  21  22
ENDBRANCH  20  21
ENDBRANCH  19  20
ENDBRANCH  17  19
ENDBRANCH  15  16
ENDBRANCH   1  15
BRANCH  10  25
HETATM   25  O4  UNL     1      16.253  25.353  19.573  1.00  0.00    -0.213 OA
BRANCH  25  26
HETATM   26  S1  UNL     1      16.780  25.353  21.160  1.00  0.00     0.257 S 
HETATM   27  O5  UNL     1      18.072  24.641  21.372  1.00  0.00    -0.572 OA
HETATM   28  O6  UNL     1      16.961  26.760  21.715  1.00  0.00    -0.572 OA
HETATM   29  O7  UNL     1      15.646  24.638  22.207  1.00  0.00    -0.572 OA
ENDBRANCH  25  26
ENDBRANCH  10  25
BRANCH   7  30
HETATM   30  C16 UNL     1      18.285  22.345  15.244  1.00  0.00     0.069 C 
BRANCH  30  31
HETATM   31  C17 UNL     1      18.737  23.148  14.086  1.00  0.00    -0.020 C 
HETATM   32  C18 UNL     1      17.907  23.815  13.306  1.00  0.00    -0.091 C 
HETATM   33  C19 UNL     1      18.371  24.625  12.140  1.00  0.00     0.042 C 
HETATM   34  C20 UNL     1      16.444  23.781  13.539  1.00  0.00     0.042 C 
ENDBRANCH  30  31
ENDBRANCH   7  30
BRANCH   9  35
HETATM   35  C23 UNL     1      18.386  26.421  18.144  1.00  0.00     0.072 C 
BRANCH  35  36
HETATM   36  C24 UNL     1      18.451  27.412  17.041  1.00  0.00    -0.020 C 
HETATM   37  C25 UNL     1      19.080  28.557  17.084  1.00  0.00    -0.091 C 
HETATM   38  C26 UNL     1      19.811  28.986  18.297  1.00  0.00     0.042 C 
HETATM   39  C27 UNL     1      19.062  29.450  15.890  1.00  0.00     0.042 C 
ENDBRANCH  35  36
ENDBRANCH   9  35
BRANCH   8  40
HETATM   40  O3  UNL     1      19.339  24.796  15.939  1.00  0.00    -0.359 OA
ATOM     41  H3  UNL     1      19.202  24.650  15.010  1.00  0.00     0.217 HD
ENDBRANCH   8  40
TORSDOF 13
ENDMDL
MODEL 4
REMARK VINA RESULT: -6.877450175      4.472     10.966
REMARK  13 active torsions:
REMARK  status: ('A' for Active; 'I' for Inactive)
REMARK    1  A    between atoms: C2_2  and  O2_4 
REMARK    2  A    between atoms: O2_4  and  C3_5 
REMARK    3  A    between atoms: C3_5  and  C4_6 
REMARK    4  A    between atoms: C4_6  and  C5_7 
REMARK    5  A    between atoms: C7_9  and  C8_10 
REMARK    6  A    between atoms: C8_10  and  C9_11 
REMARK    7  A    between atoms: C15_17  and  C16_18 
REMARK    8  A    between atoms: C16_18  and  C17_19 
REMARK    9  A    between atoms: C21_23  and  O3_24 
REMARK   10  A    between atoms: C22_26  and  C23_27 
REMARK   11  A    between atoms: C23_27  and  C24_28 
REMARK   12  A    between atoms: C28_32  and  O4_33 
REMARK   13  A    between atoms: O4_33  and  S1_34 
ROOT
HETATM    1  C9  UNL     1      11.145  19.704  18.379  1.00  0.00     0.025 C 
HETATM    2  C10 UNL     1      11.274  21.093  17.767  1.00  0.00     0.022 C 
HETATM    3  C11 UNL     1      10.908  18.810  17.168  1.00  0.00     0.020 C 
HETATM    4  C12 UNL     1      10.685  17.386  17.505  1.00  0.00     0.043 C 
HETATM    5  C13 UNL     1       9.390  17.086  18.169  1.00  0.00    -0.015 A 
HETATM    6  C14 UNL     1       8.977  17.617  19.387  1.00  0.00    -0.034 A 
HETATM    7  C15 UNL     1       7.793  17.269  19.930  1.00  0.00    -0.014 A 
HETATM    8  C21 UNL     1       6.998  16.345  19.202  1.00  0.00     0.082 A 
HETATM    9  C22 UNL     1       7.381  15.822  18.021  1.00  0.00     0.014 A 
HETATM   10  C28 UNL     1       8.615  16.191  17.468  1.00  0.00     0.108 A 
HETATM   11  C29 UNL     1       9.729  18.604  20.190  1.00  0.00     0.119 C 
HETATM   12  C30 UNL     1       9.980  19.775  19.281  1.00  0.00     0.255 C 
HETATM   13  F1  UNL     1       8.852  19.894  18.443  1.00  0.00    -0.205 F 
HETATM   14  F2  UNL     1       9.992  20.939  20.006  1.00  0.00    -0.205 F 
ENDROOT
BRANCH   1  15
HETATM   15  C8  UNL     1      12.465  19.376  19.030  1.00  0.00     0.042 C 
BRANCH  15  16
HETATM   16  C7  UNL     1      13.606  20.206  18.559  1.00  0.00    -0.023 C 
HETATM   17  C5  UNL     1      14.192  21.128  19.286  1.00  0.00    -0.086 C 
HETATM   18  C6  UNL     1      13.756  21.439  20.674  1.00  0.00     0.043 C 
BRANCH  17  19
HETATM   19  C4  UNL     1      15.319  21.916  18.754  1.00  0.00     0.060 C 
BRANCH  19  20
HETATM   20  C3  UNL     1      15.250  23.386  18.930  1.00  0.00     0.183 C 
BRANCH  20  21
HETATM   21  O2  UNL     1      16.515  23.885  19.292  1.00  0.00    -0.321 OA
BRANCH  21  22
HETATM   22  C2  UNL     1      16.764  24.520  20.488  1.00  0.00     0.254 C 
HETATM   23  C1  UNL     1      15.674  24.791  21.452  1.00  0.00     0.126 C 
HETATM   24  O1  UNL     1      17.945  24.866  20.740  1.00  0.00    -0.266 OA
ENDBRANCH  21  22
ENDBRANCH  20  21
ENDBRANCH  19  20
ENDBRANCH  17  19
ENDBRANCH  15  16
ENDBRANCH   1  15
BRANCH  10  25
HETATM   25  O4  UNL     1       9.023  15.670  16.268  1.00  0.00    -0.213 OA
BRANCH  25  26
HETATM   26  S1  UNL     1       8.781  16.294  14.736  1.00  0.00     0.257 S 
HETATM   27  O5  UNL     1       7.654  17.266  14.646  1.00  0.00    -0.572 OA
HETATM   28  O6  UNL     1      10.014  17.005  14.193  1.00  0.00    -0.572 OA
HETATM   29  O7  UNL     1       8.471  15.072  13.594  1.00  0.00    -0.572 OA
ENDBRANCH  25  26
ENDBRANCH  10  25
BRANCH   7  30
HETATM   30  C16 UNL     1       7.368  17.807  21.230  1.00  0.00     0.069 C 
BRANCH  30  31
HETATM   31  C17 UNL     1       6.104  18.575  21.193  1.00  0.00    -0.020 C 
HETATM   32  C18 UNL     1       5.138  18.413  22.078  1.00  0.00    -0.091 C 
HETATM   33  C19 UNL     1       3.865  19.193  22.036  1.00  0.00     0.042 C 
HETATM   34  C20 UNL     1       5.260  17.417  23.169  1.00  0.00     0.042 C 
ENDBRANCH  30  31
ENDBRANCH   7  30
BRANCH   9  35
HETATM   35  C23 UNL     1       6.554  14.867  17.264  1.00  0.00     0.072 C 
BRANCH  35  36
HETATM   36  C24 UNL     1       5.345  15.458  16.638  1.00  0.00    -0.020 C 
HETATM   37  C25 UNL     1       4.313  14.789  16.195  1.00  0.00    -0.091 C 
HETATM   38  C26 UNL     1       4.263  13.312  16.278  1.00  0.00     0.042 C 
HETATM   39  C27 UNL     1       3.165  15.524  15.593  1.00  0.00     0.042 C 
ENDBRANCH  35  36
ENDBRANCH   9  35
BRANCH   8  40
HETATM   40  O3  UNL     1       5.804  16.034  19.810  1.00  0.00    -0.359 OA
ATOM     41  H3  UNL     1       5.742  15.132  20.101  1.00  0.00     0.217 HD
ENDBRANCH   8  40
TORSDOF 13
ENDMDL
MODEL 5
REMARK VINA RESULT: -6.867268789      4.476      9.897
REMARK  13 active torsions:
REMARK  status: ('A' for Active; 'I' for Inactive)
REMARK    1  A    between atoms: C2_2  and  O2_4 
REMARK    2  A    between atoms: O2_4  and  C3_5 
REMARK    3  A    between atoms: C3_5  and  C4_6 
REMARK    4  A    between atoms: C4_6  and  C5_7 
REMARK    5  A    between atoms: C7_9  and  C8_10 
REMARK    6  A    between atoms: C8_10  and  C9_11 
REMARK    7  A    between atoms: C15_17  and  C16_18 
REMARK    8  A    between atoms: C16_18  and  C17_19 
REMARK    9  A    between atoms: C21_23  and  O3_24 
REMARK   10  A    between atoms: C22_26  and  C23_27 
REMARK   11  A    between atoms: C23_27  and  C24_28 
REMARK   12  A    between atoms: C28_32  and  O4_33 
REMARK   13  A    between atoms: O4_33  and  S1_34 
ROOT
HETATM    1  C9  UNL     1       7.866  17.509  20.913  1.00  0.00     0.025 C 
HETATM    2  C10 UNL     1       8.654  16.872  22.050  1.00  0.00     0.022 C 
HETATM    3  C11 UNL     1       6.572  17.947  21.588  1.00  0.00     0.020 C 
HETATM    4  C12 UNL     1       5.588  18.555  20.666  1.00  0.00     0.043 C 
HETATM    5  C13 UNL     1       4.947  17.615  19.710  1.00  0.00    -0.015 A 
HETATM    6  C14 UNL     1       5.628  16.858  18.760  1.00  0.00    -0.034 A 
HETATM    7  C15 UNL     1       4.961  16.046  17.914  1.00  0.00    -0.014 A 
HETATM    8  C21 UNL     1       3.548  16.002  18.042  1.00  0.00     0.082 A 
HETATM    9  C22 UNL     1       2.874  16.726  18.956  1.00  0.00     0.014 A 
HETATM   10  C28 UNL     1       3.577  17.568  19.829  1.00  0.00     0.108 A 
HETATM   11  C29 UNL     1       7.094  16.823  18.584  1.00  0.00     0.119 C 
HETATM   12  C30 UNL     1       7.665  16.438  19.920  1.00  0.00     0.255 C 
HETATM   13  F1  UNL     1       6.758  15.533  20.510  1.00  0.00    -0.205 F 
HETATM   14  F2  UNL     1       8.813  15.708  19.748  1.00  0.00    -0.205 F 
ENDROOT
BRANCH   1  15
HETATM   15  C8  UNL     1       8.651  18.708  20.442  1.00  0.00     0.042 C 
BRANCH  15  16
HETATM   16  C7  UNL     1      10.078  18.427  20.133  1.00  0.00    -0.023 C 
HETATM   17  C5  UNL     1      10.582  18.436  18.921  1.00  0.00    -0.086 C 
HETATM   18  C6  UNL     1       9.754  18.726  17.720  1.00  0.00     0.043 C 
BRANCH  17  19
HETATM   19  C4  UNL     1      12.009  18.146  18.687  1.00  0.00     0.060 C 
BRANCH  19  20
HETATM   20  C3  UNL     1      12.795  19.185  17.982  1.00  0.00     0.183 C 
BRANCH  20  21
HETATM   21  O2  UNL     1      12.711  20.404  18.680  1.00  0.00    -0.321 OA
BRANCH  21  22
HETATM   22  C2  UNL     1      12.646  21.631  18.056  1.00  0.00     0.254 C 
HETATM   23  C1  UNL     1      13.694  22.654  18.268  1.00  0.00     0.126 C 
HETATM   24  O1  UNL     1      11.669  21.859  17.300  1.00  0.00    -0.266 OA
ENDBRANCH  21  22
ENDBRANCH  20  21
ENDBRANCH  19  20
ENDBRANCH  17  19
ENDBRANCH  15  16
ENDBRANCH   1  15
BRANCH  10  25
HETATM   25  O4  UNL     1       2.910  18.313  20.765  1.00  0.00    -0.213 OA
BRANCH  25  26
HETATM   26  S1  UNL     1       2.601  17.927  22.362  1.00  0.00     0.257 S 
HETATM   27  O5  UNL     1       1.152  17.790  22.686  1.00  0.00    -0.572 OA
HETATM   28  O6  UNL     1       3.267  16.626  22.789  1.00  0.00    -0.572 OA
HETATM   29  O7  UNL     1       3.236  19.088  23.431  1.00  0.00    -0.572 OA
ENDBRANCH  25  26
ENDBRANCH  10  25
BRANCH   7  30
HETATM   30  C16 UNL     1       5.676  15.268  16.892  1.00  0.00     0.069 C 
BRANCH  30  31
HETATM   31  C17 UNL     1       6.205  16.071  15.767  1.00  0.00    -0.020 C 
HETATM   32  C18 UNL     1       7.468  16.030  15.386  1.00  0.00    -0.091 C 
HETATM   33  C19 UNL     1       7.994  16.842  14.249  1.00  0.00     0.042 C 
HETATM   34  C20 UNL     1       8.452  15.176  16.092  1.00  0.00     0.042 C 
ENDBRANCH  30  31
ENDBRANCH   7  30
BRANCH   9  35
HETATM   35  C23 UNL     1       1.408  16.678  19.091  1.00  0.00     0.072 C 
BRANCH  35  36
HETATM   36  C24 UNL     1       0.899  15.526  19.877  1.00  0.00    -0.020 C 
HETATM   37  C25 UNL     1       0.063  14.619  19.443  1.00  0.00    -0.091 C 
HETATM   38  C26 UNL     1      -0.476  14.668  18.066  1.00  0.00     0.042 C 
HETATM   39  C27 UNL     1      -0.356  13.514  20.351  1.00  0.00     0.042 C 
ENDBRANCH  35  36
ENDBRANCH   9  35
BRANCH   8  40
HETATM   40  O3  UNL     1       2.932  15.155  17.150  1.00  0.00    -0.359 OA
ATOM     41  H3  UNL     1       3.521  14.780  16.506  1.00  0.00     0.217 HD
ENDBRANCH   8  40
TORSDOF 13
ENDMDL
