MODEL 1
REMARK VINA RESULT: -12.283666909      0.000      0.000
REMARK  5 active torsions:
REMARK  status: ('A' for Active; 'I' for Inactive)
REMARK       I    between atoms: C1_2  and  N1_3 
REMARK    1  A    between atoms: C1_2  and  C8_11 
REMARK    2  A    between atoms: N1_3  and  C2_5 
REMARK    3  A    between atoms: C12_15  and  S1_16 
REMARK    4  A    between atoms: S1_16  and  C13_17 
REMARK    5  A    between atoms: C16_20  and  C17_21 
ROOT
HETATM    1  C13 UNL     1      61.677   6.050  -4.949  1.00  0.00     0.005 A 
HETATM    2  C14 UNL     1      61.630   5.050  -4.010  1.00  0.00     0.020 A 
HETATM    3  C15 UNL     1      61.240   5.307  -2.712  1.00  0.00     0.015 A 
HETATM    4  C16 UNL     1      60.878   6.592  -2.303  1.00  0.00    -0.007 A 
HETATM    5  C22 UNL     1      60.930   7.588  -3.256  1.00  0.00     0.015 A 
HETATM    6  C23 UNL     1      61.325   7.326  -4.572  1.00  0.00     0.020 A 
ENDROOT
BRANCH   1   7
HETATM    7  S1  UNL     1      62.185   5.717  -6.642  1.00  0.00    -0.091 SA
BRANCH   7   8
HETATM    8  C12 UNL     1      62.227   3.946  -6.936  1.00  0.00     0.006 A 
HETATM    9  C11 UNL     1      61.108   3.275  -7.371  1.00  0.00     0.019 A 
HETATM   10  C10 UNL     1      61.158   1.923  -7.589  1.00  0.00     0.002 A 
HETATM   11  C9  UNL     1      62.348   1.213  -7.371  1.00  0.00     0.017 A 
HETATM   12  C8  UNL     1      63.470   1.862  -6.938  1.00  0.00     0.033 A 
HETATM   13  C24 UNL     1      63.386   3.226  -6.727  1.00  0.00     0.035 A 
BRANCH  12  14
HETATM   14  C1  UNL     1      64.751   1.151  -6.702  1.00  0.00     0.256 C 
HETATM   15  O1  UNL     1      65.765   1.871  -6.565  1.00  0.00    -0.267 OA
HETATM   16  N1  UNL     1      64.710  -0.254  -6.659  1.00  0.00    -0.323 N 
ATOM     17  H1  UNL     1      63.805  -0.702  -6.797  1.00  0.00     0.169 HD
BRANCH  16  18
HETATM   18  C2  UNL     1      65.826  -1.096  -6.438  1.00  0.00     0.035 A 
HETATM   19  C3  UNL     1      66.001  -1.713  -5.182  1.00  0.00     0.029 A 
HETATM   20  C4  UNL     1      67.063  -2.525  -4.893  1.00  0.00     0.002 A 
HETATM   21  C5  UNL     1      68.012  -2.763  -5.850  1.00  0.00     0.000 A 
HETATM   22  C6  UNL     1      67.897  -2.192  -7.086  1.00  0.00     0.002 A 
HETATM   23  C7  UNL     1      66.804  -1.369  -7.355  1.00  0.00     0.029 A 
ENDBRANCH  16  18
ENDBRANCH  12  14
ENDBRANCH   7   8
ENDBRANCH   1   7
BRANCH   4  24
HETATM   24  C17 UNL     1      60.464   6.865  -0.923  1.00  0.00     0.071 A 
HETATM   25  N2  UNL     1      59.906   8.005  -0.480  1.00  0.00    -0.362 N 
HETATM   26  C18 UNL     1      59.629   7.980   0.815  1.00  0.00     0.103 A 
ATOM     27  H2  UNL     1      59.715   8.808  -1.080  1.00  0.00     0.165 HD
HETATM   28  C19 UNL     1      60.014   6.756   1.305  1.00  0.00     0.026 A 
HETATM   29  C20 UNL     1      60.114   5.911   2.387  1.00  0.00     0.122 A 
HETATM   30  C21 UNL     1      60.557   6.032   0.164  1.00  0.00     0.088 A 
HETATM   31  N3  UNL     1      60.671   4.773   1.941  1.00  0.00    -0.310 N 
HETATM   32  N4  UNL     1      60.932   4.846   0.631  1.00  0.00    -0.298 N 
ATOM     33  H3  UNL     1      60.870   3.960   2.525  1.00  0.00     0.186 HD
ATOM     34  H4  UNL     1      61.354   4.102   0.074  1.00  0.00     0.187 HD
ENDBRANCH   4  24
TORSDOF 5
ENDMDL
MODEL 2
REMARK VINA RESULT: -12.171696513      0.990      1.011
REMARK  5 active torsions:
REMARK  status: ('A' for Active; 'I' for Inactive)
REMARK       I    between atoms: C1_2  and  N1_3 
REMARK    1  A    between atoms: C1_2  and  C8_11 
REMARK    2  A    between atoms: N1_3  and  C2_5 
REMARK    3  A    between atoms: C12_15  and  S1_16 
REMARK    4  A    between atoms: S1_16  and  C13_17 
REMARK    5  A    between atoms: C16_20  and  C17_21 
ROOT
HETATM    1  C13 UNL     1      62.062   5.447  -5.079  1.00  0.00     0.005 A 
HETATM    2  C14 UNL     1      61.994   4.559  -4.035  1.00  0.00     0.020 A 
HETATM    3  C15 UNL     1      61.513   4.942  -2.800  1.00  0.00     0.015 A 
HETATM    4  C16 UNL     1      61.077   6.247  -2.564  1.00  0.00    -0.007 A 
HETATM    5  C22 UNL     1      61.151   7.131  -3.620  1.00  0.00     0.015 A 
HETATM    6  C23 UNL     1      61.639   6.741  -4.872  1.00  0.00     0.020 A 
ENDROOT
BRANCH   1   7
HETATM    7  S1  UNL     1      62.689   4.949  -6.689  1.00  0.00    -0.091 SA
BRANCH   7   8
HETATM    8  C12 UNL     1      62.282   3.228  -7.003  1.00  0.00     0.006 A 
HETATM    9  C11 UNL     1      61.086   2.880  -7.587  1.00  0.00     0.019 A 
HETATM   10  C10 UNL     1      60.792   1.562  -7.818  1.00  0.00     0.002 A 
HETATM   11  C9  UNL     1      61.705   0.559  -7.463  1.00  0.00     0.017 A 
HETATM   12  C8  UNL     1      62.898   0.884  -6.881  1.00  0.00     0.033 A 
HETATM   13  C24 UNL     1      63.164   2.223  -6.661  1.00  0.00     0.035 A 
BRANCH  12  14
HETATM   14  C1  UNL     1      63.896  -0.145  -6.497  1.00  0.00     0.256 C 
HETATM   15  O1  UNL     1      63.454  -1.143  -5.888  1.00  0.00    -0.267 OA
HETATM   16  N1  UNL     1      65.237   0.096  -6.847  1.00  0.00    -0.323 N 
ATOM     17  H1  UNL     1      65.445   0.965  -7.339  1.00  0.00     0.169 HD
BRANCH  16  18
HETATM   18  C2  UNL     1      66.320  -0.771  -6.573  1.00  0.00     0.035 A 
HETATM   19  C3  UNL     1      66.922  -0.760  -5.298  1.00  0.00     0.029 A 
HETATM   20  C4  UNL     1      67.982  -1.558  -4.967  1.00  0.00     0.002 A 
HETATM   21  C5  UNL     1      68.500  -2.414  -5.901  1.00  0.00     0.000 A 
HETATM   22  C6  UNL     1      67.960  -2.470  -7.155  1.00  0.00     0.002 A 
HETATM   23  C7  UNL     1      66.879  -1.646  -7.466  1.00  0.00     0.029 A 
ENDBRANCH  16  18
ENDBRANCH  12  14
ENDBRANCH   7   8
ENDBRANCH   1   7
BRANCH   4  24
HETATM   24  C17 UNL     1      60.566   6.654  -1.252  1.00  0.00     0.071 A 
HETATM   25  N2  UNL     1      59.949   7.816  -0.973  1.00  0.00    -0.362 N 
HETATM   26  C18 UNL     1      59.589   7.924   0.297  1.00  0.00     0.103 A 
ATOM     27  H2  UNL     1      59.775   8.542  -1.670  1.00  0.00     0.165 HD
HETATM   28  C19 UNL     1      59.975   6.775   0.943  1.00  0.00     0.026 A 
HETATM   29  C20 UNL     1      60.028   6.057   2.116  1.00  0.00     0.122 A 
HETATM   30  C21 UNL     1      60.612   5.950  -0.074  1.00  0.00     0.088 A 
HETATM   31  N3  UNL     1      60.644   4.897   1.835  1.00  0.00    -0.310 N 
HETATM   32  N4  UNL     1      60.988   4.835   0.544  1.00  0.00    -0.298 N 
ATOM     33  H3  UNL     1      60.827   4.161   2.517  1.00  0.00     0.186 HD
ATOM     34  H4  UNL     1      61.466   4.050   0.101  1.00  0.00     0.187 HD
ENDBRANCH   4  24
TORSDOF 5
ENDMDL
MODEL 3
REMARK VINA RESULT: -12.114555456      1.364      1.427
REMARK  5 active torsions:
REMARK  status: ('A' for Active; 'I' for Inactive)
REMARK       I    between atoms: C1_2  and  N1_3 
REMARK    1  A    between atoms: C1_2  and  C8_11 
REMARK    2  A    between atoms: N1_3  and  C2_5 
REMARK    3  A    between atoms: C12_15  and  S1_16 
REMARK    4  A    between atoms: S1_16  and  C13_17 
REMARK    5  A    between atoms: C16_20  and  C17_21 
ROOT
HETATM    1  C13 UNL     1      61.367   5.508  -4.329  1.00  0.00     0.005 A 
HETATM    2  C14 UNL     1      61.391   4.704  -3.216  1.00  0.00     0.020 A 
HETATM    3  C15 UNL     1      61.108   5.208  -1.964  1.00  0.00     0.015 A 
HETATM    4  C16 UNL     1      60.785   6.554  -1.779  1.00  0.00    -0.007 A 
HETATM    5  C22 UNL     1      60.764   7.351  -2.904  1.00  0.00     0.015 A 
HETATM    6  C23 UNL     1      61.052   6.839  -4.173  1.00  0.00     0.020 A 
ENDROOT
BRANCH   1   7
HETATM    7  S1  UNL     1      61.736   4.852  -5.962  1.00  0.00    -0.091 SA
BRANCH   7   8
HETATM    8  C12 UNL     1      61.331   3.104  -6.030  1.00  0.00     0.006 A 
HETATM    9  C11 UNL     1      60.046   2.667  -5.809  1.00  0.00     0.019 A 
HETATM   10  C10 UNL     1      59.755   1.329  -5.864  1.00  0.00     0.002 A 
HETATM   11  C9  UNL     1      60.764   0.396  -6.146  1.00  0.00     0.017 A 
HETATM   12  C8  UNL     1      62.046   0.810  -6.368  1.00  0.00     0.033 A 
HETATM   13  C24 UNL     1      62.307   2.167  -6.305  1.00  0.00     0.035 A 
BRANCH  12  14
HETATM   14  C1  UNL     1      63.142  -0.143  -6.678  1.00  0.00     0.256 C 
HETATM   15  O1  UNL     1      62.925  -0.949  -7.610  1.00  0.00    -0.267 OA
HETATM   16  N1  UNL     1      64.311  -0.055  -5.902  1.00  0.00    -0.323 N 
ATOM     17  H1  UNL     1      64.335   0.653  -5.168  1.00  0.00     0.169 HD
BRANCH  16  18
HETATM   18  C2  UNL     1      65.456  -0.871  -6.057  1.00  0.00     0.035 A 
HETATM   19  C3  UNL     1      65.693  -1.928  -5.154  1.00  0.00     0.029 A 
HETATM   20  C4  UNL     1      66.786  -2.745  -5.234  1.00  0.00     0.002 A 
HETATM   21  C5  UNL     1      67.708  -2.546  -6.226  1.00  0.00     0.000 A 
HETATM   22  C6  UNL     1      67.534  -1.536  -7.131  1.00  0.00     0.002 A 
HETATM   23  C7  UNL     1      66.410  -0.718  -7.027  1.00  0.00     0.029 A 
ENDBRANCH  16  18
ENDBRANCH  12  14
ENDBRANCH   7   8
ENDBRANCH   1   7
BRANCH   4  24
HETATM   24  C17 UNL     1      60.484   7.089  -0.448  1.00  0.00     0.071 A 
HETATM   25  N2  UNL     1      59.669   8.126  -0.182  1.00  0.00    -0.362 N 
HETATM   26  C18 UNL     1      59.577   8.398   1.111  1.00  0.00     0.103 A 
ATOM     27  H2  UNL     1      59.173   8.650  -0.904  1.00  0.00     0.165 HD
HETATM   28  C19 UNL     1      60.369   7.503   1.787  1.00  0.00     0.026 A 
HETATM   29  C20 UNL     1      60.853   7.053   2.995  1.00  0.00     0.122 A 
HETATM   30  C21 UNL     1      60.958   6.651   0.764  1.00  0.00     0.088 A 
HETATM   31  N3  UNL     1      61.665   6.018   2.727  1.00  0.00    -0.310 N 
HETATM   32  N4  UNL     1      61.726   5.782   1.412  1.00  0.00    -0.298 N 
ATOM     33  H3  UNL     1      62.170   5.482   3.434  1.00  0.00     0.186 HD
ATOM     34  H4  UNL     1      62.279   5.045   0.973  1.00  0.00     0.187 HD
ENDBRANCH   4  24
TORSDOF 5
ENDMDL
MODEL 4
REMARK VINA RESULT: -11.871215421      2.343      9.821
REMARK  5 active torsions:
REMARK  status: ('A' for Active; 'I' for Inactive)
REMARK       I    between atoms: C1_2  and  N1_3 
REMARK    1  A    between atoms: C1_2  and  C8_11 
REMARK    2  A    between atoms: N1_3  and  C2_5 
REMARK    3  A    between atoms: C12_15  and  S1_16 
REMARK    4  A    between atoms: S1_16  and  C13_17 
REMARK    5  A    between atoms: C16_20  and  C17_21 
ROOT
HETATM    1  C13 UNL     1      61.706   2.218  -6.012  1.00  0.00     0.005 A 
HETATM    2  C14 UNL     1      62.894   2.845  -6.296  1.00  0.00     0.020 A 
HETATM    3  C15 UNL     1      64.049   2.124  -6.510  1.00  0.00     0.015 A 
HETATM    4  C16 UNL     1      64.057   0.729  -6.447  1.00  0.00    -0.007 A 
HETATM    5  C22 UNL     1      62.858   0.111  -6.161  1.00  0.00     0.015 A 
HETATM    6  C23 UNL     1      61.686   0.844  -5.944  1.00  0.00     0.020 A 
ENDROOT
BRANCH   1   7
HETATM    7  S1  UNL     1      60.198   3.158  -5.733  1.00  0.00    -0.091 SA
BRANCH   7   8
HETATM    8  C12 UNL     1      60.599   4.860  -5.323  1.00  0.00     0.006 A 
HETATM    9  C11 UNL     1      61.070   5.726  -6.282  1.00  0.00     0.019 A 
HETATM   10  C10 UNL     1      61.372   7.021  -5.950  1.00  0.00     0.002 A 
HETATM   11  C9  UNL     1      61.203   7.473  -4.634  1.00  0.00     0.017 A 
HETATM   12  C8  UNL     1      60.738   6.628  -3.667  1.00  0.00     0.033 A 
HETATM   13  C24 UNL     1      60.443   5.327  -4.033  1.00  0.00     0.035 A 
BRANCH  12  14
HETATM   14  C1  UNL     1      60.537   7.067  -2.263  1.00  0.00     0.256 C 
HETATM   15  O1  UNL     1      60.053   8.210  -2.106  1.00  0.00    -0.267 OA
HETATM   16  N1  UNL     1      60.908   6.168  -1.247  1.00  0.00    -0.323 N 
ATOM     17  H1  UNL     1      61.298   5.271  -1.534  1.00  0.00     0.169 HD
BRANCH  16  18
HETATM   18  C2  UNL     1      60.783   6.410   0.141  1.00  0.00     0.035 A 
HETATM   19  C3  UNL     1      61.251   7.622   0.688  1.00  0.00     0.029 A 
HETATM   20  C4  UNL     1      61.178   7.915   2.021  1.00  0.00     0.002 A 
HETATM   21  C5  UNL     1      60.630   7.006   2.884  1.00  0.00     0.000 A 
HETATM   22  C6  UNL     1      60.160   5.812   2.414  1.00  0.00     0.002 A 
HETATM   23  C7  UNL     1      60.246   5.538   1.050  1.00  0.00     0.029 A 
ENDBRANCH  16  18
ENDBRANCH  12  14
ENDBRANCH   7   8
ENDBRANCH   1   7
BRANCH   4  24
HETATM   24  C17 UNL     1      65.286  -0.038  -6.675  1.00  0.00     0.071 A 
HETATM   25  N2  UNL     1      66.180   0.182  -7.655  1.00  0.00    -0.362 N 
HETATM   26  C18 UNL     1      67.200  -0.662  -7.627  1.00  0.00     0.103 A 
ATOM     27  H2  UNL     1      66.082   0.924  -8.349  1.00  0.00     0.165 HD
HETATM   28  C19 UNL     1      67.011  -1.518  -6.571  1.00  0.00     0.026 A 
HETATM   29  C20 UNL     1      67.473  -2.588  -5.838  1.00  0.00     0.122 A 
HETATM   30  C21 UNL     1      65.759  -1.105  -5.953  1.00  0.00     0.088 A 
HETATM   31  N3  UNL     1      66.578  -2.805  -4.860  1.00  0.00    -0.310 N 
HETATM   32  N4  UNL     1      65.568  -1.930  -4.929  1.00  0.00    -0.298 N 
ATOM     33  H3  UNL     1      66.658  -3.540  -4.157  1.00  0.00     0.186 HD
ATOM     34  H4  UNL     1      64.773  -1.901  -4.291  1.00  0.00     0.187 HD
ENDBRANCH   4  24
TORSDOF 5
ENDMDL
MODEL 5
REMARK VINA RESULT: -11.807946028      0.696      1.666
REMARK  5 active torsions:
REMARK  status: ('A' for Active; 'I' for Inactive)
REMARK       I    between atoms: C1_2  and  N1_3 
REMARK    1  A    between atoms: C1_2  and  C8_11 
REMARK    2  A    between atoms: N1_3  and  C2_5 
REMARK    3  A    between atoms: C12_15  and  S1_16 
REMARK    4  A    between atoms: S1_16  and  C13_17 
REMARK    5  A    between atoms: C16_20  and  C17_21 
ROOT
HETATM    1  C13 UNL     1      61.395   5.485  -4.886  1.00  0.00     0.005 A 
HETATM    2  C14 UNL     1      60.927   6.651  -4.331  1.00  0.00     0.020 A 
HETATM    3  C15 UNL     1      60.756   6.776  -2.969  1.00  0.00     0.015 A 
HETATM    4  C16 UNL     1      61.051   5.723  -2.100  1.00  0.00    -0.007 A 
HETATM    5  C22 UNL     1      61.520   4.558  -2.669  1.00  0.00     0.015 A 
HETATM    6  C23 UNL     1      61.693   4.432  -4.051  1.00  0.00     0.020 A 
ENDROOT
BRANCH   1   7
HETATM    7  S1  UNL     1      61.619   5.322  -6.663  1.00  0.00    -0.091 SA
BRANCH   7   8
HETATM    8  C12 UNL     1      61.831   3.593  -7.101  1.00  0.00     0.006 A 
HETATM    9  C11 UNL     1      60.802   2.876  -7.665  1.00  0.00     0.019 A 
HETATM   10  C10 UNL     1      60.982   1.557  -7.992  1.00  0.00     0.002 A 
HETATM   11  C9  UNL     1      62.213   0.929  -7.755  1.00  0.00     0.017 A 
HETATM   12  C8  UNL     1      63.247   1.625  -7.195  1.00  0.00     0.033 A 
HETATM   13  C24 UNL     1      63.034   2.954  -6.876  1.00  0.00     0.035 A 
BRANCH  12  14
HETATM   14  C1  UNL     1      64.569   1.002  -6.936  1.00  0.00     0.256 C 
HETATM   15  O1  UNL     1      65.551   1.777  -6.918  1.00  0.00    -0.267 OA
HETATM   16  N1  UNL     1      64.598  -0.390  -6.738  1.00  0.00    -0.323 N 
ATOM     17  H1  UNL     1      63.711  -0.891  -6.791  1.00  0.00     0.169 HD
BRANCH  16  18
HETATM   18  C2  UNL     1      65.759  -1.153  -6.472  1.00  0.00     0.035 A 
HETATM   19  C3  UNL     1      65.938  -1.738  -5.202  1.00  0.00     0.029 A 
HETATM   20  C4  UNL     1      67.043  -2.473  -4.869  1.00  0.00     0.002 A 
HETATM   21  C5  UNL     1      68.033  -2.661  -5.795  1.00  0.00     0.000 A 
HETATM   22  C6  UNL     1      67.917  -2.117  -7.043  1.00  0.00     0.002 A 
HETATM   23  C7  UNL     1      66.780  -1.373  -7.356  1.00  0.00     0.029 A 
ENDBRANCH  16  18
ENDBRANCH  12  14
ENDBRANCH   7   8
ENDBRANCH   1   7
BRANCH   4  24
HETATM   24  C17 UNL     1      60.869   5.856  -0.652  1.00  0.00     0.071 A 
HETATM   25  N2  UNL     1      61.165   4.920   0.268  1.00  0.00    -0.362 N 
HETATM   26  C18 UNL     1      60.900   5.306   1.507  1.00  0.00     0.103 A 
ATOM     27  H2  UNL     1      61.553   4.006   0.035  1.00  0.00     0.165 HD
HETATM   28  C19 UNL     1      60.393   6.581   1.453  1.00  0.00     0.026 A 
HETATM   29  C20 UNL     1      59.895   7.670   2.133  1.00  0.00     0.122 A 
HETATM   30  C21 UNL     1      60.376   6.934   0.040  1.00  0.00     0.088 A 
HETATM   31  N3  UNL     1      59.602   8.602   1.212  1.00  0.00    -0.310 N 
HETATM   32  N4  UNL     1      59.885   8.168  -0.021  1.00  0.00    -0.298 N 
ATOM     33  H3  UNL     1      59.213   9.521   1.425  1.00  0.00     0.186 HD
ATOM     34  H4  UNL     1      59.746   8.703  -0.878  1.00  0.00     0.187 HD
ENDBRANCH   4  24
TORSDOF 5
ENDMDL
