MODEL 1
REMARK VINA RESULT: -9.870314915      0.000      0.000
REMARK  5 active torsions:
REMARK  status: ('A' for Active; 'I' for Inactive)
REMARK       I    between atoms: C1_2  and  N1_3 
REMARK       I    between atoms: C1_2  and  N2_11 
REMARK    1  A    between atoms: N1_3  and  C2_5 
REMARK    2  A    between atoms: N2_11  and  C8_13 
REMARK    3  A    between atoms: C13_18  and  C14_19 
REMARK       I    between atoms: C14_19  and  N3_21 
REMARK    4  A    between atoms: N3_21  and  C15_23 
REMARK    5  A    between atoms: C18_26  and  C19_27 
ROOT
HETATM    1  C8  UNL     1      62.508   1.684  -7.619  1.00  0.00     0.052 A 
HETATM    2  C9  UNL     1      62.237   0.945  -8.760  1.00  0.00     0.030 A 
HETATM    3  C10 UNL     1      61.001   1.108  -9.370  1.00  0.00     0.002 A 
HETATM    4  C11 UNL     1      60.074   1.977  -8.854  1.00  0.00     0.001 A 
HETATM    5  C12 UNL     1      60.364   2.700  -7.718  1.00  0.00     0.019 A 
HETATM    6  C13 UNL     1      61.570   2.574  -7.077  1.00  0.00     0.059 A 
ENDROOT
BRANCH   6   7
HETATM    7  C14 UNL     1      61.793   3.289  -5.800  1.00  0.00     0.258 C 
HETATM    8  O2  UNL     1      62.900   3.795  -5.571  1.00  0.00    -0.267 OA
HETATM    9  N3  UNL     1      60.796   3.419  -4.837  1.00  0.00    -0.322 N 
ATOM     10  H3  UNL     1      59.890   2.993  -5.037  1.00  0.00     0.169 HD
BRANCH   9  11
HETATM   11  C15 UNL     1      60.939   4.100  -3.597  1.00  0.00     0.050 A 
HETATM   12  C16 UNL     1      61.715   3.722  -2.543  1.00  0.00     0.033 A 
HETATM   13  C17 UNL     1      61.739   4.483  -1.355  1.00  0.00     0.033 A 
HETATM   14  C18 UNL     1      60.991   5.624  -1.212  1.00  0.00     0.042 A 
HETATM   15  N4  UNL     1      60.235   5.975  -2.266  1.00  0.00    -0.363 N 
HETATM   16  C25 UNL     1      60.187   5.281  -3.402  1.00  0.00     0.117 A 
ATOM     17  H4  UNL     1      59.667   6.819  -2.192  1.00  0.00     0.165 HD
BRANCH  14  18
HETATM   18  C19 UNL     1      60.991   6.433  -0.000  1.00  0.00    -0.009 A 
HETATM   19  C20 UNL     1      60.806   7.798  -0.008  1.00  0.00     0.013 A 
HETATM   20  C21 UNL     1      60.825   8.478   1.197  1.00  0.00     0.001 A 
HETATM   21  C22 UNL     1      61.020   7.858   2.409  1.00  0.00     0.000 A 
HETATM   22  C23 UNL     1      61.206   6.482   2.407  1.00  0.00     0.001 A 
HETATM   23  C24 UNL     1      61.190   5.799   1.219  1.00  0.00     0.013 A 
ENDBRANCH  14  18
ENDBRANCH   9  11
ENDBRANCH   6   7
BRANCH   1  24
HETATM   24  N2  UNL     1      63.807   1.618  -7.092  1.00  0.00    -0.308 N 
HETATM   25  C1  UNL     1      64.576   0.432  -6.879  1.00  0.00     0.325 C 
HETATM   26  O1  UNL     1      64.135  -0.683  -7.140  1.00  0.00    -0.247 OA
HETATM   27  N1  UNL     1      65.882   0.546  -6.353  1.00  0.00    -0.309 N 
ATOM     28  H1  UNL     1      66.221   1.483  -6.138  1.00  0.00     0.170 HD
ATOM     29  H2  UNL     1      64.246   2.503  -6.835  1.00  0.00     0.170 HD
BRANCH  27  30
HETATM   30  C2  UNL     1      66.738  -0.512  -6.107  1.00  0.00     0.036 A 
HETATM   31  C3  UNL     1      67.198  -0.868  -4.872  1.00  0.00     0.029 A 
HETATM   32  C4  UNL     1      68.086  -1.939  -4.716  1.00  0.00     0.002 A 
HETATM   33  C5  UNL     1      68.493  -2.635  -5.821  1.00  0.00     0.000 A 
HETATM   34  C6  UNL     1      68.042  -2.292  -7.065  1.00  0.00     0.002 A 
HETATM   35  C7  UNL     1      67.177  -1.248  -7.217  1.00  0.00     0.029 A 
ENDBRANCH  27  30
ENDBRANCH   1  24
TORSDOF 5
ENDMDL
MODEL 2
REMARK VINA RESULT: -9.861226611      1.181      1.514
REMARK  5 active torsions:
REMARK  status: ('A' for Active; 'I' for Inactive)
REMARK       I    between atoms: C1_2  and  N1_3 
REMARK       I    between atoms: C1_2  and  N2_11 
REMARK    1  A    between atoms: N1_3  and  C2_5 
REMARK    2  A    between atoms: N2_11  and  C8_13 
REMARK    3  A    between atoms: C13_18  and  C14_19 
REMARK       I    between atoms: C14_19  and  N3_21 
REMARK    4  A    between atoms: N3_21  and  C15_23 
REMARK    5  A    between atoms: C18_26  and  C19_27 
ROOT
HETATM    1  C8  UNL     1      61.556   0.764  -7.147  1.00  0.00     0.052 A 
HETATM    2  C9  UNL     1      61.489   0.278  -8.444  1.00  0.00     0.030 A 
HETATM    3  C10 UNL     1      60.847   1.050  -9.402  1.00  0.00     0.002 A 
HETATM    4  C11 UNL     1      60.295   2.261  -9.072  1.00  0.00     0.001 A 
HETATM    5  C12 UNL     1      60.373   2.724  -7.777  1.00  0.00     0.019 A 
HETATM    6  C13 UNL     1      60.994   1.999  -6.792  1.00  0.00     0.059 A 
ENDROOT
BRANCH   6   7
HETATM    7  C14 UNL     1      60.957   2.487  -5.396  1.00  0.00     0.258 C 
HETATM    8  O2  UNL     1      60.612   1.715  -4.491  1.00  0.00    -0.267 OA
HETATM    9  N3  UNL     1      61.300   3.793  -5.055  1.00  0.00    -0.322 N 
ATOM     10  H3  UNL     1      61.577   4.419  -5.812  1.00  0.00     0.169 HD
BRANCH   9  11
HETATM   11  C15 UNL     1      61.295   4.323  -3.736  1.00  0.00     0.050 A 
HETATM   12  C16 UNL     1      62.018   3.873  -2.672  1.00  0.00     0.033 A 
HETATM   13  C17 UNL     1      61.892   4.480  -1.405  1.00  0.00     0.033 A 
HETATM   14  C18 UNL     1      61.047   5.540  -1.191  1.00  0.00     0.042 A 
HETATM   15  N4  UNL     1      60.347   5.965  -2.257  1.00  0.00    -0.363 N 
HETATM   16  C25 UNL     1      60.439   5.416  -3.467  1.00  0.00     0.117 A 
ATOM     17  H4  UNL     1      59.709   6.752  -2.132  1.00  0.00     0.165 HD
BRANCH  14  18
HETATM   18  C19 UNL     1      60.893   6.192   0.102  1.00  0.00    -0.009 A 
HETATM   19  C20 UNL     1      60.520   5.517   1.244  1.00  0.00     0.013 A 
HETATM   20  C21 UNL     1      60.400   6.226   2.425  1.00  0.00     0.001 A 
HETATM   21  C22 UNL     1      60.635   7.578   2.520  1.00  0.00     0.000 A 
HETATM   22  C23 UNL     1      61.010   8.250   1.364  1.00  0.00     0.001 A 
HETATM   23  C24 UNL     1      61.131   7.557   0.189  1.00  0.00     0.013 A 
ENDBRANCH  14  18
ENDBRANCH   9  11
ENDBRANCH   6   7
BRANCH   1  24
HETATM   24  N2  UNL     1      62.326   0.045  -6.220  1.00  0.00    -0.308 N 
HETATM   25  C1  UNL     1      63.704  -0.311  -6.357  1.00  0.00     0.325 C 
HETATM   26  O1  UNL     1      64.354  -0.014  -7.354  1.00  0.00    -0.247 OA
HETATM   27  N1  UNL     1      64.335  -1.026  -5.315  1.00  0.00    -0.309 N 
ATOM     28  H1  UNL     1      63.769  -1.267  -4.502  1.00  0.00     0.170 HD
ATOM     29  H2  UNL     1      61.857  -0.253  -5.364  1.00  0.00     0.170 HD
BRANCH  27  30
HETATM   30  C2  UNL     1      65.659  -1.425  -5.310  1.00  0.00     0.036 A 
HETATM   31  C3  UNL     1      66.086  -2.698  -5.066  1.00  0.00     0.029 A 
HETATM   32  C4  UNL     1      67.451  -3.010  -5.053  1.00  0.00     0.002 A 
HETATM   33  C5  UNL     1      68.364  -2.019  -5.291  1.00  0.00     0.000 A 
HETATM   34  C6  UNL     1      67.953  -0.739  -5.537  1.00  0.00     0.002 A 
HETATM   35  C7  UNL     1      66.623  -0.435  -5.549  1.00  0.00     0.029 A 
ENDBRANCH  27  30
ENDBRANCH   1  24
TORSDOF 5
ENDMDL
MODEL 3
REMARK VINA RESULT: -9.779352214      1.081      1.365
REMARK  5 active torsions:
REMARK  status: ('A' for Active; 'I' for Inactive)
REMARK       I    between atoms: C1_2  and  N1_3 
REMARK       I    between atoms: C1_2  and  N2_11 
REMARK    1  A    between atoms: N1_3  and  C2_5 
REMARK    2  A    between atoms: N2_11  and  C8_13 
REMARK    3  A    between atoms: C13_18  and  C14_19 
REMARK       I    between atoms: C14_19  and  N3_21 
REMARK    4  A    between atoms: N3_21  and  C15_23 
REMARK    5  A    between atoms: C18_26  and  C19_27 
ROOT
HETATM    1  C8  UNL     1      61.564   1.137  -7.073  1.00  0.00     0.052 A 
HETATM    2  C9  UNL     1      61.292   0.437  -8.239  1.00  0.00     0.030 A 
HETATM    3  C10 UNL     1      60.596   1.086  -9.248  1.00  0.00     0.002 A 
HETATM    4  C11 UNL     1      60.189   2.387  -9.094  1.00  0.00     0.001 A 
HETATM    5  C12 UNL     1      60.470   3.064  -7.928  1.00  0.00     0.019 A 
HETATM    6  C13 UNL     1      61.153   2.466  -6.899  1.00  0.00     0.059 A 
ENDROOT
BRANCH   6   7
HETATM    7  C14 UNL     1      61.334   3.197  -5.625  1.00  0.00     0.258 C 
HETATM    8  O2  UNL     1      62.401   3.086  -5.006  1.00  0.00    -0.267 OA
HETATM    9  N3  UNL     1      60.343   4.016  -5.090  1.00  0.00    -0.322 N 
ATOM     10  H3  UNL     1      59.467   4.093  -5.608  1.00  0.00     0.169 HD
BRANCH   9  11
HETATM   11  C15 UNL     1      60.454   4.752  -3.879  1.00  0.00     0.050 A 
HETATM   12  C16 UNL     1      60.610   6.100  -3.754  1.00  0.00     0.033 A 
HETATM   13  C17 UNL     1      60.737   6.697  -2.483  1.00  0.00     0.033 A 
HETATM   14  C18 UNL     1      60.708   5.955  -1.328  1.00  0.00     0.042 A 
HETATM   15  N4  UNL     1      60.552   4.629  -1.479  1.00  0.00    -0.363 N 
HETATM   16  C25 UNL     1      60.430   4.031  -2.663  1.00  0.00     0.117 A 
ATOM     17  H4  UNL     1      60.526   4.049  -0.641  1.00  0.00     0.165 HD
BRANCH  14  18
HETATM   18  C19 UNL     1      60.835   6.539   0.000  1.00  0.00    -0.009 A 
HETATM   19  C20 UNL     1      61.069   7.879   0.213  1.00  0.00     0.013 A 
HETATM   20  C21 UNL     1      61.176   8.336   1.515  1.00  0.00     0.001 A 
HETATM   21  C22 UNL     1      61.058   7.516   2.614  1.00  0.00     0.000 A 
HETATM   22  C23 UNL     1      60.823   6.166   2.389  1.00  0.00     0.001 A 
HETATM   23  C24 UNL     1      60.717   5.703   1.104  1.00  0.00     0.013 A 
ENDBRANCH  14  18
ENDBRANCH   9  11
ENDBRANCH   6   7
BRANCH   1  24
HETATM   24  N2  UNL     1      62.386   0.520  -6.118  1.00  0.00    -0.308 N 
HETATM   25  C1  UNL     1      63.710   0.024  -6.333  1.00  0.00     0.325 C 
HETATM   26  O1  UNL     1      64.257   0.088  -7.429  1.00  0.00    -0.247 OA
HETATM   27  N1  UNL     1      64.409  -0.557  -5.252  1.00  0.00    -0.309 N 
ATOM     28  H1  UNL     1      63.929  -0.604  -4.354  1.00  0.00     0.170 HD
ATOM     29  H2  UNL     1      62.003   0.415  -5.178  1.00  0.00     0.170 HD
BRANCH  27  30
HETATM   30  C2  UNL     1      65.694  -1.066  -5.314  1.00  0.00     0.036 A 
HETATM   31  C3  UNL     1      66.794  -0.355  -5.698  1.00  0.00     0.029 A 
HETATM   32  C4  UNL     1      68.056  -0.958  -5.759  1.00  0.00     0.002 A 
HETATM   33  C5  UNL     1      68.180  -2.279  -5.426  1.00  0.00     0.000 A 
HETATM   34  C6  UNL     1      67.088  -3.006  -5.040  1.00  0.00     0.002 A 
HETATM   35  C7  UNL     1      65.859  -2.418  -4.981  1.00  0.00     0.029 A 
ENDBRANCH  27  30
ENDBRANCH   1  24
TORSDOF 5
ENDMDL
MODEL 4
REMARK VINA RESULT: -8.840957493      1.274      1.824
REMARK  5 active torsions:
REMARK  status: ('A' for Active; 'I' for Inactive)
REMARK       I    between atoms: C1_2  and  N1_3 
REMARK       I    between atoms: C1_2  and  N2_11 
REMARK    1  A    between atoms: N1_3  and  C2_5 
REMARK    2  A    between atoms: N2_11  and  C8_13 
REMARK    3  A    between atoms: C13_18  and  C14_19 
REMARK       I    between atoms: C14_19  and  N3_21 
REMARK    4  A    between atoms: N3_21  and  C15_23 
REMARK    5  A    between atoms: C18_26  and  C19_27 
ROOT
HETATM    1  C8  UNL     1      61.990   2.765  -6.507  1.00  0.00     0.052 A 
HETATM    2  C9  UNL     1      61.613   2.326  -7.767  1.00  0.00     0.030 A 
HETATM    3  C10 UNL     1      60.530   2.940  -8.380  1.00  0.00     0.002 A 
HETATM    4  C11 UNL     1      59.853   3.955  -7.754  1.00  0.00     0.001 A 
HETATM    5  C12 UNL     1      60.244   4.375  -6.502  1.00  0.00     0.019 A 
HETATM    6  C13 UNL     1      61.307   3.800  -5.852  1.00  0.00     0.059 A 
ENDROOT
BRANCH   6   7
HETATM    7  C14 UNL     1      61.620   4.211  -4.466  1.00  0.00     0.258 C 
HETATM    8  O2  UNL     1      62.789   4.150  -4.062  1.00  0.00    -0.267 OA
HETATM    9  N3  UNL     1      60.642   4.671  -3.588  1.00  0.00    -0.322 N 
ATOM     10  H3  UNL     1      59.682   4.710  -3.932  1.00  0.00     0.169 HD
BRANCH   9  11
HETATM   11  C15 UNL     1      60.875   5.090  -2.249  1.00  0.00     0.050 A 
HETATM   12  C16 UNL     1      61.356   4.329  -1.227  1.00  0.00     0.033 A 
HETATM   13  C17 UNL     1      61.510   4.872   0.066  1.00  0.00     0.033 A 
HETATM   14  C18 UNL     1      61.188   6.176   0.347  1.00  0.00     0.042 A 
HETATM   15  N4  UNL     1      60.717   6.905  -0.678  1.00  0.00    -0.363 N 
HETATM   16  C25 UNL     1      60.556   6.426  -1.911  1.00  0.00     0.117 A 
ATOM     17  H4  UNL     1      60.468   7.878  -0.503  1.00  0.00     0.165 HD
BRANCH  14  18
HETATM   18  C19 UNL     1      61.335   6.768   1.670  1.00  0.00    -0.009 A 
HETATM   19  C20 UNL     1      60.697   7.929   2.048  1.00  0.00     0.013 A 
HETATM   20  C21 UNL     1      60.903   8.413   3.328  1.00  0.00     0.001 A 
HETATM   21  C22 UNL     1      61.716   7.790   4.248  1.00  0.00     0.000 A 
HETATM   22  C23 UNL     1      62.354   6.621   3.856  1.00  0.00     0.001 A 
HETATM   23  C24 UNL     1      62.158   6.134   2.591  1.00  0.00     0.013 A 
ENDBRANCH  14  18
ENDBRANCH   9  11
ENDBRANCH   6   7
BRANCH   1  24
HETATM   24  N2  UNL     1      63.167   2.236  -5.956  1.00  0.00    -0.308 N 
HETATM   25  C1  UNL     1      63.904   1.115  -6.450  1.00  0.00     0.325 C 
HETATM   26  O1  UNL     1      63.541   0.484  -7.437  1.00  0.00    -0.247 OA
HETATM   27  N1  UNL     1      65.085   0.722  -5.782  1.00  0.00    -0.309 N 
ATOM     28  H1  UNL     1      65.360   1.259  -4.960  1.00  0.00     0.170 HD
ATOM     29  H2  UNL     1      63.533   2.696  -5.122  1.00  0.00     0.170 HD
BRANCH  27  30
HETATM   30  C2  UNL     1      65.899  -0.333  -6.154  1.00  0.00     0.036 A 
HETATM   31  C3  UNL     1      66.799  -0.296  -7.179  1.00  0.00     0.029 A 
HETATM   32  C4  UNL     1      67.565  -1.421  -7.506  1.00  0.00     0.002 A 
HETATM   33  C5  UNL     1      67.403  -2.571  -6.781  1.00  0.00     0.000 A 
HETATM   34  C6  UNL     1      66.507  -2.624  -5.751  1.00  0.00     0.002 A 
HETATM   35  C7  UNL     1      65.760  -1.528  -5.434  1.00  0.00     0.029 A 
ENDBRANCH  27  30
ENDBRANCH   1  24
TORSDOF 5
ENDMDL
MODEL 5
REMARK VINA RESULT: -7.951533572      2.211      9.816
REMARK  5 active torsions:
REMARK  status: ('A' for Active; 'I' for Inactive)
REMARK       I    between atoms: C1_2  and  N1_3 
REMARK       I    between atoms: C1_2  and  N2_11 
REMARK    1  A    between atoms: N1_3  and  C2_5 
REMARK    2  A    between atoms: N2_11  and  C8_13 
REMARK    3  A    between atoms: C13_18  and  C14_19 
REMARK       I    between atoms: C14_19  and  N3_21 
REMARK    4  A    between atoms: N3_21  and  C15_23 
REMARK    5  A    between atoms: C18_26  and  C19_27 
ROOT
HETATM    1  C8  UNL     1      61.771   6.082  -4.630  1.00  0.00     0.052 A 
HETATM    2  C9  UNL     1      61.085   7.278  -4.768  1.00  0.00     0.030 A 
HETATM    3  C10 UNL     1      61.026   7.862  -6.026  1.00  0.00     0.002 A 
HETATM    4  C11 UNL     1      61.633   7.267  -7.103  1.00  0.00     0.001 A 
HETATM    5  C12 UNL     1      62.310   6.078  -6.943  1.00  0.00     0.019 A 
HETATM    6  C13 UNL     1      62.399   5.462  -5.721  1.00  0.00     0.059 A 
ENDROOT
BRANCH   6   7
HETATM    7  C14 UNL     1      63.229   4.245  -5.578  1.00  0.00     0.258 C 
HETATM    8  O2  UNL     1      63.873   4.067  -4.536  1.00  0.00    -0.267 OA
HETATM    9  N3  UNL     1      63.312   3.281  -6.580  1.00  0.00    -0.322 N 
ATOM     10  H3  UNL     1      62.780   3.444  -7.435  1.00  0.00     0.169 HD
BRANCH   9  11
HETATM   11  C15 UNL     1      64.080   2.087  -6.505  1.00  0.00     0.050 A 
HETATM   12  C16 UNL     1      63.610   0.824  -6.302  1.00  0.00     0.033 A 
HETATM   13  C17 UNL     1      64.495  -0.271  -6.221  1.00  0.00     0.033 A 
HETATM   14  C18 UNL     1      65.853  -0.115  -6.341  1.00  0.00     0.042 A 
HETATM   15  N4  UNL     1      66.291   1.139  -6.541  1.00  0.00    -0.363 N 
HETATM   16  C25 UNL     1      65.485   2.197  -6.623  1.00  0.00     0.117 A 
ATOM     17  H4  UNL     1      67.295   1.290  -6.636  1.00  0.00     0.165 HD
BRANCH  14  18
HETATM   18  C19 UNL     1      66.795  -1.223  -6.263  1.00  0.00    -0.009 A 
HETATM   19  C20 UNL     1      67.099  -1.869  -5.085  1.00  0.00     0.013 A 
HETATM   20  C21 UNL     1      68.008  -2.911  -5.114  1.00  0.00     0.001 A 
HETATM   21  C22 UNL     1      68.628  -3.339  -6.266  1.00  0.00     0.000 A 
HETATM   22  C23 UNL     1      68.316  -2.681  -7.448  1.00  0.00     0.001 A 
HETATM   23  C24 UNL     1      67.417  -1.647  -7.430  1.00  0.00     0.013 A 
ENDBRANCH  14  18
ENDBRANCH   9  11
ENDBRANCH   6   7
BRANCH   1  24
HETATM   24  N2  UNL     1      61.707   5.431  -3.389  1.00  0.00    -0.308 N 
HETATM   25  C1  UNL     1      61.300   6.012  -2.148  1.00  0.00     0.325 C 
HETATM   26  O1  UNL     1      60.973   7.191  -2.060  1.00  0.00    -0.247 OA
HETATM   27  N1  UNL     1      61.276   5.206  -0.988  1.00  0.00    -0.309 N 
ATOM     28  H1  UNL     1      61.561   4.233  -1.087  1.00  0.00     0.170 HD
ATOM     29  H2  UNL     1      61.975   4.447  -3.370  1.00  0.00     0.170 HD
BRANCH  27  30
HETATM   30  C2  UNL     1      60.897   5.633   0.272  1.00  0.00     0.036 A 
HETATM   31  C3  UNL     1      59.812   5.166   0.957  1.00  0.00     0.029 A 
HETATM   32  C4  UNL     1      59.484   5.674   2.219  1.00  0.00     0.002 A 
HETATM   33  C5  UNL     1      60.268   6.652   2.768  1.00  0.00     0.000 A 
HETATM   34  C6  UNL     1      61.357   7.131   2.096  1.00  0.00     0.002 A 
HETATM   35  C7  UNL     1      61.676   6.636   0.866  1.00  0.00     0.029 A 
ENDBRANCH  27  30
ENDBRANCH   1  24
TORSDOF 5
ENDMDL
