MODEL 1
REMARK VINA RESULT: -10.415692072      0.000      0.000
REMARK  5 active torsions:
REMARK  status: ('A' for Active; 'I' for Inactive)
REMARK    1  A    between atoms: C4_5  and  N2_6 
REMARK       I    between atoms: N2_6  and  C5_8 
REMARK       I    between atoms: C5_8  and  N3_10 
REMARK       I    between atoms: N3_10  and  C6_12 
REMARK    2  A    between atoms: C6_12  and  C7_14 
REMARK    3  A    between atoms: C11_18  and  O3_19 
REMARK    4  A    between atoms: O3_19  and  C12_20 
REMARK    5  A    between atoms: C19_27  and  C20_28 
ROOT
HETATM    1  N2  UNL     1      61.356   3.103  -3.605  1.00  0.00    -0.308 N 
ATOM      2  H2  UNL     1      60.376   3.240  -3.357  1.00  0.00     0.170 HD
HETATM    3  C5  UNL     1      62.301   3.797  -2.863  1.00  0.00     0.327 C 
HETATM    4  O1  UNL     1      63.542   3.663  -3.161  1.00  0.00    -0.247 OA
HETATM    5  N3  UNL     1      62.077   4.674  -1.771  1.00  0.00    -0.275 N 
ATOM      6  H3  UNL     1      62.913   5.088  -1.357  1.00  0.00     0.173 HD
HETATM    7  C6  UNL     1      60.860   5.048  -1.184  1.00  0.00     0.259 C 
HETATM    8  O2  UNL     1      59.773   4.608  -1.608  1.00  0.00    -0.267 OA
ENDROOT
BRANCH   1   9
HETATM    9  C4  UNL     1      61.637   2.213  -4.685  1.00  0.00     0.047 A 
HETATM   10  C3  UNL     1      61.749   0.857  -4.595  1.00  0.00     0.032 A 
HETATM   11  C2  UNL     1      61.952   0.041  -5.718  1.00  0.00     0.029 A 
HETATM   12  C1  UNL     1      62.044   0.593  -6.969  1.00  0.00     0.047 A 
HETATM   13  N1  UNL     1      62.248  -0.234  -8.105  1.00  0.00    -0.102 NA
HETATM   14  C26 UNL     1      61.932   1.960  -7.067  1.00  0.00     0.041 A 
HETATM   15  C19 UNL     1      61.736   2.771  -5.973  1.00  0.00     0.003 A 
BRANCH  15  16
HETATM   16  C20 UNL     1      61.683   4.226  -6.141  1.00  0.00    -0.024 A 
HETATM   17  C21 UNL     1      62.821   4.921  -6.556  1.00  0.00     0.012 A 
HETATM   18  C22 UNL     1      62.805   6.270  -6.673  1.00  0.00     0.001 A 
HETATM   19  C23 UNL     1      61.662   7.000  -6.386  1.00  0.00     0.000 A 
HETATM   20  C24 UNL     1      60.544   6.304  -5.978  1.00  0.00     0.001 A 
HETATM   21  C25 UNL     1      60.534   4.931  -5.850  1.00  0.00     0.012 A 
ENDBRANCH  15  16
ENDBRANCH   1   9
BRANCH   7  22
HETATM   22  C7  UNL     1      60.778   5.980  -0.038  1.00  0.00     0.035 A 
HETATM   23  C8  UNL     1      60.243   7.240  -0.129  1.00  0.00     0.017 A 
HETATM   24  C9  UNL     1      60.172   8.097   0.967  1.00  0.00     0.004 A 
HETATM   25  C10 UNL     1      60.655   7.663   2.183  1.00  0.00     0.037 A 
HETATM   26  C11 UNL     1      61.197   6.407   2.313  1.00  0.00     0.077 A 
HETATM   27  C18 UNL     1      61.248   5.596   1.204  1.00  0.00     0.054 A 
BRANCH  26  28
HETATM   28  O3  UNL     1      61.701   5.927   3.538  1.00  0.00    -0.311 OA
BRANCH  28  29
HETATM   29  C12 UNL     1      61.921   6.873   4.529  1.00  0.00     0.076 A 
HETATM   30  C13 UNL     1      61.443   6.648   5.805  1.00  0.00     0.037 A 
HETATM   31  C14 UNL     1      61.648   7.562   6.794  1.00  0.00     0.003 A 
HETATM   32  C15 UNL     1      62.342   8.722   6.503  1.00  0.00     0.000 A 
HETATM   33  C16 UNL     1      62.816   8.949   5.242  1.00  0.00     0.003 A 
HETATM   34  C17 UNL     1      62.614   8.023   4.222  1.00  0.00     0.037 A 
ENDBRANCH  28  29
ENDBRANCH  26  28
ENDBRANCH   7  22
TORSDOF 5
ENDMDL
MODEL 2
REMARK VINA RESULT: -10.414272749      1.019      1.237
REMARK  5 active torsions:
REMARK  status: ('A' for Active; 'I' for Inactive)
REMARK    1  A    between atoms: C4_5  and  N2_6 
REMARK       I    between atoms: N2_6  and  C5_8 
REMARK       I    between atoms: C5_8  and  N3_10 
REMARK       I    between atoms: N3_10  and  C6_12 
REMARK    2  A    between atoms: C6_12  and  C7_14 
REMARK    3  A    between atoms: C11_18  and  O3_19 
REMARK    4  A    between atoms: O3_19  and  C12_20 
REMARK    5  A    between atoms: C19_27  and  C20_28 
ROOT
HETATM    1  N2  UNL     1      61.069   3.098  -3.605  1.00  0.00    -0.308 N 
ATOM      2  H2  UNL     1      61.946   3.170  -3.090  1.00  0.00     0.170 HD
HETATM    3  C5  UNL     1      59.995   3.840  -3.136  1.00  0.00     0.327 C 
HETATM    4  O1  UNL     1      58.870   3.757  -3.748  1.00  0.00    -0.247 OA
HETATM    5  N3  UNL     1      59.964   4.718  -2.022  1.00  0.00    -0.275 N 
ATOM      6  H3  UNL     1      59.069   5.173  -1.842  1.00  0.00     0.173 HD
HETATM    7  C6  UNL     1      61.001   5.044  -1.136  1.00  0.00     0.259 C 
HETATM    8  O2  UNL     1      62.138   4.546  -1.256  1.00  0.00    -0.267 OA
ENDROOT
BRANCH   1   9
HETATM    9  C4  UNL     1      61.053   2.241  -4.748  1.00  0.00     0.047 A 
HETATM   10  C3  UNL     1      60.794   0.903  -4.739  1.00  0.00     0.032 A 
HETATM   11  C2  UNL     1      60.721   0.142  -5.916  1.00  0.00     0.029 A 
HETATM   12  C1  UNL     1      60.910   0.734  -7.138  1.00  0.00     0.047 A 
HETATM   13  N1  UNL     1      60.834  -0.037  -8.328  1.00  0.00    -0.102 NA
HETATM   14  C26 UNL     1      61.172   2.084  -7.153  1.00  0.00     0.041 A 
HETATM   15  C19 UNL     1      61.249   2.840  -6.006  1.00  0.00     0.003 A 
BRANCH  15  16
HETATM   16  C20 UNL     1      61.588   4.263  -6.090  1.00  0.00    -0.024 A 
HETATM   17  C21 UNL     1      62.871   4.695  -5.749  1.00  0.00     0.012 A 
HETATM   18  C22 UNL     1      63.191   6.011  -5.776  1.00  0.00     0.001 A 
HETATM   19  C23 UNL     1      62.257   6.966  -6.143  1.00  0.00     0.000 A 
HETATM   20  C24 UNL     1      60.993   6.529  -6.479  1.00  0.00     0.001 A 
HETATM   21  C25 UNL     1      60.642   5.196  -6.459  1.00  0.00     0.012 A 
ENDBRANCH  15  16
ENDBRANCH   1   9
BRANCH   7  22
HETATM   22  C7  UNL     1      60.823   5.986  -0.010  1.00  0.00     0.035 A 
HETATM   23  C8  UNL     1      60.224   7.214  -0.142  1.00  0.00     0.017 A 
HETATM   24  C9  UNL     1      60.063   8.081   0.936  1.00  0.00     0.004 A 
HETATM   25  C10 UNL     1      60.520   7.692   2.176  1.00  0.00     0.037 A 
HETATM   26  C11 UNL     1      61.125   6.470   2.348  1.00  0.00     0.077 A 
HETATM   27  C18 UNL     1      61.263   5.647   1.256  1.00  0.00     0.054 A 
BRANCH  26  28
HETATM   28  O3  UNL     1      61.605   6.036   3.600  1.00  0.00    -0.311 OA
BRANCH  28  29
HETATM   29  C12 UNL     1      61.902   7.027   4.525  1.00  0.00     0.076 A 
HETATM   30  C13 UNL     1      61.226   7.061   5.728  1.00  0.00     0.037 A 
HETATM   31  C14 UNL     1      61.502   8.024   6.652  1.00  0.00     0.003 A 
HETATM   32  C15 UNL     1      62.470   8.969   6.367  1.00  0.00     0.000 A 
HETATM   33  C16 UNL     1      63.141   8.939   5.179  1.00  0.00     0.003 A 
HETATM   34  C17 UNL     1      62.869   7.960   4.226  1.00  0.00     0.037 A 
ENDBRANCH  28  29
ENDBRANCH  26  28
ENDBRANCH   7  22
TORSDOF 5
ENDMDL
MODEL 3
REMARK VINA RESULT: -9.848403052      2.983      9.340
REMARK  5 active torsions:
REMARK  status: ('A' for Active; 'I' for Inactive)
REMARK    1  A    between atoms: C4_5  and  N2_6 
REMARK       I    between atoms: N2_6  and  C5_8 
REMARK       I    between atoms: C5_8  and  N3_10 
REMARK       I    between atoms: N3_10  and  C6_12 
REMARK    2  A    between atoms: C6_12  and  C7_14 
REMARK    3  A    between atoms: C11_18  and  O3_19 
REMARK    4  A    between atoms: O3_19  and  C12_20 
REMARK    5  A    between atoms: C19_27  and  C20_28 
ROOT
HETATM    1  N2  UNL     1      60.672   3.860  -2.018  1.00  0.00    -0.308 N 
ATOM      2  H2  UNL     1      59.831   3.543  -2.500  1.00  0.00     0.170 HD
HETATM    3  C5  UNL     1      61.886   3.353  -2.461  1.00  0.00     0.327 C 
HETATM    4  O1  UNL     1      62.963   3.715  -1.866  1.00  0.00    -0.247 OA
HETATM    5  N3  UNL     1      62.113   2.449  -3.531  1.00  0.00    -0.275 N 
ATOM      6  H3  UNL     1      63.087   2.198  -3.698  1.00  0.00     0.173 HD
HETATM    7  C6  UNL     1      61.176   1.855  -4.389  1.00  0.00     0.259 C 
HETATM    8  O2  UNL     1      59.956   2.086  -4.276  1.00  0.00    -0.267 OA
ENDROOT
BRANCH   1   9
HETATM    9  C4  UNL     1      60.500   4.787  -0.946  1.00  0.00     0.047 A 
HETATM   10  C3  UNL     1      60.326   4.466   0.367  1.00  0.00     0.032 A 
HETATM   11  C2  UNL     1      60.239   5.438   1.375  1.00  0.00     0.029 A 
HETATM   12  C1  UNL     1      60.330   6.770   1.064  1.00  0.00     0.047 A 
HETATM   13  N1  UNL     1      60.244   7.753   2.086  1.00  0.00    -0.102 NA
HETATM   14  C26 UNL     1      60.505   7.100  -0.259  1.00  0.00     0.041 A 
HETATM   15  C19 UNL     1      60.589   6.157  -1.257  1.00  0.00     0.003 A 
BRANCH  15  16
HETATM   16  C20 UNL     1      60.718   6.580  -2.654  1.00  0.00    -0.024 A 
HETATM   17  C21 UNL     1      60.165   5.800  -3.672  1.00  0.00     0.012 A 
HETATM   18  C22 UNL     1      60.312   6.150  -4.972  1.00  0.00     0.001 A 
HETATM   19  C23 UNL     1      61.015   7.290  -5.330  1.00  0.00     0.000 A 
HETATM   20  C24 UNL     1      61.557   8.053  -4.318  1.00  0.00     0.001 A 
HETATM   21  C25 UNL     1      61.421   7.718  -2.987  1.00  0.00     0.012 A 
ENDBRANCH  15  16
ENDBRANCH   1   9
BRANCH   7  22
HETATM   22  C7  UNL     1      61.561   0.924  -5.472  1.00  0.00     0.035 A 
HETATM   23  C8  UNL     1      60.669   0.096  -6.106  1.00  0.00     0.017 A 
HETATM   24  C9  UNL     1      61.056  -0.768  -7.128  1.00  0.00     0.004 A 
HETATM   25  C10 UNL     1      62.379  -0.792  -7.514  1.00  0.00     0.037 A 
HETATM   26  C11 UNL     1      63.301   0.023  -6.902  1.00  0.00     0.077 A 
HETATM   27  C18 UNL     1      62.874   0.859  -5.897  1.00  0.00     0.054 A 
BRANCH  26  28
HETATM   28  O3  UNL     1      64.662   0.028  -7.267  1.00  0.00    -0.311 OA
BRANCH  28  29
HETATM   29  C12 UNL     1      65.547  -0.544  -6.364  1.00  0.00     0.076 A 
HETATM   30  C13 UNL     1      65.211  -1.724  -5.733  1.00  0.00     0.037 A 
HETATM   31  C14 UNL     1      66.064  -2.303  -4.843  1.00  0.00     0.003 A 
HETATM   32  C15 UNL     1      67.276  -1.691  -4.580  1.00  0.00     0.000 A 
HETATM   33  C16 UNL     1      67.613  -0.523  -5.202  1.00  0.00     0.003 A 
HETATM   34  C17 UNL     1      66.750   0.079  -6.114  1.00  0.00     0.037 A 
ENDBRANCH  28  29
ENDBRANCH  26  28
ENDBRANCH   7  22
TORSDOF 5
ENDMDL
MODEL 4
REMARK VINA RESULT: -9.450798246      2.793      4.913
REMARK  5 active torsions:
REMARK  status: ('A' for Active; 'I' for Inactive)
REMARK    1  A    between atoms: C4_5  and  N2_6 
REMARK       I    between atoms: N2_6  and  C5_8 
REMARK       I    between atoms: C5_8  and  N3_10 
REMARK       I    between atoms: N3_10  and  C6_12 
REMARK    2  A    between atoms: C6_12  and  C7_14 
REMARK    3  A    between atoms: C11_18  and  O3_19 
REMARK    4  A    between atoms: O3_19  and  C12_20 
REMARK    5  A    between atoms: C19_27  and  C20_28 
ROOT
HETATM    1  N2  UNL     1      64.682   1.924  -5.503  1.00  0.00    -0.308 N 
ATOM      2  H2  UNL     1      64.383   1.781  -4.538  1.00  0.00     0.170 HD
HETATM    3  C5  UNL     1      64.262   3.089  -6.131  1.00  0.00     0.327 C 
HETATM    4  O1  UNL     1      64.603   3.292  -7.350  1.00  0.00    -0.247 OA
HETATM    5  N3  UNL     1      63.473   4.135  -5.586  1.00  0.00    -0.275 N 
ATOM      6  H3  UNL     1      63.273   4.911  -6.216  1.00  0.00     0.173 HD
HETATM    7  C6  UNL     1      62.931   4.243  -4.297  1.00  0.00     0.259 C 
HETATM    8  O2  UNL     1      63.108   3.352  -3.443  1.00  0.00    -0.267 OA
ENDROOT
BRANCH   1   9
HETATM    9  C4  UNL     1      65.496   0.909  -6.091  1.00  0.00     0.047 A 
HETATM   10  C3  UNL     1      66.850   0.808  -5.980  1.00  0.00     0.032 A 
HETATM   11  C2  UNL     1      67.573  -0.263  -6.526  1.00  0.00     0.029 A 
HETATM   12  C1  UNL     1      66.925  -1.265  -7.201  1.00  0.00     0.047 A 
HETATM   13  N1  UNL     1      67.658  -2.350  -7.751  1.00  0.00    -0.102 NA
HETATM   14  C26 UNL     1      65.558  -1.168  -7.317  1.00  0.00     0.041 A 
HETATM   15  C19 UNL     1      64.838  -0.122  -6.788  1.00  0.00     0.003 A 
BRANCH  15  16
HETATM   16  C20 UNL     1      63.390  -0.051  -6.998  1.00  0.00    -0.024 A 
HETATM   17  C21 UNL     1      62.882   0.542  -8.155  1.00  0.00     0.012 A 
HETATM   18  C22 UNL     1      61.546   0.659  -8.346  1.00  0.00     0.001 A 
HETATM   19  C23 UNL     1      60.645   0.194  -7.400  1.00  0.00     0.000 A 
HETATM   20  C24 UNL     1      61.158  -0.391  -6.261  1.00  0.00     0.001 A 
HETATM   21  C25 UNL     1      62.513  -0.521  -6.043  1.00  0.00     0.012 A 
ENDBRANCH  15  16
ENDBRANCH   1   9
BRANCH   7  22
HETATM   22  C7  UNL     1      62.122   5.403  -3.865  1.00  0.00     0.035 A 
HETATM   23  C8  UNL     1      62.114   6.605  -4.529  1.00  0.00     0.017 A 
HETATM   24  C9  UNL     1      61.338   7.681  -4.104  1.00  0.00     0.004 A 
HETATM   25  C10 UNL     1      60.553   7.533  -2.982  1.00  0.00     0.037 A 
HETATM   26  C11 UNL     1      60.535   6.345  -2.291  1.00  0.00     0.077 A 
HETATM   27  C18 UNL     1      61.318   5.310  -2.745  1.00  0.00     0.054 A 
BRANCH  26  28
HETATM   28  O3  UNL     1      59.747   6.155  -1.139  1.00  0.00    -0.311 OA
BRANCH  28  29
HETATM   29  C12 UNL     1      60.285   6.603   0.060  1.00  0.00     0.076 A 
HETATM   30  C13 UNL     1      60.824   5.694   0.947  1.00  0.00     0.037 A 
HETATM   31  C14 UNL     1      61.358   6.111   2.130  1.00  0.00     0.003 A 
HETATM   32  C15 UNL     1      61.352   7.461   2.429  1.00  0.00     0.000 A 
HETATM   33  C16 UNL     1      60.820   8.364   1.554  1.00  0.00     0.003 A 
HETATM   34  C17 UNL     1      60.271   7.951   0.342  1.00  0.00     0.037 A 
ENDBRANCH  28  29
ENDBRANCH  26  28
ENDBRANCH   7  22
TORSDOF 5
ENDMDL
MODEL 5
REMARK VINA RESULT: -9.415654734      1.487      2.282
REMARK  5 active torsions:
REMARK  status: ('A' for Active; 'I' for Inactive)
REMARK    1  A    between atoms: C4_5  and  N2_6 
REMARK       I    between atoms: N2_6  and  C5_8 
REMARK       I    between atoms: C5_8  and  N3_10 
REMARK       I    between atoms: N3_10  and  C6_12 
REMARK    2  A    between atoms: C6_12  and  C7_14 
REMARK    3  A    between atoms: C11_18  and  O3_19 
REMARK    4  A    between atoms: O3_19  and  C12_20 
REMARK    5  A    between atoms: C19_27  and  C20_28 
ROOT
HETATM    1  N2  UNL     1      62.398   4.450  -3.922  1.00  0.00    -0.308 N 
ATOM      2  H2  UNL     1      62.015   5.379  -4.094  1.00  0.00     0.170 HD
HETATM    3  C5  UNL     1      62.423   4.007  -2.607  1.00  0.00     0.327 C 
HETATM    4  O1  UNL     1      62.916   2.851  -2.352  1.00  0.00    -0.247 OA
HETATM    5  N3  UNL     1      61.956   4.686  -1.451  1.00  0.00    -0.275 N 
ATOM      6  H3  UNL     1      62.065   4.184  -0.570  1.00  0.00     0.173 HD
HETATM    7  C6  UNL     1      61.365   5.954  -1.360  1.00  0.00     0.259 C 
HETATM    8  O2  UNL     1      61.184   6.660  -2.373  1.00  0.00    -0.267 OA
ENDROOT
BRANCH   1   9
HETATM    9  C4  UNL     1      62.864   3.716  -5.055  1.00  0.00     0.047 A 
HETATM   10  C3  UNL     1      64.152   3.662  -5.497  1.00  0.00     0.032 A 
HETATM   11  C2  UNL     1      64.545   2.856  -6.576  1.00  0.00     0.029 A 
HETATM   12  C1  UNL     1      63.626   2.080  -7.233  1.00  0.00     0.047 A 
HETATM   13  N1  UNL     1      64.025   1.263  -8.324  1.00  0.00    -0.102 NA
HETATM   14  C26 UNL     1      62.324   2.130  -6.792  1.00  0.00     0.041 A 
HETATM   15  C19 UNL     1      61.926   2.918  -5.737  1.00  0.00     0.003 A 
BRANCH  15  16
HETATM   16  C20 UNL     1      60.512   2.969  -5.355  1.00  0.00    -0.024 A 
HETATM   17  C21 UNL     1      59.705   4.013  -5.811  1.00  0.00     0.012 A 
HETATM   18  C22 UNL     1      58.407   4.103  -5.432  1.00  0.00     0.001 A 
HETATM   19  C23 UNL     1      57.844   3.164  -4.583  1.00  0.00     0.000 A 
HETATM   20  C24 UNL     1      58.650   2.137  -4.139  1.00  0.00     0.001 A 
HETATM   21  C25 UNL     1      59.973   2.023  -4.509  1.00  0.00     0.012 A 
ENDBRANCH  15  16
ENDBRANCH   1   9
BRANCH   7  22
HETATM   22  C7  UNL     1      60.921   6.539  -0.076  1.00  0.00     0.035 A 
HETATM   23  C8  UNL     1      60.009   7.560   0.011  1.00  0.00     0.017 A 
HETATM   24  C9  UNL     1      59.603   8.090   1.234  1.00  0.00     0.004 A 
HETATM   25  C10 UNL     1      60.135   7.570   2.394  1.00  0.00     0.037 A 
HETATM   26  C11 UNL     1      61.052   6.547   2.346  1.00  0.00     0.077 A 
HETATM   27  C18 UNL     1      61.424   6.055   1.117  1.00  0.00     0.054 A 
BRANCH  26  28
HETATM   28  O3  UNL     1      61.619   5.989   3.509  1.00  0.00    -0.311 OA
BRANCH  28  29
HETATM   29  C12 UNL     1      61.844   6.859   4.566  1.00  0.00     0.076 A 
HETATM   30  C13 UNL     1      61.484   6.486   5.845  1.00  0.00     0.037 A 
HETATM   31  C14 UNL     1      61.695   7.324   6.899  1.00  0.00     0.003 A 
HETATM   32  C15 UNL     1      62.276   8.557   6.669  1.00  0.00     0.000 A 
HETATM   33  C16 UNL     1      62.634   8.931   5.405  1.00  0.00     0.003 A 
HETATM   34  C17 UNL     1      62.424   8.084   4.320  1.00  0.00     0.037 A 
ENDBRANCH  28  29
ENDBRANCH  26  28
ENDBRANCH   7  22
TORSDOF 5
ENDMDL
