MODEL 1
REMARK VINA RESULT: -4.436592854      0.000      0.000
REMARK  1 active torsions:
REMARK  status: ('A' for Active; 'I' for Inactive)
REMARK    1  A    between atoms: C3_5  and  N2_6 
ROOT
HETATM    1  C1  UNL     1      -4.698   0.731  11.463  1.00  0.00     0.091 C 
HETATM    2  C2  UNL     1      -3.759  -0.426  11.343  1.00  0.00     0.110 A 
HETATM    3  N1  UNL     1      -4.035  -1.741  11.461  1.00  0.00    -0.179 N 
ATOM      4  H1  UNL     1      -4.954  -2.136  11.656  1.00  0.00     0.185 HD
HETATM    5  C3  UNL     1      -2.903  -2.450  11.281  1.00  0.00     0.692 A 
HETATM    6  N3  UNL     1      -1.937  -1.544  11.053  1.00  0.00    -0.129 N 
ATOM      7  H3  UNL     1      -0.957  -1.766  10.878  1.00  0.00     0.206 HD
HETATM    8  N4  UNL     1      -2.443  -0.323  11.087  1.00  0.00    -0.270 N 
HETATM    9  C4  UNL     1      -1.732   0.931  10.889  1.00  0.00     0.179 C 
ENDROOT
BRANCH   5  10
HETATM   10  N2  UNL     1      -2.760  -3.752  11.320  1.00  0.00    -0.233 N 
ATOM     11  H22 UNL     1      -3.506  -4.447  11.302  1.00  0.00     0.174 HD
ATOM     12  H21 UNL     1      -1.890  -4.281  11.373  1.00  0.00     0.174 HD
ENDBRANCH   5  10
TORSDOF 1
ENDMDL
MODEL 2
REMARK VINA RESULT: -4.433540000      0.677      1.972
REMARK  1 active torsions:
REMARK  status: ('A' for Active; 'I' for Inactive)
REMARK    1  A    between atoms: C3_5  and  N2_6 
ROOT
HETATM    1  C1  UNL     1      -1.753   1.002  10.824  1.00  0.00     0.091 C 
HETATM    2  C2  UNL     1      -2.436  -0.304  11.069  1.00  0.00     0.110 A 
HETATM    3  N1  UNL     1      -1.918  -1.547  10.986  1.00  0.00    -0.179 N 
ATOM      4  H1  UNL     1      -0.955  -1.769  10.736  1.00  0.00     0.185 HD
HETATM    5  C3  UNL     1      -2.873  -2.448  11.286  1.00  0.00     0.692 A 
HETATM    6  N3  UNL     1      -3.980  -1.732  11.552  1.00  0.00    -0.129 N 
ATOM      7  H3  UNL     1      -4.883  -2.127  11.814  1.00  0.00     0.206 HD
HETATM    8  N4  UNL     1      -3.726  -0.441  11.424  1.00  0.00    -0.270 N 
HETATM    9  C4  UNL     1      -4.653   0.663  11.623  1.00  0.00     0.179 C 
ENDROOT
BRANCH   5  10
HETATM   10  N2  UNL     1      -2.762  -3.753  11.316  1.00  0.00    -0.233 N 
ATOM     11  H22 UNL     1      -2.376  -4.313  12.076  1.00  0.00     0.174 HD
ATOM     12  H21 UNL     1      -3.040  -4.419  10.596  1.00  0.00     0.174 HD
ENDBRANCH   5  10
TORSDOF 1
ENDMDL
MODEL 3
REMARK VINA RESULT: -3.961672273      4.528      5.283
REMARK  1 active torsions:
REMARK  status: ('A' for Active; 'I' for Inactive)
REMARK    1  A    between atoms: C3_5  and  N2_6 
ROOT
HETATM    1  C1  UNL     1      -5.970   4.572  14.537  1.00  0.00     0.091 C 
HETATM    2  C2  UNL     1      -5.371   3.208  14.657  1.00  0.00     0.110 A 
HETATM    3  N1  UNL     1      -5.454   2.347  15.691  1.00  0.00    -0.179 N 
ATOM      4  H1  UNL     1      -5.956   2.518  16.562  1.00  0.00     0.185 HD
HETATM    5  C3  UNL     1      -4.770   1.226  15.392  1.00  0.00     0.692 A 
HETATM    6  N3  UNL     1      -4.269   1.421  14.160  1.00  0.00    -0.129 N 
ATOM      7  H3  UNL     1      -3.698   0.750  13.647  1.00  0.00     0.206 HD
HETATM    8  N4  UNL     1      -4.627   2.611  13.709  1.00  0.00    -0.270 N 
HETATM    9  C4  UNL     1      -4.291   3.203  12.423  1.00  0.00     0.179 C 
ENDROOT
BRANCH   5  10
HETATM   10  N2  UNL     1      -4.615   0.159  16.137  1.00  0.00    -0.233 N 
ATOM     11  H22 UNL     1      -5.346  -0.342  16.642  1.00  0.00     0.174 HD
ATOM     12  H21 UNL     1      -3.749  -0.342  16.336  1.00  0.00     0.174 HD
ENDBRANCH   5  10
TORSDOF 1
ENDMDL
MODEL 4
REMARK VINA RESULT: -3.864360863      2.300      3.944
REMARK  1 active torsions:
REMARK  status: ('A' for Active; 'I' for Inactive)
REMARK    1  A    between atoms: C3_5  and  N2_6 
ROOT
HETATM    1  C1  UNL     1      -1.594   1.150  10.321  1.00  0.00     0.091 C 
HETATM    2  C2  UNL     1      -2.715   1.179  11.309  1.00  0.00     0.110 A 
HETATM    3  N1  UNL     1      -3.179   2.230  12.015  1.00  0.00    -0.179 N 
ATOM      4  H1  UNL     1      -2.814   3.181  11.968  1.00  0.00     0.185 HD
HETATM    5  C3  UNL     1      -4.202   1.826  12.793  1.00  0.00     0.692 A 
HETATM    6  N3  UNL     1      -4.350   0.512  12.547  1.00  0.00    -0.129 N 
ATOM      7  H3  UNL     1      -5.048  -0.089  12.985  1.00  0.00     0.206 HD
HETATM    8  N4  UNL     1      -3.460   0.115  11.655  1.00  0.00    -0.270 N 
HETATM    9  C4  UNL     1      -3.288  -1.228  11.121  1.00  0.00     0.179 C 
ENDROOT
BRANCH   5  10
HETATM   10  N2  UNL     1      -4.913   2.550  13.622  1.00  0.00    -0.233 N 
ATOM     11  H22 UNL     1      -4.689   3.487  13.957  1.00  0.00     0.174 HD
ATOM     12  H21 UNL     1      -5.797   2.302  14.065  1.00  0.00     0.174 HD
ENDBRANCH   5  10
TORSDOF 1
ENDMDL
MODEL 5
REMARK VINA RESULT: -3.829619838      2.320      3.605
REMARK  1 active torsions:
REMARK  status: ('A' for Active; 'I' for Inactive)
REMARK    1  A    between atoms: C3_5  and  N2_6 
ROOT
HETATM    1  C1  UNL     1      -3.198  -1.269  11.063  1.00  0.00     0.091 C 
HETATM    2  C2  UNL     1      -3.408   0.102  11.620  1.00  0.00     0.110 A 
HETATM    3  N1  UNL     1      -4.368   0.520  12.470  1.00  0.00    -0.179 N 
ATOM      4  H1  UNL     1      -5.106  -0.065  12.861  1.00  0.00     0.185 HD
HETATM    5  C3  UNL     1      -4.198   1.833  12.720  1.00  0.00     0.692 A 
HETATM    6  N3  UNL     1      -3.121   2.204  12.008  1.00  0.00    -0.129 N 
ATOM      7  H3  UNL     1      -2.732   3.146  11.984  1.00  0.00     0.206 HD
HETATM    8  N4  UNL     1      -2.638   1.168  11.343  1.00  0.00    -0.270 N 
HETATM    9  C4  UNL     1      -1.482   1.151  10.458  1.00  0.00     0.179 C 
ENDROOT
BRANCH   5  10
HETATM   10  N2  UNL     1      -4.925   2.601  13.494  1.00  0.00    -0.233 N 
ATOM     11  H22 UNL     1      -5.820   2.361  13.922  1.00  0.00     0.174 HD
ATOM     12  H21 UNL     1      -4.721   3.553  13.795  1.00  0.00     0.174 HD
ENDBRANCH   5  10
TORSDOF 1
ENDMDL
