MODEL 1
REMARK VINA RESULT: -5.031232410      0.000      0.000
REMARK  1 active torsions:
REMARK  status: ('A' for Active; 'I' for Inactive)
REMARK    1  A    between atoms: N3_4  and  C2_6 
ROOT
HETATM    1  C2  UNL     1      -4.873   2.573  14.798  1.00  0.00     0.177 C 
HETATM    2  N4  UNL     1      -5.011   2.760  13.530  1.00  0.00    -0.361 N 
ATOM      3  H4  UNL     1      -5.761   2.360  12.966  1.00  0.00     0.162 HD
HETATM    4  C3  UNL     1      -3.960   3.614  13.011  1.00  0.00     0.142 C 
HETATM    5  C4  UNL     1      -3.487   4.318  14.249  1.00  0.00     0.142 C 
HETATM    6  N5  UNL     1      -3.717   3.281  15.267  1.00  0.00    -0.361 N 
ATOM      7  H5  UNL     1      -3.178   3.105  16.114  1.00  0.00     0.162 HD
ENDROOT
BRANCH   1   8
HETATM    8  N3  UNL     1      -5.693   1.800  15.687  1.00  0.00    -0.305 N 
HETATM    9  C1  UNL     1      -5.191   0.861  16.388  1.00  0.00     0.203 C 
HETATM   10  N1  UNL     1      -3.819   0.560  16.307  1.00  0.00    -0.066 NA
HETATM   11  N2  UNL     1      -6.025   0.123  17.249  1.00  0.00    -0.066 NA
ATOM     12  H3  UNL     1      -6.689   2.004  15.758  1.00  0.00     0.171 HD
ENDBRANCH   1   8
TORSDOF 1
ENDMDL
MODEL 2
REMARK VINA RESULT: -4.993262453      0.189      1.279
REMARK  1 active torsions:
REMARK  status: ('A' for Active; 'I' for Inactive)
REMARK    1  A    between atoms: N3_4  and  C2_6 
ROOT
HETATM    1  C2  UNL     1      -4.849   2.723  14.882  1.00  0.00     0.177 C 
HETATM    2  N4  UNL     1      -3.810   3.406  15.224  1.00  0.00    -0.361 N 
ATOM      3  H4  UNL     1      -3.411   3.419  16.163  1.00  0.00     0.162 HD
HETATM    4  C3  UNL     1      -3.282   4.151  14.097  1.00  0.00     0.142 C 
HETATM    5  C4  UNL     1      -3.853   3.402  12.928  1.00  0.00     0.142 C 
HETATM    6  N5  UNL     1      -5.130   2.935  13.493  1.00  0.00    -0.361 N 
ATOM      7  H5  UNL     1      -6.015   2.794  13.005  1.00  0.00     0.162 HD
ENDROOT
BRANCH   1   8
HETATM    8  N3  UNL     1      -5.661   1.859  15.690  1.00  0.00    -0.305 N 
HETATM    9  C1  UNL     1      -5.135   0.931  16.389  1.00  0.00     0.203 C 
HETATM   10  N1  UNL     1      -3.743   0.732  16.383  1.00  0.00    -0.066 NA
HETATM   11  N2  UNL     1      -5.963   0.103  17.169  1.00  0.00    -0.066 NA
ATOM     12  H3  UNL     1      -6.673   1.989  15.706  1.00  0.00     0.171 HD
ENDBRANCH   1   8
TORSDOF 1
ENDMDL
MODEL 3
REMARK VINA RESULT: -4.629486029      0.905      1.341
REMARK  1 active torsions:
REMARK  status: ('A' for Active; 'I' for Inactive)
REMARK    1  A    between atoms: N3_4  and  C2_6 
ROOT
HETATM    1  C2  UNL     1      -4.336   1.719  14.637  1.00  0.00     0.177 C 
HETATM    2  N4  UNL     1      -4.393   1.595  13.356  1.00  0.00    -0.361 N 
ATOM      3  H4  UNL     1      -4.609   0.724  12.869  1.00  0.00     0.162 HD
HETATM    4  C3  UNL     1      -4.110   2.856  12.696  1.00  0.00     0.142 C 
HETATM    5  C4  UNL     1      -4.390   3.850  13.786  1.00  0.00     0.142 C 
HETATM    6  N5  UNL     1      -4.011   3.073  14.977  1.00  0.00    -0.361 N 
ATOM      7  H5  UNL     1      -3.609   3.420  15.848  1.00  0.00     0.162 HD
ENDROOT
BRANCH   1   8
HETATM    8  N3  UNL     1      -4.550   0.721  15.647  1.00  0.00    -0.305 N 
HETATM    9  C1  UNL     1      -5.496   0.839  16.493  1.00  0.00     0.203 C 
HETATM   10  N1  UNL     1      -6.355   1.953  16.457  1.00  0.00    -0.066 NA
HETATM   11  N2  UNL     1      -5.676  -0.159  17.468  1.00  0.00    -0.066 NA
ATOM     12  H3  UNL     1      -3.937  -0.092  15.688  1.00  0.00     0.171 HD
ENDBRANCH   1   8
TORSDOF 1
ENDMDL
MODEL 4
REMARK VINA RESULT: -4.627143876      2.445      3.481
REMARK  1 active torsions:
REMARK  status: ('A' for Active; 'I' for Inactive)
REMARK    1  A    between atoms: N3_4  and  C2_6 
ROOT
HETATM    1  C2  UNL     1      -4.368   2.488  13.482  1.00  0.00     0.177 C 
HETATM    2  N4  UNL     1      -5.401   2.967  14.088  1.00  0.00    -0.361 N 
ATOM      3  H4  UNL     1      -6.237   2.428  14.316  1.00  0.00     0.162 HD
HETATM    4  C3  UNL     1      -5.217   4.371  14.402  1.00  0.00     0.142 C 
HETATM    5  C4  UNL     1      -3.724   4.511  14.355  1.00  0.00     0.142 C 
HETATM    6  N5  UNL     1      -3.381   3.517  13.326  1.00  0.00    -0.361 N 
ATOM      7  H5  UNL     1      -2.615   3.551  12.653  1.00  0.00     0.162 HD
ENDROOT
BRANCH   1   8
HETATM    8  N3  UNL     1      -4.145   1.154  13.004  1.00  0.00    -0.305 N 
HETATM    9  C1  UNL     1      -4.615   0.775  11.881  1.00  0.00     0.203 C 
HETATM   10  N1  UNL     1      -5.365   1.658  11.083  1.00  0.00    -0.066 NA
HETATM   11  N2  UNL     1      -4.377  -0.541  11.444  1.00  0.00    -0.066 NA
ATOM     12  H3  UNL     1      -3.604   0.500  13.570  1.00  0.00     0.171 HD
ENDBRANCH   1   8
TORSDOF 1
ENDMDL
MODEL 5
REMARK VINA RESULT: -4.626104340      4.341      5.006
REMARK  1 active torsions:
REMARK  status: ('A' for Active; 'I' for Inactive)
REMARK    1  A    between atoms: N3_4  and  C2_6 
ROOT
HETATM    1  C2  UNL     1      -4.347  -0.069  11.865  1.00  0.00     0.177 C 
HETATM    2  N4  UNL     1      -4.164   0.741  12.852  1.00  0.00    -0.361 N 
ATOM      3  H4  UNL     1      -3.828   0.461  13.774  1.00  0.00     0.162 HD
HETATM    4  C3  UNL     1      -4.498   2.102  12.477  1.00  0.00     0.142 C 
HETATM    5  C4  UNL     1      -4.407   2.048  10.980  1.00  0.00     0.142 C 
HETATM    6  N5  UNL     1      -4.821   0.659  10.725  1.00  0.00    -0.361 N 
ATOM      7  H5  UNL     1      -5.330   0.296   9.919  1.00  0.00     0.162 HD
ENDROOT
BRANCH   1   8
HETATM    8  N3  UNL     1      -4.137  -1.488  11.817  1.00  0.00    -0.305 N 
HETATM    9  C1  UNL     1      -3.023  -1.971  11.428  1.00  0.00     0.203 C 
HETATM   10  N1  UNL     1      -1.972  -1.123  11.034  1.00  0.00    -0.066 NA
HETATM   11  N2  UNL     1      -2.852  -3.368  11.394  1.00  0.00    -0.066 NA
ATOM     12  H3  UNL     1      -4.888  -2.118  12.099  1.00  0.00     0.171 HD
ENDBRANCH   1   8
TORSDOF 1
ENDMDL
