MODEL 1
REMARK VINA RESULT: -4.961128582      0.000      0.000
REMARK  3 active torsions:
REMARK  status: ('A' for Active; 'I' for Inactive)
REMARK    1  A    between atoms: O1_1  and  C1_3 
REMARK    2  A    between atoms: C1_3  and  N1_4 
REMARK    3  A    between atoms: N2_8  and  O2_9 
ROOT
HETATM    1  N1  UNL     1      -5.726   1.531  16.175  1.00  0.00     0.048 N 
HETATM    2  C2  UNL     1      -6.296   2.764  15.727  1.00  0.00     0.301 A 
HETATM    3  C3  UNL     1      -6.588   2.318  17.084  1.00  0.00     0.259 A 
HETATM    4  C4  UNL     1      -7.595   1.162  17.141  1.00  0.00     0.191 C 
HETATM    5  N2  UNL     1      -6.479   0.446  16.533  1.00  0.00    -0.014 NA
ENDROOT
BRANCH   1   6
HETATM    6  C1  UNL     1      -4.301   1.544  16.444  1.00  0.00     0.426 C 
BRANCH   6   7
HETATM    7  O1  UNL     1      -3.671   0.366  16.134  1.00  0.00    -0.373 OA
ATOM      8  H1  UNL     1      -2.724   0.415  16.187  1.00  0.00     0.211 HD
ENDBRANCH   6   7
ENDBRANCH   1   6
BRANCH   5   9
HETATM    9  O2  UNL     1      -5.883  -0.294  17.525  1.00  0.00    -0.288 OA
ATOM     10  H2  UNL     1      -6.393  -1.062  17.755  1.00  0.00     0.239 HD
ENDBRANCH   5   9
TORSDOF 3
ENDMDL
MODEL 2
REMARK VINA RESULT: -4.454933488      1.451      1.715
REMARK  3 active torsions:
REMARK  status: ('A' for Active; 'I' for Inactive)
REMARK    1  A    between atoms: O1_1  and  C1_3 
REMARK    2  A    between atoms: C1_3  and  N1_4 
REMARK    3  A    between atoms: N2_8  and  O2_9 
ROOT
HETATM    1  N1  UNL     1      -5.705   1.634  16.032  1.00  0.00     0.048 N 
HETATM    2  C2  UNL     1      -6.904   2.178  16.590  1.00  0.00     0.301 A 
HETATM    3  C3  UNL     1      -5.859   1.727  17.501  1.00  0.00     0.259 A 
HETATM    4  C4  UNL     1      -5.768   0.199  17.613  1.00  0.00     0.191 C 
HETATM    5  N2  UNL     1      -5.304   0.342  16.237  1.00  0.00    -0.014 NA
ENDROOT
BRANCH   1   6
HETATM    6  C1  UNL     1      -4.804   2.581  15.404  1.00  0.00     0.426 C 
BRANCH   6   7
HETATM    7  O1  UNL     1      -4.237   2.115  14.245  1.00  0.00    -0.373 OA
ATOM      8  H1  UNL     1      -4.221   2.756  13.544  1.00  0.00     0.211 HD
ENDBRANCH   6   7
ENDBRANCH   1   6
BRANCH   5   9
HETATM    9  O2  UNL     1      -3.936   0.221  16.255  1.00  0.00    -0.288 OA
ATOM     10  H2  UNL     1      -3.644  -0.449  16.863  1.00  0.00     0.239 HD
ENDBRANCH   5   9
TORSDOF 3
ENDMDL
MODEL 3
REMARK VINA RESULT: -4.156869054      4.876      5.664
REMARK  3 active torsions:
REMARK  status: ('A' for Active; 'I' for Inactive)
REMARK    1  A    between atoms: O1_1  and  C1_3 
REMARK    2  A    between atoms: C1_3  and  N1_4 
REMARK    3  A    between atoms: N2_8  and  O2_9 
ROOT
HETATM    1  N1  UNL     1      -4.663   1.610  12.328  1.00  0.00     0.048 N 
HETATM    2  C2  UNL     1      -4.336   0.438  13.081  1.00  0.00     0.301 A 
HETATM    3  C3  UNL     1      -3.704   0.625  11.780  1.00  0.00     0.259 A 
HETATM    4  C4  UNL     1      -4.645   0.354  10.600  1.00  0.00     0.191 C 
HETATM    5  N2  UNL     1      -5.279   1.567  11.107  1.00  0.00    -0.014 NA
ENDROOT
BRANCH   1   6
HETATM    6  C1  UNL     1      -4.114   2.860  12.819  1.00  0.00     0.426 C 
BRANCH   6   7
HETATM    7  O1  UNL     1      -5.047   3.857  12.947  1.00  0.00    -0.373 OA
ATOM      8  H1  UNL     1      -5.931   3.582  12.737  1.00  0.00     0.211 HD
ENDBRANCH   6   7
ENDBRANCH   1   6
BRANCH   5   9
HETATM    9  O2  UNL     1      -4.886   2.601  10.292  1.00  0.00    -0.288 OA
ATOM     10  H2  UNL     1      -5.627   3.061   9.915  1.00  0.00     0.239 HD
ENDBRANCH   5   9
TORSDOF 3
ENDMDL
MODEL 4
REMARK VINA RESULT: -4.142592682      6.038      7.083
REMARK  3 active torsions:
REMARK  status: ('A' for Active; 'I' for Inactive)
REMARK    1  A    between atoms: O1_1  and  C1_3 
REMARK    2  A    between atoms: C1_3  and  N1_4 
REMARK    3  A    between atoms: N2_8  and  O2_9 
ROOT
HETATM    1  N1  UNL     1      -3.540   0.894  10.591  1.00  0.00     0.048 N 
HETATM    2  C2  UNL     1      -3.142  -0.433  10.234  1.00  0.00     0.301 A 
HETATM    3  C3  UNL     1      -2.231   0.372  11.040  1.00  0.00     0.259 A 
HETATM    4  C4  UNL     1      -1.512   1.465  10.239  1.00  0.00     0.191 C 
HETATM    5  N2  UNL     1      -2.864   2.012  10.186  1.00  0.00    -0.014 NA
ENDROOT
BRANCH   1   6
HETATM    6  C1  UNL     1      -4.584   1.001  11.592  1.00  0.00     0.426 C 
BRANCH   6   7
HETATM    7  O1  UNL     1      -5.629   1.806  11.214  1.00  0.00    -0.373 OA
ATOM      8  H1  UNL     1      -5.709   1.910  10.273  1.00  0.00     0.211 HD
ENDBRANCH   6   7
ENDBRANCH   1   6
BRANCH   5   9
HETATM    9  O2  UNL     1      -2.929   3.022  11.116  1.00  0.00    -0.288 OA
ATOM     10  H2  UNL     1      -2.871   3.881  10.716  1.00  0.00     0.239 HD
ENDBRANCH   5   9
TORSDOF 3
ENDMDL
MODEL 5
REMARK VINA RESULT: -4.123234442      5.385      6.033
REMARK  3 active torsions:
REMARK  status: ('A' for Active; 'I' for Inactive)
REMARK    1  A    between atoms: O1_1  and  C1_3 
REMARK    2  A    between atoms: C1_3  and  N1_4 
REMARK    3  A    between atoms: N2_8  and  O2_9 
ROOT
HETATM    1  N1  UNL     1      -4.607   1.361  11.658  1.00  0.00     0.048 N 
HETATM    2  C2  UNL     1      -4.339   1.161  13.049  1.00  0.00     0.301 A 
HETATM    3  C3  UNL     1      -3.621   0.341  12.079  1.00  0.00     0.259 A 
HETATM    4  C4  UNL     1      -4.486  -0.762  11.457  1.00  0.00     0.191 C 
HETATM    5  N2  UNL     1      -5.143   0.393  10.853  1.00  0.00    -0.014 NA
ENDROOT
BRANCH   1   6
HETATM    6  C1  UNL     1      -4.083   2.581  11.074  1.00  0.00     0.426 C 
BRANCH   6   7
HETATM    7  O1  UNL     1      -5.037   3.351  10.459  1.00  0.00    -0.373 OA
ATOM      8  H1  UNL     1      -4.678   4.070   9.953  1.00  0.00     0.211 HD
ENDBRANCH   6   7
ENDBRANCH   1   6
BRANCH   5   9
HETATM    9  O2  UNL     1      -4.691   0.487   9.559  1.00  0.00    -0.288 OA
ATOM     10  H2  UNL     1      -5.312   0.128   8.936  1.00  0.00     0.239 HD
ENDBRANCH   5   9
TORSDOF 3
ENDMDL
