MODEL 1
REMARK VINA RESULT: -3.659740629      0.000      0.000
REMARK  1 active torsions:
REMARK  status: ('A' for Active; 'I' for Inactive)
REMARK    1  A    between atoms: N1_1  and  C1_5 
ROOT
HETATM    1  C1  UNL     1      -3.205  -0.396  10.421  1.00  0.00     0.405 C 
HETATM    2  C2  UNL     1      -2.112   0.597  10.547  1.00  0.00     0.294 C 
HETATM    3  N2  UNL     1      -2.227   1.520  11.619  1.00  0.00    -0.070 N 
ATOM      4  H21 UNL     1      -1.594   2.308  11.477  1.00  0.00     0.277 HD
ATOM      5  H22 UNL     1      -1.827   1.126  12.470  1.00  0.00     0.277 HD
HETATM    6  C3  UNL     1      -3.570   1.992  11.865  1.00  0.00     0.260 C 
HETATM    7  C4  UNL     1      -4.404   0.732  12.127  1.00  0.00     0.262 C 
HETATM    8  N3  UNL     1      -4.496   0.056  10.846  1.00  0.00    -0.043 N 
ATOM      9  H31 UNL     1      -5.176  -0.704  10.866  1.00  0.00     0.279 HD
ATOM     10  H32 UNL     1      -4.943   0.641  10.140  1.00  0.00     0.279 HD
ENDROOT
BRANCH   1  11
HETATM   11  N1  UNL     1      -2.939  -1.644  11.121  1.00  0.00    -0.049 N 
ATOM     12  H13 UNL     1      -2.012  -2.000  10.885  1.00  0.00     0.276 HD
ATOM     13  H12 UNL     1      -2.806  -1.477  12.118  1.00  0.00     0.276 HD
ATOM     14  H11 UNL     1      -3.651  -2.357  10.965  1.00  0.00     0.276 HD
ENDBRANCH   1  11
TORSDOF 1
ENDMDL
MODEL 2
REMARK VINA RESULT: -3.620399045      5.241      6.165
REMARK  1 active torsions:
REMARK  status: ('A' for Active; 'I' for Inactive)
REMARK    1  A    between atoms: N1_1  and  C1_5 
ROOT
HETATM    1  C1  UNL     1      -4.850   1.542  15.574  1.00  0.00     0.405 C 
HETATM    2  C2  UNL     1      -5.954   2.530  15.556  1.00  0.00     0.294 C 
HETATM    3  N2  UNL     1      -6.823   2.517  16.678  1.00  0.00    -0.070 N 
ATOM      4  H21 UNL     1      -7.681   3.028  16.468  1.00  0.00     0.277 HD
ATOM      5  H22 UNL     1      -6.448   3.104  17.423  1.00  0.00     0.277 HD
HETATM    6  C3  UNL     1      -7.133   1.199  17.184  1.00  0.00     0.260 C 
HETATM    7  C4  UNL     1      -5.779   0.563  17.523  1.00  0.00     0.262 C 
HETATM    8  N3  UNL     1      -5.140   0.310  16.245  1.00  0.00    -0.043 N 
ATOM      9  H31 UNL     1      -4.308  -0.271  16.345  1.00  0.00     0.279 HD
ATOM     10  H32 UNL     1      -5.694  -0.317  15.661  1.00  0.00     0.279 HD
ENDROOT
BRANCH   1  11
HETATM   11  N1  UNL     1      -3.617   2.061  16.149  1.00  0.00    -0.049 N 
ATOM     12  H13 UNL     1      -3.813   2.827  16.793  1.00  0.00     0.276 HD
ATOM     13  H12 UNL     1      -3.213   1.390  16.802  1.00  0.00     0.276 HD
ATOM     14  H11 UNL     1      -2.930   2.343  15.450  1.00  0.00     0.276 HD
ENDBRANCH   1  11
TORSDOF 1
ENDMDL
MODEL 3
REMARK VINA RESULT: -3.458304411      4.437      5.558
REMARK  1 active torsions:
REMARK  status: ('A' for Active; 'I' for Inactive)
REMARK    1  A    between atoms: N1_1  and  C1_5 
ROOT
HETATM    1  C1  UNL     1      -4.753   2.661  14.517  1.00  0.00     0.405 C 
HETATM    2  C2  UNL     1      -6.021   3.144  15.112  1.00  0.00     0.294 C 
HETATM    3  N2  UNL     1      -6.361   2.604  16.380  1.00  0.00    -0.070 N 
ATOM      4  H21 UNL     1      -7.345   2.781  16.588  1.00  0.00     0.277 HD
ATOM      5  H22 UNL     1      -5.925   3.146  17.125  1.00  0.00     0.277 HD
HETATM    6  C3  UNL     1      -6.058   1.200  16.537  1.00  0.00     0.260 C 
HETATM    7  C4  UNL     1      -4.554   1.074  16.266  1.00  0.00     0.262 C 
HETATM    8  N3  UNL     1      -4.396   1.313  14.844  1.00  0.00    -0.043 N 
ATOM      9  H31 UNL     1      -3.456   1.083  14.522  1.00  0.00     0.279 HD
ATOM     10  H32 UNL     1      -4.918   0.638  14.285  1.00  0.00     0.279 HD
ENDROOT
BRANCH   1  11
HETATM   11  N1  UNL     1      -3.606   3.497  14.839  1.00  0.00    -0.049 N 
ATOM     12  H13 UNL     1      -3.881   4.270  15.446  1.00  0.00     0.276 HD
ATOM     13  H12 UNL     1      -2.969   3.008  15.468  1.00  0.00     0.276 HD
ATOM     14  H11 UNL     1      -3.110   3.841  14.017  1.00  0.00     0.276 HD
ENDBRANCH   1  11
TORSDOF 1
ENDMDL
MODEL 4
REMARK VINA RESULT: -3.451127508      1.314      2.609
REMARK  1 active torsions:
REMARK  status: ('A' for Active; 'I' for Inactive)
REMARK    1  A    between atoms: N1_1  and  C1_5 
ROOT
HETATM    1  C1  UNL     1      -2.739   1.483  10.906  1.00  0.00     0.405 C 
HETATM    2  C2  UNL     1      -3.852   1.581  11.880  1.00  0.00     0.294 C 
HETATM    3  N2  UNL     1      -4.277   0.362  12.470  1.00  0.00    -0.070 N 
ATOM      4  H21 UNL     1      -5.190   0.480  12.909  1.00  0.00     0.277 HD
ATOM      5  H22 UNL     1      -3.713   0.151  13.292  1.00  0.00     0.277 HD
HETATM    6  C3  UNL     1      -4.295  -0.768  11.569  1.00  0.00     0.260 C 
HETATM    7  C4  UNL     1      -2.864  -0.881  11.028  1.00  0.00     0.262 C 
HETATM    8  N3  UNL     1      -2.689   0.264  10.155  1.00  0.00    -0.043 N 
ATOM      9  H31 UNL     1      -1.832   0.195   9.605  1.00  0.00     0.279 HD
ATOM     10  H32 UNL     1      -3.362   0.264   9.389  1.00  0.00     0.279 HD
ENDROOT
BRANCH   1  11
HETATM   11  N1  UNL     1      -1.427   1.670  11.505  1.00  0.00    -0.049 N 
ATOM     12  H13 UNL     1      -0.973   2.502  11.128  1.00  0.00     0.276 HD
ATOM     13  H12 UNL     1      -1.512   1.952  12.481  1.00  0.00     0.276 HD
ATOM     14  H11 UNL     1      -0.819   0.855  11.416  1.00  0.00     0.276 HD
ENDBRANCH   1  11
TORSDOF 1
ENDMDL
MODEL 5
REMARK VINA RESULT: -3.441418896      1.073      2.363
REMARK  1 active torsions:
REMARK  status: ('A' for Active; 'I' for Inactive)
REMARK    1  A    between atoms: N1_1  and  C1_5 
ROOT
HETATM    1  C1  UNL     1      -2.081   0.712  10.991  1.00  0.00     0.405 C 
HETATM    2  C2  UNL     1      -3.052  -0.283  10.478  1.00  0.00     0.294 C 
HETATM    3  N2  UNL     1      -4.388   0.169  10.326  1.00  0.00    -0.070 N 
ATOM      4  H21 UNL     1      -5.022  -0.625  10.226  1.00  0.00     0.277 HD
ATOM      5  H22 UNL     1      -4.513   0.607   9.414  1.00  0.00     0.277 HD
HETATM    6  C3  UNL     1      -4.849   1.051  11.374  1.00  0.00     0.260 C 
HETATM    7  C4  UNL     1      -3.863   2.226  11.381  1.00  0.00     0.262 C 
HETATM    8  N3  UNL     1      -2.619   1.684  11.895  1.00  0.00    -0.043 N 
ATOM      9  H31 UNL     1      -1.943   2.419  12.106  1.00  0.00     0.279 HD
ATOM     10  H32 UNL     1      -2.730   1.305  12.836  1.00  0.00     0.279 HD
ENDROOT
BRANCH   1  11
HETATM   11  N1  UNL     1      -1.390   1.443   9.940  1.00  0.00    -0.049 N 
ATOM     12  H13 UNL     1      -0.764   0.826   9.422  1.00  0.00     0.276 HD
ATOM     13  H12 UNL     1      -2.035   1.696   9.192  1.00  0.00     0.276 HD
ATOM     14  H11 UNL     1      -0.889   2.265  10.278  1.00  0.00     0.276 HD
ENDBRANCH   1  11
TORSDOF 1
ENDMDL
