MODEL 1
REMARK VINA RESULT: -4.290323981      0.000      0.000
REMARK  0 active torsions:
REMARK  status: ('A' for Active; 'I' for Inactive)
ROOT
HETATM    1  C1  UNL     1      -4.368   3.441  13.454  1.00  0.00     0.165 C 
HETATM    2  N1  UNL     1      -4.080   2.246  14.185  1.00  0.00    -0.228 N 
ATOM      3  H1  UNL     1      -3.274   1.686  13.908  1.00  0.00     0.177 HD
HETATM    4  C2  UNL     1      -4.803   1.843  15.185  1.00  0.00     0.706 A 
HETATM    5  N2  UNL     1      -4.465   0.646  15.873  1.00  0.00    -0.130 N 
ATOM      6  H2  UNL     1      -3.653   0.107  15.573  1.00  0.00     0.205 HD
HETATM    7  N3  UNL     1      -5.232   0.194  16.956  1.00  0.00    -0.281 N 
ATOM      8  H3  UNL     1      -4.953  -0.670  17.420  1.00  0.00     0.188 HD
HETATM    9  C3  UNL     1      -6.273   0.818  17.395  1.00  0.00     0.214 A 
HETATM   10  N4  UNL     1      -6.635   2.020  16.727  1.00  0.00    -0.281 N 
ATOM     11  H4  UNL     1      -7.455   2.524  17.063  1.00  0.00     0.188 HD
HETATM   12  N5  UNL     1      -5.946   2.551  15.649  1.00  0.00    -0.130 N 
ATOM     13  H5  UNL     1      -6.248   3.418  15.204  1.00  0.00     0.205 HD
ENDROOT
TORSDOF 0
ENDMDL
MODEL 2
REMARK VINA RESULT: -4.047887672      0.762      1.765
REMARK  0 active torsions:
REMARK  status: ('A' for Active; 'I' for Inactive)
ROOT
HETATM    1  C1  UNL     1      -4.024   3.011  13.004  1.00  0.00     0.165 C 
HETATM    2  N1  UNL     1      -5.026   3.205  14.006  1.00  0.00    -0.228 N 
ATOM      3  H1  UNL     1      -5.616   4.035  13.954  1.00  0.00     0.177 HD
HETATM    4  C2  UNL     1      -5.215   2.368  14.980  1.00  0.00     0.706 A 
HETATM    5  N2  UNL     1      -6.229   2.616  15.946  1.00  0.00    -0.130 N 
ATOM      6  H2  UNL     1      -6.803   3.454  15.867  1.00  0.00     0.205 HD
HETATM    7  N3  UNL     1      -6.450   1.724  17.005  1.00  0.00    -0.281 N 
ATOM      8  H3  UNL     1      -7.188   1.941  17.675  1.00  0.00     0.188 HD
HETATM    9  C3  UNL     1      -5.766   0.643  17.175  1.00  0.00     0.214 A 
HETATM   10  N4  UNL     1      -4.745   0.369  16.223  1.00  0.00    -0.281 N 
ATOM     11  H4  UNL     1      -4.197  -0.483  16.344  1.00  0.00     0.188 HD
HETATM   12  N5  UNL     1      -4.446   1.182  15.143  1.00  0.00    -0.130 N 
ATOM     13  H5  UNL     1      -3.702   0.940  14.489  1.00  0.00     0.205 HD
ENDROOT
TORSDOF 0
ENDMDL
MODEL 3
REMARK VINA RESULT: -4.006707311      0.960      3.348
REMARK  0 active torsions:
REMARK  status: ('A' for Active; 'I' for Inactive)
ROOT
HETATM    1  C1  UNL     1      -5.869   0.915  17.797  1.00  0.00     0.165 C 
HETATM    2  N1  UNL     1      -5.148   0.531  16.623  1.00  0.00    -0.228 N 
ATOM      3  H1  UNL     1      -4.702  -0.386  16.601  1.00  0.00     0.177 HD
HETATM    4  C2  UNL     1      -5.037   1.302  15.584  1.00  0.00     0.706 A 
HETATM    5  N2  UNL     1      -4.307   0.863  14.446  1.00  0.00    -0.130 N 
ATOM      6  H2  UNL     1      -3.873  -0.059  14.453  1.00  0.00     0.205 HD
HETATM    7  N3  UNL     1      -4.177   1.680  13.313  1.00  0.00    -0.281 N 
ATOM      8  H3  UNL     1      -3.645   1.325  12.519  1.00  0.00     0.188 HD
HETATM    9  C3  UNL     1      -4.696   2.858  13.226  1.00  0.00     0.214 A 
HETATM   10  N4  UNL     1      -5.432   3.323  14.351  1.00  0.00    -0.281 N 
ATOM     11  H4  UNL     1      -5.849   4.252  14.296  1.00  0.00     0.188 HD
HETATM   12  N5  UNL     1      -5.621   2.597  15.515  1.00  0.00    -0.130 N 
ATOM     13  H5  UNL     1      -6.158   2.978  16.294  1.00  0.00     0.205 HD
ENDROOT
TORSDOF 0
ENDMDL
MODEL 4
REMARK VINA RESULT: -3.980524968      4.154      5.413
REMARK  0 active torsions:
REMARK  status: ('A' for Active; 'I' for Inactive)
ROOT
HETATM    1  C1  UNL     1      -0.593   2.871  10.081  1.00  0.00     0.165 C 
HETATM    2  N1  UNL     1      -1.292   1.646   9.839  1.00  0.00    -0.228 N 
ATOM      3  H1  UNL     1      -1.045   1.097   9.016  1.00  0.00     0.177 HD
HETATM    4  C2  UNL     1      -2.227   1.205  10.624  1.00  0.00     0.706 A 
HETATM    5  N2  UNL     1      -2.884  -0.021  10.331  1.00  0.00    -0.130 N 
ATOM      6  H2  UNL     1      -2.616  -0.549   9.501  1.00  0.00     0.205 HD
HETATM    7  N3  UNL     1      -3.896  -0.515  11.166  1.00  0.00    -0.281 N 
ATOM      8  H3  UNL     1      -4.341  -1.398  10.918  1.00  0.00     0.188 HD
HETATM    9  C3  UNL     1      -4.293   0.093  12.233  1.00  0.00     0.214 A 
HETATM   10  N4  UNL     1      -3.653   1.322  12.552  1.00  0.00    -0.281 N 
ATOM     11  H4  UNL     1      -3.956   1.813  13.393  1.00  0.00     0.188 HD
HETATM   12  N5  UNL     1      -2.645   1.896  11.796  1.00  0.00    -0.130 N 
ATOM     13  H5  UNL     1      -2.218   2.781  12.068  1.00  0.00     0.205 HD
ENDROOT
TORSDOF 0
ENDMDL
MODEL 5
REMARK VINA RESULT: -3.976213192      2.078      2.992
REMARK  0 active torsions:
REMARK  status: ('A' for Active; 'I' for Inactive)
ROOT
HETATM    1  C1  UNL     1      -4.367  -0.360  11.462  1.00  0.00     0.165 C 
HETATM    2  N1  UNL     1      -4.308   0.939  12.059  1.00  0.00    -0.228 N 
ATOM      3  H1  UNL     1      -4.256   1.755  11.450  1.00  0.00     0.177 HD
HETATM    4  C2  UNL     1      -4.318   1.121  13.344  1.00  0.00     0.706 A 
HETATM    5  N2  UNL     1      -4.258   2.438  13.877  1.00  0.00    -0.130 N 
ATOM      6  H2  UNL     1      -4.207   3.234  13.243  1.00  0.00     0.205 HD
HETATM    7  N3  UNL     1      -4.268   2.656  15.262  1.00  0.00    -0.281 N 
ATOM      8  H3  UNL     1      -4.224   3.617  15.601  1.00  0.00     0.188 HD
HETATM    9  C3  UNL     1      -4.331   1.703  16.129  1.00  0.00     0.214 A 
HETATM   10  N4  UNL     1      -4.392   0.375  15.624  1.00  0.00    -0.281 N 
ATOM     11  H4  UNL     1      -4.443  -0.389  16.298  1.00  0.00     0.188 HD
HETATM   12  N5  UNL     1      -4.389   0.051  14.278  1.00  0.00    -0.130 N 
ATOM     13  H5  UNL     1      -4.434  -0.920  13.968  1.00  0.00     0.205 HD
ENDROOT
TORSDOF 0
ENDMDL
