MODEL 1
REMARK VINA RESULT: -4.048495266      0.000      0.000
REMARK  1 active torsions:
REMARK  status: ('A' for Active; 'I' for Inactive)
REMARK    1  A    between atoms: N1_1  and  C1_4 
ROOT
HETATM    1  C1  UNL     1      -3.145  -1.586  11.202  1.00  0.00     0.694 A 
HETATM    2  N2  UNL     1      -4.217  -1.207  11.879  1.00  0.00    -0.120 N 
ATOM      3  H2  UNL     1      -4.715  -1.654  12.649  1.00  0.00     0.196 HD
HETATM    4  S1  UNL     1      -4.498   0.212  11.090  1.00  0.00     0.250 S 
HETATM    5  O1  UNL     1      -5.492   1.628  11.054  1.00  0.00    -0.211 OA
HETATM    6  N3  UNL     1      -3.178  -0.503  10.437  1.00  0.00    -0.120 N 
ATOM      7  H3  UNL     1      -2.567  -0.207   9.676  1.00  0.00     0.196 HD
ENDROOT
BRANCH   1   8
HETATM    8  N1  UNL     1      -2.386  -2.654  11.309  1.00  0.00    -0.233 N 
ATOM      9  H12 UNL     1      -1.490  -2.884  11.737  1.00  0.00     0.174 HD
ATOM     10  H11 UNL     1      -2.511  -3.605  10.963  1.00  0.00     0.174 HD
ENDBRANCH   1   8
TORSDOF 1
ENDMDL
MODEL 2
REMARK VINA RESULT: -3.956496312      0.141      1.112
REMARK  1 active torsions:
REMARK  status: ('A' for Active; 'I' for Inactive)
REMARK    1  A    between atoms: N1_1  and  C1_4 
ROOT
HETATM    1  C1  UNL     1      -3.197  -1.730  11.183  1.00  0.00     0.694 A 
HETATM    2  N2  UNL     1      -3.172  -0.627  10.452  1.00  0.00    -0.120 N 
ATOM      3  H2  UNL     1      -2.558  -0.345   9.687  1.00  0.00     0.196 HD
HETATM    4  S1  UNL     1      -4.441   0.149  11.161  1.00  0.00     0.250 S 
HETATM    5  O1  UNL     1      -5.442   1.559  11.094  1.00  0.00    -0.211 OA
HETATM    6  N3  UNL     1      -4.232  -1.300  11.893  1.00  0.00    -0.120 N 
ATOM      7  H3  UNL     1      -4.742  -1.739  12.659  1.00  0.00     0.196 HD
ENDROOT
BRANCH   1   8
HETATM    8  N1  UNL     1      -2.443  -2.806  11.154  1.00  0.00    -0.233 N 
ATOM      9  H12 UNL     1      -1.570  -3.085  10.708  1.00  0.00     0.174 HD
ATOM     10  H11 UNL     1      -2.547  -3.712  11.610  1.00  0.00     0.174 HD
ENDBRANCH   1   8
TORSDOF 1
ENDMDL
MODEL 3
REMARK VINA RESULT: -3.543137157      5.968      6.204
REMARK  1 active torsions:
REMARK  status: ('A' for Active; 'I' for Inactive)
REMARK    1  A    between atoms: N1_1  and  C1_4 
ROOT
HETATM    1  C1  UNL     1      -4.493   2.789  15.252  1.00  0.00     0.694 A 
HETATM    2  N2  UNL     1      -5.703   2.416  15.638  1.00  0.00    -0.120 N 
ATOM      3  H2  UNL     1      -6.618   2.834  15.469  1.00  0.00     0.196 HD
HETATM    4  S1  UNL     1      -5.270   1.064  16.477  1.00  0.00     0.250 S 
HETATM    5  O1  UNL     1      -5.874  -0.300  17.353  1.00  0.00    -0.211 OA
HETATM    6  N3  UNL     1      -3.921   1.760  15.863  1.00  0.00    -0.120 N 
ATOM      7  H3  UNL     1      -2.941   1.486  15.930  1.00  0.00     0.196 HD
ENDROOT
BRANCH   1   8
HETATM    8  N1  UNL     1      -4.091   3.813  14.531  1.00  0.00    -0.233 N 
ATOM      9  H12 UNL     1      -4.386   4.778  14.390  1.00  0.00     0.174 HD
ATOM     10  H11 UNL     1      -3.316   3.909  13.876  1.00  0.00     0.174 HD
ENDBRANCH   1   8
TORSDOF 1
ENDMDL
MODEL 4
REMARK VINA RESULT: -3.523170537      5.958      6.229
REMARK  1 active torsions:
REMARK  status: ('A' for Active; 'I' for Inactive)
REMARK    1  A    between atoms: N1_1  and  C1_4 
ROOT
HETATM    1  C1  UNL     1      -4.499   2.789  15.276  1.00  0.00     0.694 A 
HETATM    2  N2  UNL     1      -3.913   1.750  15.851  1.00  0.00    -0.120 N 
ATOM      3  H2  UNL     1      -2.929   1.488  15.916  1.00  0.00     0.196 HD
HETATM    4  S1  UNL     1      -5.269   1.010  16.427  1.00  0.00     0.250 S 
HETATM    5  O1  UNL     1      -5.854  -0.315  17.373  1.00  0.00    -0.211 OA
HETATM    6  N3  UNL     1      -5.706   2.378  15.639  1.00  0.00    -0.120 N 
ATOM      7  H3  UNL     1      -6.626   2.788  15.478  1.00  0.00     0.196 HD
ENDROOT
BRANCH   1   8
HETATM    8  N1  UNL     1      -3.998   3.808  14.614  1.00  0.00    -0.233 N 
ATOM      9  H12 UNL     1      -3.855   4.055  13.635  1.00  0.00     0.174 HD
ATOM     10  H11 UNL     1      -3.591   4.685  14.938  1.00  0.00     0.174 HD
ENDBRANCH   1   8
TORSDOF 1
ENDMDL
MODEL 5
REMARK VINA RESULT: -3.424636411      2.732      3.223
REMARK  1 active torsions:
REMARK  status: ('A' for Active; 'I' for Inactive)
REMARK    1  A    between atoms: N1_1  and  C1_4 
ROOT
HETATM    1  C1  UNL     1      -4.419   1.249  13.064  1.00  0.00     0.694 A 
HETATM    2  N2  UNL     1      -4.228   0.106  12.425  1.00  0.00    -0.120 N 
ATOM      3  H2  UNL     1      -3.936  -0.811  12.765  1.00  0.00     0.196 HD
HETATM    4  S1  UNL     1      -4.608   0.623  10.907  1.00  0.00     0.250 S 
HETATM    5  O1  UNL     1      -4.825   0.125   9.264  1.00  0.00    -0.211 OA
HETATM    6  N3  UNL     1      -4.762   1.878  11.948  1.00  0.00    -0.120 N 
ATOM      7  H3  UNL     1      -5.038   2.846  11.787  1.00  0.00     0.196 HD
ENDROOT
BRANCH   1   8
HETATM    8  N1  UNL     1      -4.295   1.562  14.334  1.00  0.00    -0.233 N 
ATOM      9  H12 UNL     1      -4.387   1.079  15.227  1.00  0.00     0.174 HD
ATOM     10  H11 UNL     1      -4.052   2.442  14.788  1.00  0.00     0.174 HD
ENDBRANCH   1   8
TORSDOF 1
ENDMDL
