MODEL 1
REMARK VINA RESULT: -11.302737236      0.000      0.000
REMARK  0 active torsions:
REMARK  status: ('A' for Active; 'I' for Inactive)
ROOT
HETATM    1  C1  UNL     1      73.315  -2.822 -20.353  1.00  0.00     0.156 C 
HETATM    2  N1  UNL     1      72.035  -3.432 -20.552  1.00  0.00    -0.358 N 
HETATM    3  C2  UNL     1      71.934  -4.603 -21.211  1.00  0.00     0.107 A 
HETATM    4  C3  UNL     1      70.736  -5.223 -21.425  1.00  0.00     0.105 A 
HETATM    5  N2  UNL     1      69.597  -4.698 -20.988  1.00  0.00    -0.362 N 
ATOM      6  H2  UNL     1      68.705  -5.165 -21.150  1.00  0.00     0.165 HD
HETATM    7  C4  UNL     1      69.661  -3.515 -20.317  1.00  0.00     0.072 A 
HETATM    8  C5  UNL     1      68.467  -2.954 -19.853  1.00  0.00     0.031 A 
HETATM    9  C6  UNL     1      68.555  -1.759 -19.177  1.00  0.00    -0.021 A 
HETATM   10  C7  UNL     1      67.371  -1.199 -18.714  1.00  0.00     0.013 A 
HETATM   11  C8  UNL     1      66.155  -1.818 -18.926  1.00  0.00     0.014 A 
HETATM   12  C9  UNL     1      66.108  -3.022 -19.611  1.00  0.00    -0.008 A 
HETATM   13  C10 UNL     1      64.927  -3.694 -19.857  1.00  0.00     0.027 A 
HETATM   14  C11 UNL     1      64.941  -4.896 -20.549  1.00  0.00    -0.009 A 
HETATM   15  C12 UNL     1      63.766  -5.592 -20.809  1.00  0.00     0.014 A 
HETATM   16  C13 UNL     1      63.794  -6.787 -21.498  1.00  0.00     0.001 A 
HETATM   17  C14 UNL     1      64.975  -7.313 -21.942  1.00  0.00     0.002 A 
HETATM   18  C15 UNL     1      66.152  -6.654 -21.702  1.00  0.00     0.030 A 
HETATM   19  C16 UNL     1      66.115  -5.446 -21.004  1.00  0.00     0.043 A 
HETATM   20  N3  UNL     1      67.260  -4.775 -20.755  1.00  0.00    -0.354 N 
ATOM     21  H3  UNL     1      68.144  -5.164 -21.083  1.00  0.00     0.166 HD
HETATM   22  C17 UNL     1      67.268  -3.607 -20.085  1.00  0.00     0.056 A 
HETATM   23  C18 UNL     1      69.778  -1.162 -18.979  1.00  0.00     0.014 A 
HETATM   24  C19 UNL     1      70.959  -1.711 -19.435  1.00  0.00     0.033 A 
HETATM   25  C20 UNL     1      70.877  -2.901 -20.108  1.00  0.00     0.061 A 
ENDROOT
TORSDOF 0
ENDMDL
MODEL 2
REMARK VINA RESULT: -10.588303401      0.882      1.012
REMARK  0 active torsions:
REMARK  status: ('A' for Active; 'I' for Inactive)
ROOT
HETATM    1  C1  UNL     1      72.762  -1.549 -19.224  1.00  0.00     0.156 C 
HETATM    2  N1  UNL     1      71.613  -2.331 -19.569  1.00  0.00    -0.358 N 
HETATM    3  C2  UNL     1      71.759  -3.519 -20.188  1.00  0.00     0.107 A 
HETATM    4  C3  UNL     1      70.695  -4.300 -20.537  1.00  0.00     0.105 A 
HETATM    5  N2  UNL     1      69.447  -3.924 -20.280  1.00  0.00    -0.362 N 
ATOM      6  H2  UNL     1      68.654  -4.511 -20.542  1.00  0.00     0.165 HD
HETATM    7  C4  UNL     1      69.260  -2.728 -19.655  1.00  0.00     0.072 A 
HETATM    8  C5  UNL     1      67.950  -2.324 -19.380  1.00  0.00     0.031 A 
HETATM    9  C6  UNL     1      67.786  -1.113 -18.748  1.00  0.00    -0.021 A 
HETATM   10  C7  UNL     1      66.486  -0.707 -18.474  1.00  0.00     0.013 A 
HETATM   11  C8  UNL     1      65.403  -1.490 -18.822  1.00  0.00     0.014 A 
HETATM   12  C9  UNL     1      65.610  -2.704 -19.458  1.00  0.00    -0.008 A 
HETATM   13  C10 UNL     1      64.573  -3.536 -19.834  1.00  0.00     0.027 A 
HETATM   14  C11 UNL     1      64.841  -4.739 -20.467  1.00  0.00    -0.009 A 
HETATM   15  C12 UNL     1      63.816  -5.594 -20.856  1.00  0.00     0.014 A 
HETATM   16  C13 UNL     1      64.095  -6.789 -21.485  1.00  0.00     0.001 A 
HETATM   17  C14 UNL     1      65.385  -7.161 -21.742  1.00  0.00     0.002 A 
HETATM   18  C15 UNL     1      66.421  -6.344 -21.373  1.00  0.00     0.030 A 
HETATM   19  C16 UNL     1      66.129  -5.136 -20.737  1.00  0.00     0.043 A 
HETATM   20  N3  UNL     1      67.130  -4.311 -20.363  1.00  0.00    -0.354 N 
ATOM     21  H3  UNL     1      68.095  -4.584 -20.552  1.00  0.00     0.166 HD
HETATM   22  C17 UNL     1      66.892  -3.138 -19.746  1.00  0.00     0.056 A 
HETATM   23  C18 UNL     1      68.881  -0.352 -18.411  1.00  0.00     0.014 A 
HETATM   24  C19 UNL     1      70.176  -0.746 -18.680  1.00  0.00     0.033 A 
HETATM   25  C20 UNL     1      70.345  -1.951 -19.309  1.00  0.00     0.061 A 
ENDROOT
TORSDOF 0
ENDMDL
MODEL 3
REMARK VINA RESULT: -10.357456310      1.891      3.998
REMARK  0 active torsions:
REMARK  status: ('A' for Active; 'I' for Inactive)
ROOT
HETATM    1  C1  UNL     1      68.272   1.577 -17.317  1.00  0.00     0.156 C 
HETATM    2  N1  UNL     1      67.590   0.451 -17.881  1.00  0.00    -0.358 N 
HETATM    3  C2  UNL     1      66.244   0.387 -17.854  1.00  0.00     0.107 A 
HETATM    4  C3  UNL     1      65.550  -0.665 -18.379  1.00  0.00     0.105 A 
HETATM    5  N2  UNL     1      66.173  -1.690 -18.950  1.00  0.00    -0.362 N 
ATOM      6  H2  UNL     1      65.650  -2.473 -19.342  1.00  0.00     0.165 HD
HETATM    7  C4  UNL     1      67.534  -1.659 -18.997  1.00  0.00     0.072 A 
HETATM    8  C5  UNL     1      68.199  -2.733 -19.597  1.00  0.00     0.031 A 
HETATM    9  C6  UNL     1      69.573  -2.680 -19.632  1.00  0.00    -0.021 A 
HETATM   10  C7  UNL     1      70.237  -3.745 -20.227  1.00  0.00     0.013 A 
HETATM   11  C8  UNL     1      69.544  -4.813 -20.761  1.00  0.00     0.014 A 
HETATM   12  C9  UNL     1      68.159  -4.830 -20.706  1.00  0.00    -0.008 A 
HETATM   13  C10 UNL     1      67.404  -5.866 -21.219  1.00  0.00     0.027 A 
HETATM   14  C11 UNL     1      66.021  -5.828 -21.135  1.00  0.00    -0.009 A 
HETATM   15  C12 UNL     1      65.238  -6.857 -21.644  1.00  0.00     0.014 A 
HETATM   16  C13 UNL     1      63.862  -6.807 -21.554  1.00  0.00     0.001 A 
HETATM   17  C14 UNL     1      63.238  -5.746 -20.962  1.00  0.00     0.002 A 
HETATM   18  C15 UNL     1      63.977  -4.712 -20.449  1.00  0.00     0.030 A 
HETATM   19  C16 UNL     1      65.369  -4.771 -20.545  1.00  0.00     0.043 A 
HETATM   20  N3  UNL     1      66.122  -3.767 -20.048  1.00  0.00    -0.354 N 
ATOM     21  H3  UNL     1      65.660  -2.972 -19.606  1.00  0.00     0.166 HD
HETATM   22  C17 UNL     1      67.466  -3.785 -20.120  1.00  0.00     0.056 A 
HETATM   23  C18 UNL     1      70.241  -1.605 -19.094  1.00  0.00     0.014 A 
HETATM   24  C19 UNL     1      69.590  -0.542 -18.501  1.00  0.00     0.033 A 
HETATM   25  C20 UNL     1      68.221  -0.590 -18.463  1.00  0.00     0.061 A 
ENDROOT
TORSDOF 0
ENDMDL
MODEL 4
REMARK VINA RESULT: -10.155143356      0.964      5.837
REMARK  0 active torsions:
REMARK  status: ('A' for Active; 'I' for Inactive)
ROOT
HETATM    1  C1  UNL     1      63.344  -6.343 -21.283  1.00  0.00     0.156 C 
HETATM    2  N1  UNL     1      64.709  -5.931 -21.157  1.00  0.00    -0.358 N 
HETATM    3  C2  UNL     1      65.700  -6.698 -21.654  1.00  0.00     0.107 A 
HETATM    4  C3  UNL     1      67.016  -6.347 -21.559  1.00  0.00     0.105 A 
HETATM    5  N2  UNL     1      67.391  -5.218 -20.966  1.00  0.00    -0.362 N 
ATOM      6  H2  UNL     1      68.375  -4.960 -20.898  1.00  0.00     0.165 HD
HETATM    7  C4  UNL     1      66.416  -4.418 -20.453  1.00  0.00     0.072 A 
HETATM    8  C5  UNL     1      66.800  -3.228 -19.828  1.00  0.00     0.031 A 
HETATM    9  C6  UNL     1      65.798  -2.434 -19.317  1.00  0.00    -0.021 A 
HETATM   10  C7  UNL     1      66.176  -1.251 -18.695  1.00  0.00     0.013 A 
HETATM   11  C8  UNL     1      67.504  -0.888 -18.594  1.00  0.00     0.014 A 
HETATM   12  C9  UNL     1      68.484  -1.714 -19.121  1.00  0.00    -0.008 A 
HETATM   13  C10 UNL     1      69.830  -1.411 -19.055  1.00  0.00     0.027 A 
HETATM   14  C11 UNL     1      70.766  -2.276 -19.600  1.00  0.00    -0.009 A 
HETATM   15  C12 UNL     1      72.126  -1.995 -19.547  1.00  0.00     0.014 A 
HETATM   16  C13 UNL     1      73.048  -2.864 -20.094  1.00  0.00     0.001 A 
HETATM   17  C14 UNL     1      72.645  -4.022 -20.699  1.00  0.00     0.002 A 
HETATM   18  C15 UNL     1      71.312  -4.332 -20.771  1.00  0.00     0.030 A 
HETATM   19  C16 UNL     1      70.387  -3.446 -20.215  1.00  0.00     0.043 A 
HETATM   20  N3  UNL     1      69.068  -3.726 -20.271  1.00  0.00    -0.354 N 
ATOM     21  H3  UNL     1      68.762  -4.588 -20.722  1.00  0.00     0.166 HD
HETATM   22  C17 UNL     1      68.143  -2.899 -19.747  1.00  0.00     0.056 A 
HETATM   23  C18 UNL     1      64.483  -2.818 -19.430  1.00  0.00     0.014 A 
HETATM   24  C19 UNL     1      64.098  -3.992 -20.046  1.00  0.00     0.033 A 
HETATM   25  C20 UNL     1      65.091  -4.785 -20.557  1.00  0.00     0.061 A 
ENDROOT
TORSDOF 0
ENDMDL
MODEL 5
REMARK VINA RESULT: -9.946701812      2.214      6.381
REMARK  0 active torsions:
REMARK  status: ('A' for Active; 'I' for Inactive)
ROOT
HETATM    1  C1  UNL     1      64.052  -7.092 -21.621  1.00  0.00     0.156 C 
HETATM    2  N1  UNL     1      64.347  -5.851 -20.972  1.00  0.00    -0.358 N 
HETATM    3  C2  UNL     1      63.352  -5.087 -20.478  1.00  0.00     0.107 A 
HETATM    4  C3  UNL     1      63.583  -3.896 -19.852  1.00  0.00     0.105 A 
HETATM    5  N2  UNL     1      64.815  -3.424 -19.694  1.00  0.00    -0.362 N 
ATOM      6  H2  UNL     1      64.983  -2.534 -19.225  1.00  0.00     0.165 HD
HETATM    7  C4  UNL     1      65.846  -4.169 -20.180  1.00  0.00     0.072 A 
HETATM    8  C5  UNL     1      67.147  -3.681 -20.019  1.00  0.00     0.031 A 
HETATM    9  C6  UNL     1      68.173  -4.451 -20.518  1.00  0.00    -0.021 A 
HETATM   10  C7  UNL     1      69.466  -3.969 -20.360  1.00  0.00     0.013 A 
HETATM   11  C8  UNL     1      69.710  -2.766 -19.728  1.00  0.00     0.014 A 
HETATM   12  C9  UNL     1      68.650  -2.020 -19.239  1.00  0.00    -0.008 A 
HETATM   13  C10 UNL     1      68.822  -0.809 -18.597  1.00  0.00     0.027 A 
HETATM   14  C11 UNL     1      67.723  -0.106 -18.129  1.00  0.00    -0.009 A 
HETATM   15  C12 UNL     1      67.869   1.114 -17.480  1.00  0.00     0.014 A 
HETATM   16  C13 UNL     1      66.767   1.803 -17.018  1.00  0.00     0.001 A 
HETATM   17  C14 UNL     1      65.507   1.304 -17.189  1.00  0.00     0.002 A 
HETATM   18  C15 UNL     1      65.324   0.103 -17.824  1.00  0.00     0.030 A 
HETATM   19  C16 UNL     1      66.445  -0.587 -18.288  1.00  0.00     0.043 A 
HETATM   20  N3  UNL     1      66.294  -1.772 -18.917  1.00  0.00    -0.354 N 
ATOM     21  H3  UNL     1      65.355  -2.149 -19.047  1.00  0.00     0.166 HD
HETATM   22  C17 UNL     1      67.349  -2.470 -19.379  1.00  0.00     0.056 A 
HETATM   23  C18 UNL     1      67.904  -5.646 -21.143  1.00  0.00     0.014 A 
HETATM   24  C19 UNL     1      66.622  -6.132 -21.305  1.00  0.00     0.033 A 
HETATM   25  C20 UNL     1      65.597  -5.370 -20.810  1.00  0.00     0.061 A 
ENDROOT
TORSDOF 0
ENDMDL
