MODEL 1
REMARK VINA RESULT: -7.442395835      0.000      0.000
REMARK  4 active torsions:
REMARK  status: ('A' for Active; 'I' for Inactive)
REMARK    1  A    between atoms: C1_1  and  C8_10 
REMARK    2  A    between atoms: C2_2  and  C3_3 
REMARK    3  A    between atoms: C11_13  and  C12_14 
REMARK    4  A    between atoms: C13_15  and  C14_16 
ROOT
HETATM    1  C8  UNL     1      69.378  -3.413 -19.869  1.00  0.00     0.018 A 
HETATM    2  C9  UNL     1      70.591  -3.949 -20.176  1.00  0.00     0.022 A 
HETATM    3  C10 UNL     1      71.753  -3.267 -19.887  1.00  0.00     0.022 A 
HETATM    4  C11 UNL     1      71.743  -2.027 -19.284  1.00  0.00     0.018 A 
HETATM    5  C18 UNL     1      70.510  -1.472 -18.969  1.00  0.00     0.022 A 
HETATM    6  C19 UNL     1      69.352  -2.171 -19.266  1.00  0.00     0.022 A 
ENDROOT
BRANCH   1   7
HETATM    7  C1  UNL     1      68.179  -4.149 -20.182  1.00  0.00    -0.061 C 
HETATM    8  C2  UNL     1      67.167  -4.749 -20.453  1.00  0.00    -0.060 C 
BRANCH   8   9
HETATM    9  C3  UNL     1      65.955  -5.444 -20.792  1.00  0.00     0.033 A 
HETATM   10  C4  UNL     1      65.973  -6.716 -21.332  1.00  0.00     0.023 A 
HETATM   11  C5  UNL     1      64.817  -7.376 -21.655  1.00  0.00     0.019 A 
HETATM   12  C6  UNL     1      63.601  -6.775 -21.443  1.00  0.00     0.087 A 
HETATM   13  N1  UNL     1      63.571  -5.544 -20.918  1.00  0.00    -0.374 N 
HETATM   14  C7  UNL     1      64.699  -4.899 -20.604  1.00  0.00     0.108 A 
ATOM     15  H1  UNL     1      62.672  -5.090 -20.755  1.00  0.00     0.164 HD
ENDBRANCH   8   9
ENDBRANCH   1   7
BRANCH   4  16
HETATM   16  C12 UNL     1      72.954  -1.317 -18.984  1.00  0.00    -0.061 C 
HETATM   17  C13 UNL     1      73.983  -0.735 -18.720  1.00  0.00    -0.061 C 
BRANCH  17  18
HETATM   18  C14 UNL     1      75.244  -0.048 -18.388  1.00  0.00     0.025 A 
HETATM   19  C15 UNL     1      75.694   0.092 -17.121  1.00  0.00     0.028 A 
HETATM   20  C16 UNL     1      76.882   0.751 -16.950  1.00  0.00     0.051 A 
HETATM   21  S1  UNL     1      77.334   1.155 -18.540  1.00  0.00    -0.112 SA
HETATM   22  C17 UNL     1      76.015   0.482 -19.384  1.00  0.00     0.070 A 
ENDBRANCH  17  18
ENDBRANCH   4  16
TORSDOF 4
ENDMDL
MODEL 2
REMARK VINA RESULT: -7.412825813      0.212      1.050
REMARK  4 active torsions:
REMARK  status: ('A' for Active; 'I' for Inactive)
REMARK    1  A    between atoms: C1_1  and  C8_10 
REMARK    2  A    between atoms: C2_2  and  C3_3 
REMARK    3  A    between atoms: C11_13  and  C12_14 
REMARK    4  A    between atoms: C13_15  and  C14_16 
ROOT
HETATM    1  C8  UNL     1      69.402  -3.399 -19.904  1.00  0.00     0.018 A 
HETATM    2  C9  UNL     1      69.312  -2.183 -19.300  1.00  0.00     0.022 A 
HETATM    3  C10 UNL     1      70.449  -1.481 -18.961  1.00  0.00     0.022 A 
HETATM    4  C11 UNL     1      71.713  -1.971 -19.213  1.00  0.00     0.018 A 
HETATM    5  C18 UNL     1      71.814  -3.212 -19.828  1.00  0.00     0.022 A 
HETATM    6  C19 UNL     1      70.661  -3.903 -20.162  1.00  0.00     0.022 A 
ENDROOT
BRANCH   1   7
HETATM    7  C1  UNL     1      68.196  -4.110 -20.248  1.00  0.00    -0.061 C 
HETATM    8  C2  UNL     1      67.178  -4.701 -20.517  1.00  0.00    -0.060 C 
BRANCH   8   9
HETATM    9  C3  UNL     1      65.955  -5.392 -20.819  1.00  0.00     0.033 A 
HETATM   10  C4  UNL     1      65.951  -6.679 -21.324  1.00  0.00     0.023 A 
HETATM   11  C5  UNL     1      64.783  -7.334 -21.611  1.00  0.00     0.019 A 
HETATM   12  C6  UNL     1      63.577  -6.714 -21.398  1.00  0.00     0.087 A 
HETATM   13  N1  UNL     1      63.568  -5.469 -20.908  1.00  0.00    -0.374 N 
HETATM   14  C7  UNL     1      64.707  -4.828 -20.628  1.00  0.00     0.108 A 
ATOM     15  H1  UNL     1      62.676  -5.001 -20.745  1.00  0.00     0.164 HD
ENDBRANCH   8   9
ENDBRANCH   1   7
BRANCH   4  16
HETATM   16  C12 UNL     1      72.896  -1.240 -18.859  1.00  0.00    -0.061 C 
HETATM   17  C13 UNL     1      73.898  -0.637 -18.545  1.00  0.00    -0.061 C 
BRANCH  17  18
HETATM   18  C14 UNL     1      75.124   0.078 -18.146  1.00  0.00     0.025 A 
HETATM   19  C15 UNL     1      75.423   0.367 -16.861  1.00  0.00     0.028 A 
HETATM   20  C16 UNL     1      76.595   1.035 -16.627  1.00  0.00     0.051 A 
HETATM   21  S1  UNL     1      77.241   1.242 -18.187  1.00  0.00    -0.112 SA
HETATM   22  C17 UNL     1      76.020   0.480 -19.098  1.00  0.00     0.070 A 
ENDBRANCH  17  18
ENDBRANCH   4  16
TORSDOF 4
ENDMDL
MODEL 3
REMARK VINA RESULT: -7.228871781      0.587      1.048
REMARK  4 active torsions:
REMARK  status: ('A' for Active; 'I' for Inactive)
REMARK    1  A    between atoms: C1_1  and  C8_10 
REMARK    2  A    between atoms: C2_2  and  C3_3 
REMARK    3  A    between atoms: C11_13  and  C12_14 
REMARK    4  A    between atoms: C13_15  and  C14_16 
ROOT
HETATM    1  C8  UNL     1      69.394  -3.327 -19.865  1.00  0.00     0.018 A 
HETATM    2  C9  UNL     1      70.587  -3.924 -20.134  1.00  0.00     0.022 A 
HETATM    3  C10 UNL     1      71.773  -3.294 -19.824  1.00  0.00     0.022 A 
HETATM    4  C11 UNL     1      71.808  -2.047 -19.236  1.00  0.00     0.018 A 
HETATM    5  C18 UNL     1      70.594  -1.430 -18.960  1.00  0.00     0.022 A 
HETATM    6  C19 UNL     1      69.413  -2.077 -19.278  1.00  0.00     0.022 A 
ENDROOT
BRANCH   1   7
HETATM    7  C1  UNL     1      68.169  -4.009 -20.200  1.00  0.00    -0.061 C 
HETATM    8  C2  UNL     1      67.133  -4.567 -20.469  1.00  0.00    -0.060 C 
BRANCH   8   9
HETATM    9  C3  UNL     1      65.887  -5.211 -20.783  1.00  0.00     0.033 A 
HETATM   10  C4  UNL     1      64.673  -4.669 -20.403  1.00  0.00     0.023 A 
HETATM   11  C5  UNL     1      63.487  -5.286 -20.703  1.00  0.00     0.019 A 
HETATM   12  C6  UNL     1      63.484  -6.470 -21.398  1.00  0.00     0.087 A 
HETATM   13  N1  UNL     1      64.653  -7.003 -21.771  1.00  0.00    -0.374 N 
HETATM   14  C7  UNL     1      65.812  -6.403 -21.478  1.00  0.00     0.108 A 
ATOM     15  H1  UNL     1      64.661  -7.882 -22.289  1.00  0.00     0.164 HD
ENDBRANCH   8   9
ENDBRANCH   1   7
BRANCH   4  16
HETATM   16  C12 UNL     1      73.043  -1.392 -18.915  1.00  0.00    -0.061 C 
HETATM   17  C13 UNL     1      74.086  -0.848 -18.625  1.00  0.00    -0.061 C 
BRANCH  17  18
HETATM   18  C14 UNL     1      75.357  -0.202 -18.250  1.00  0.00     0.025 A 
HETATM   19  C15 UNL     1      75.642   0.184 -16.987  1.00  0.00     0.028 A 
HETATM   20  C16 UNL     1      76.859   0.773 -16.774  1.00  0.00     0.051 A 
HETATM   21  S1  UNL     1      77.566   0.774 -18.322  1.00  0.00    -0.112 SA
HETATM   22  C17 UNL     1      76.310   0.031 -19.201  1.00  0.00     0.070 A 
ENDBRANCH  17  18
ENDBRANCH   4  16
TORSDOF 4
ENDMDL
MODEL 4
REMARK VINA RESULT: -7.215243105      0.595      1.461
REMARK  4 active torsions:
REMARK  status: ('A' for Active; 'I' for Inactive)
REMARK    1  A    between atoms: C1_1  and  C8_10 
REMARK    2  A    between atoms: C2_2  and  C3_3 
REMARK    3  A    between atoms: C11_13  and  C12_14 
REMARK    4  A    between atoms: C13_15  and  C14_16 
ROOT
HETATM    1  C8  UNL     1      69.420  -3.368 -19.900  1.00  0.00     0.018 A 
HETATM    2  C9  UNL     1      69.346  -2.141 -19.318  1.00  0.00     0.022 A 
HETATM    3  C10 UNL     1      70.493  -1.452 -18.984  1.00  0.00     0.022 A 
HETATM    4  C11 UNL     1      71.750  -1.967 -19.219  1.00  0.00     0.018 A 
HETATM    5  C18 UNL     1      71.834  -3.221 -19.812  1.00  0.00     0.022 A 
HETATM    6  C19 UNL     1      70.672  -3.898 -20.141  1.00  0.00     0.022 A 
ENDROOT
BRANCH   1   7
HETATM    7  C1  UNL     1      68.204  -4.065 -20.239  1.00  0.00    -0.061 C 
HETATM    8  C2  UNL     1      67.176  -4.636 -20.511  1.00  0.00    -0.060 C 
BRANCH   8   9
HETATM    9  C3  UNL     1      65.938  -5.296 -20.826  1.00  0.00     0.033 A 
HETATM   10  C4  UNL     1      64.717  -4.770 -20.448  1.00  0.00     0.023 A 
HETATM   11  C5  UNL     1      63.539  -5.402 -20.749  1.00  0.00     0.019 A 
HETATM   12  C6  UNL     1      63.552  -6.586 -21.443  1.00  0.00     0.087 A 
HETATM   13  N1  UNL     1      64.729  -7.104 -21.815  1.00  0.00    -0.374 N 
HETATM   14  C7  UNL     1      65.879  -6.489 -21.521  1.00  0.00     0.108 A 
ATOM     15  H1  UNL     1      64.749  -7.983 -22.333  1.00  0.00     0.164 HD
ENDBRANCH   8   9
ENDBRANCH   1   7
BRANCH   4  16
HETATM   16  C12 UNL     1      72.943  -1.250 -18.870  1.00  0.00    -0.061 C 
HETATM   17  C13 UNL     1      73.953  -0.658 -18.561  1.00  0.00    -0.061 C 
BRANCH  17  18
HETATM   18  C14 UNL     1      75.189   0.043 -18.167  1.00  0.00     0.025 A 
HETATM   19  C15 UNL     1      75.485   0.348 -16.885  1.00  0.00     0.028 A 
HETATM   20  C16 UNL     1      76.667   1.000 -16.655  1.00  0.00     0.051 A 
HETATM   21  S1  UNL     1      77.325   1.170 -18.215  1.00  0.00    -0.112 SA
HETATM   22  C17 UNL     1      76.096   0.414 -19.120  1.00  0.00     0.070 A 
ENDBRANCH  17  18
ENDBRANCH   4  16
TORSDOF 4
ENDMDL
MODEL 5
REMARK VINA RESULT: -7.076156067      4.792     10.467
REMARK  4 active torsions:
REMARK  status: ('A' for Active; 'I' for Inactive)
REMARK    1  A    between atoms: C1_1  and  C8_10 
REMARK    2  A    between atoms: C2_2  and  C3_3 
REMARK    3  A    between atoms: C11_13  and  C12_14 
REMARK    4  A    between atoms: C13_15  and  C14_16 
ROOT
HETATM    1  C8  UNL     1      71.539  -2.173 -19.377  1.00  0.00     0.018 A 
HETATM    2  C9  UNL     1      71.624  -3.376 -20.007  1.00  0.00     0.022 A 
HETATM    3  C10 UNL     1      70.486  -4.082 -20.328  1.00  0.00     0.022 A 
HETATM    4  C11 UNL     1      69.224  -3.612 -20.029  1.00  0.00     0.018 A 
HETATM    5  C18 UNL     1      69.129  -2.386 -19.385  1.00  0.00     0.022 A 
HETATM    6  C19 UNL     1      70.283  -1.689 -19.070  1.00  0.00     0.022 A 
ENDROOT
BRANCH   1   7
HETATM    7  C1  UNL     1      72.747  -1.455 -19.054  1.00  0.00    -0.061 C 
HETATM    8  C2  UNL     1      73.768  -0.872 -18.779  1.00  0.00    -0.060 C 
BRANCH   8   9
HETATM    9  C3  UNL     1      74.997  -0.200 -18.457  1.00  0.00     0.033 A 
HETATM   10  C4  UNL     1      75.962   0.052 -19.413  1.00  0.00     0.023 A 
HETATM   11  C5  UNL     1      77.132   0.692 -19.102  1.00  0.00     0.019 A 
HETATM   12  C6  UNL     1      77.370   1.101 -17.813  1.00  0.00     0.087 A 
HETATM   13  N1  UNL     1      76.442   0.863 -16.878  1.00  0.00    -0.374 N 
HETATM   14  C7  UNL     1      75.300   0.238 -17.181  1.00  0.00     0.108 A 
ATOM     15  H1  UNL     1      76.609   1.165 -15.918  1.00  0.00     0.164 HD
ENDBRANCH   8   9
ENDBRANCH   1   7
BRANCH   4  16
HETATM   16  C12 UNL     1      68.039  -4.349 -20.363  1.00  0.00    -0.061 C 
HETATM   17  C13 UNL     1      67.028  -4.959 -20.633  1.00  0.00    -0.061 C 
BRANCH  17  18
HETATM   18  C14 UNL     1      65.783  -5.682 -20.950  1.00  0.00     0.025 A 
HETATM   19  C15 UNL     1      65.765  -6.963 -21.379  1.00  0.00     0.028 A 
HETATM   20  C16 UNL     1      64.540  -7.517 -21.637  1.00  0.00     0.051 A 
HETATM   21  S1  UNL     1      63.458  -6.253 -21.279  1.00  0.00    -0.112 SA
HETATM   22  C17 UNL     1      64.576  -5.055 -20.812  1.00  0.00     0.070 A 
ENDBRANCH  17  18
ENDBRANCH   4  16
TORSDOF 4
ENDMDL
