MODEL 1
REMARK VINA RESULT: -11.025303267      0.000      0.000
REMARK  1 active torsions:
REMARK  status: ('A' for Active; 'I' for Inactive)
REMARK    1  A    between atoms: O1_1  and  N1_3 
ROOT
HETATM    1  N1  UNL     1      71.729  -4.089 -20.619  1.00  0.00    -0.235 N 
HETATM    2  C1  UNL     1      73.033  -3.718 -20.516  1.00  0.00     0.123 A 
HETATM    3  C2  UNL     1      73.385  -2.550 -19.899  1.00  0.00     0.021 A 
HETATM    4  C3  UNL     1      72.390  -1.755 -19.386  1.00  0.00     0.015 A 
HETATM    5  C4  UNL     1      71.055  -2.139 -19.493  1.00  0.00    -0.006 A 
HETATM    6  C5  UNL     1      70.046  -1.342 -18.977  1.00  0.00     0.014 A 
HETATM    7  C6  UNL     1      68.721  -1.733 -19.090  1.00  0.00     0.014 A 
HETATM    8  C7  UNL     1      68.475  -2.919 -19.723  1.00  0.00    -0.009 A 
HETATM    9  C8  UNL     1      69.414  -3.739 -20.247  1.00  0.00    -0.012 A 
HETATM   10  C9  UNL     1      70.732  -3.323 -20.120  1.00  0.00     0.079 A 
HETATM   11  C10 UNL     1      68.815  -4.933 -20.858  1.00  0.00     0.082 A 
HETATM   12  C11 UNL     1      67.313  -4.752 -20.642  1.00  0.00    -0.024 A 
HETATM   13  C12 UNL     1      67.168  -3.576 -19.984  1.00  0.00     0.024 A 
HETATM   14  S1  UNL     1      65.475  -3.446 -19.781  1.00  0.00    -0.088 SA
HETATM   15  C13 UNL     1      64.992  -4.897 -20.543  1.00  0.00     0.016 A 
HETATM   16  C14 UNL     1      63.752  -5.510 -20.785  1.00  0.00     0.019 A 
HETATM   17  C15 UNL     1      63.677  -6.715 -21.442  1.00  0.00     0.001 A 
HETATM   18  C16 UNL     1      64.863  -7.284 -21.846  1.00  0.00     0.001 A 
HETATM   19  C17 UNL     1      66.064  -6.681 -21.607  1.00  0.00     0.013 A 
HETATM   20  C18 UNL     1      66.173  -5.448 -20.937  1.00  0.00    -0.011 A 
ENDROOT
BRANCH   1  21
HETATM   21  O1  UNL     1      71.369  -5.261 -21.236  1.00  0.00    -0.283 OA
ATOM     22  H1  UNL     1      71.137  -5.281 -22.157  1.00  0.00     0.245 HD
ENDBRANCH   1  21
TORSDOF 1
ENDMDL
MODEL 2
REMARK VINA RESULT: -10.125723919      2.111      6.539
REMARK  1 active torsions:
REMARK  status: ('A' for Active; 'I' for Inactive)
REMARK    1  A    between atoms: O1_1  and  N1_3 
ROOT
HETATM    1  N1  UNL     1      65.721  -6.231 -21.332  1.00  0.00    -0.235 N 
HETATM    2  C1  UNL     1      64.563  -6.887 -21.613  1.00  0.00     0.123 A 
HETATM    3  C2  UNL     1      63.354  -6.364 -21.248  1.00  0.00     0.021 A 
HETATM    4  C3  UNL     1      63.333  -5.159 -20.590  1.00  0.00     0.015 A 
HETATM    5  C4  UNL     1      64.521  -4.491 -20.306  1.00  0.00    -0.006 A 
HETATM    6  C5  UNL     1      64.508  -3.274 -19.643  1.00  0.00     0.014 A 
HETATM    7  C6  UNL     1      65.696  -2.618 -19.365  1.00  0.00     0.014 A 
HETATM    8  C7  UNL     1      66.851  -3.224 -19.771  1.00  0.00    -0.009 A 
HETATM    9  C8  UNL     1      66.930  -4.408 -20.420  1.00  0.00    -0.012 A 
HETATM   10  C9  UNL     1      65.725  -5.044 -20.686  1.00  0.00     0.079 A 
HETATM   11  C10 UNL     1      68.321  -4.777 -20.713  1.00  0.00     0.082 A 
HETATM   12  C11 UNL     1      69.145  -3.624 -20.140  1.00  0.00    -0.024 A 
HETATM   13  C12 UNL     1      68.252  -2.755 -19.608  1.00  0.00     0.024 A 
HETATM   14  S1  UNL     1      69.241  -1.503 -18.993  1.00  0.00    -0.088 SA
HETATM   15  C13 UNL     1      70.773  -2.122 -19.429  1.00  0.00     0.016 A 
HETATM   16  C14 UNL     1      72.093  -1.669 -19.270  1.00  0.00     0.019 A 
HETATM   17  C15 UNL     1      73.154  -2.406 -19.742  1.00  0.00     0.001 A 
HETATM   18  C16 UNL     1      72.861  -3.595 -20.370  1.00  0.00     0.001 A 
HETATM   19  C17 UNL     1      71.575  -4.027 -20.520  1.00  0.00     0.013 A 
HETATM   20  C18 UNL     1      70.469  -3.295 -20.049  1.00  0.00    -0.011 A 
ENDROOT
BRANCH   1  21
HETATM   21  O1  UNL     1      66.939  -6.752 -21.696  1.00  0.00    -0.283 OA
ATOM     22  H1  UNL     1      67.731  -6.230 -21.647  1.00  0.00     0.245 HD
ENDBRANCH   1  21
TORSDOF 1
ENDMDL
MODEL 3
REMARK VINA RESULT: -9.598055878      1.678      2.281
REMARK  1 active torsions:
REMARK  status: ('A' for Active; 'I' for Inactive)
REMARK    1  A    between atoms: O1_1  and  N1_3 
ROOT
HETATM    1  N1  UNL     1      70.356  -1.880 -19.154  1.00  0.00    -0.235 N 
HETATM    2  C1  UNL     1      71.371  -1.063 -18.768  1.00  0.00     0.123 A 
HETATM    3  C2  UNL     1      71.117   0.138 -18.167  1.00  0.00     0.021 A 
HETATM    4  C3  UNL     1      69.810   0.505 -17.963  1.00  0.00     0.015 A 
HETATM    5  C4  UNL     1      68.772  -0.336 -18.360  1.00  0.00    -0.006 A 
HETATM    6  C5  UNL     1      67.450   0.027 -18.157  1.00  0.00     0.014 A 
HETATM    7  C6  UNL     1      66.426  -0.817 -18.557  1.00  0.00     0.014 A 
HETATM    8  C7  UNL     1      66.786  -1.995 -19.148  1.00  0.00    -0.009 A 
HETATM    9  C8  UNL     1      68.054  -2.405 -19.373  1.00  0.00    -0.012 A 
HETATM   10  C9  UNL     1      69.061  -1.540 -18.963  1.00  0.00     0.079 A 
HETATM   11  C10 UNL     1      68.094  -3.720 -20.027  1.00  0.00     0.082 A 
HETATM   12  C11 UNL     1      66.624  -4.103 -20.190  1.00  0.00    -0.024 A 
HETATM   13  C12 UNL     1      65.910  -3.076 -19.668  1.00  0.00     0.024 A 
HETATM   14  S1  UNL     1      64.289  -3.575 -19.887  1.00  0.00    -0.088 SA
HETATM   15  C13 UNL     1      64.562  -5.084 -20.641  1.00  0.00     0.016 A 
HETATM   16  C14 UNL     1      63.725  -6.100 -21.129  1.00  0.00     0.019 A 
HETATM   17  C15 UNL     1      64.252  -7.234 -21.701  1.00  0.00     0.001 A 
HETATM   18  C16 UNL     1      65.623  -7.323 -21.769  1.00  0.00     0.001 A 
HETATM   19  C17 UNL     1      66.430  -6.330 -21.291  1.00  0.00     0.013 A 
HETATM   20  C18 UNL     1      65.920  -5.159 -20.701  1.00  0.00    -0.011 A 
ENDROOT
BRANCH   1  21
HETATM   21  O1  UNL     1      70.605  -3.088 -19.758  1.00  0.00    -0.283 OA
ATOM     22  H1  UNL     1      70.961  -3.819 -19.268  1.00  0.00     0.245 HD
ENDBRANCH   1  21
TORSDOF 1
ENDMDL
MODEL 4
REMARK VINA RESULT: -9.583799998      0.914      1.178
REMARK  1 active torsions:
REMARK  status: ('A' for Active; 'I' for Inactive)
REMARK    1  A    between atoms: O1_1  and  N1_3 
ROOT
HETATM    1  N1  UNL     1      72.636  -3.540 -20.052  1.00  0.00    -0.235 N 
HETATM    2  C1  UNL     1      73.942  -3.193 -19.902  1.00  0.00     0.123 A 
HETATM    3  C2  UNL     1      74.291  -1.995 -19.344  1.00  0.00     0.021 A 
HETATM    4  C3  UNL     1      73.291  -1.146 -18.939  1.00  0.00     0.015 A 
HETATM    5  C4  UNL     1      71.955  -1.506 -19.094  1.00  0.00    -0.006 A 
HETATM    6  C5  UNL     1      70.940  -0.654 -18.686  1.00  0.00     0.014 A 
HETATM    7  C6  UNL     1      69.614  -1.022 -18.847  1.00  0.00     0.014 A 
HETATM    8  C7  UNL     1      69.371  -2.241 -19.415  1.00  0.00    -0.009 A 
HETATM    9  C8  UNL     1      70.315  -3.115 -19.832  1.00  0.00    -0.012 A 
HETATM   10  C9  UNL     1      71.635  -2.721 -19.660  1.00  0.00     0.079 A 
HETATM   11  C10 UNL     1      69.719  -4.333 -20.396  1.00  0.00     0.082 A 
HETATM   12  C11 UNL     1      68.212  -4.105 -20.276  1.00  0.00    -0.024 A 
HETATM   13  C12 UNL     1      68.063  -2.885 -19.704  1.00  0.00     0.024 A 
HETATM   14  S1  UNL     1      66.366  -2.704 -19.603  1.00  0.00    -0.088 SA
HETATM   15  C13 UNL     1      65.887  -4.190 -20.296  1.00  0.00     0.016 A 
HETATM   16  C14 UNL     1      64.646  -4.790 -20.565  1.00  0.00     0.019 A 
HETATM   17  C15 UNL     1      64.575  -6.034 -21.146  1.00  0.00     0.001 A 
HETATM   18  C16 UNL     1      65.765  -6.655 -21.447  1.00  0.00     0.001 A 
HETATM   19  C17 UNL     1      66.967  -6.065 -21.181  1.00  0.00     0.013 A 
HETATM   20  C18 UNL     1      67.072  -4.793 -20.587  1.00  0.00    -0.011 A 
ENDROOT
BRANCH   1  21
HETATM   21  O1  UNL     1      72.280  -4.743 -20.612  1.00  0.00    -0.283 OA
ATOM     22  H1  UNL     1      71.387  -4.911 -20.888  1.00  0.00     0.245 HD
ENDBRANCH   1  21
TORSDOF 1
ENDMDL
MODEL 5
REMARK VINA RESULT: -9.543112730      2.019      6.573
REMARK  1 active torsions:
REMARK  status: ('A' for Active; 'I' for Inactive)
REMARK    1  A    between atoms: O1_1  and  N1_3 
ROOT
HETATM    1  N1  UNL     1      66.286  -6.148 -21.244  1.00  0.00    -0.235 N 
HETATM    2  C1  UNL     1      65.397  -7.078 -21.684  1.00  0.00     0.123 A 
HETATM    3  C2  UNL     1      64.051  -6.890 -21.533  1.00  0.00     0.021 A 
HETATM    4  C3  UNL     1      63.615  -5.740 -20.924  1.00  0.00     0.015 A 
HETATM    5  C4  UNL     1      64.529  -4.789 -20.476  1.00  0.00    -0.006 A 
HETATM    6  C5  UNL     1      64.096  -3.625 -19.862  1.00  0.00     0.014 A 
HETATM    7  C6  UNL     1      65.014  -2.687 -19.419  1.00  0.00     0.014 A 
HETATM    8  C7  UNL     1      66.336  -2.968 -19.617  1.00  0.00    -0.009 A 
HETATM    9  C8  UNL     1      66.821  -4.083 -20.209  1.00  0.00    -0.012 A 
HETATM   10  C9  UNL     1      65.879  -5.007 -20.643  1.00  0.00     0.079 A 
HETATM   11  C10 UNL     1      68.289  -4.076 -20.265  1.00  0.00     0.082 A 
HETATM   12  C11 UNL     1      68.684  -2.756 -19.605  1.00  0.00    -0.024 A 
HETATM   13  C12 UNL     1      67.523  -2.154 -19.249  1.00  0.00     0.024 A 
HETATM   14  S1  UNL     1      68.044  -0.695 -18.524  1.00  0.00    -0.088 SA
HETATM   15  C13 UNL     1      69.733  -0.891 -18.692  1.00  0.00     0.016 A 
HETATM   16  C14 UNL     1      70.848  -0.112 -18.339  1.00  0.00     0.019 A 
HETATM   17  C15 UNL     1      72.125  -0.544 -18.613  1.00  0.00     0.001 A 
HETATM   18  C16 UNL     1      72.253  -1.761 -19.243  1.00  0.00     0.001 A 
HETATM   19  C17 UNL     1      71.164  -2.511 -19.582  1.00  0.00     0.013 A 
HETATM   20  C18 UNL     1      69.846  -2.095 -19.315  1.00  0.00    -0.011 A 
ENDROOT
BRANCH   1  21
HETATM   21  O1  UNL     1      67.639  -6.330 -21.393  1.00  0.00    -0.283 OA
ATOM     22  H1  UNL     1      68.260  -5.690 -21.069  1.00  0.00     0.245 HD
ENDBRANCH   1  21
TORSDOF 1
ENDMDL
