MODEL 1
REMARK VINA RESULT: -8.030070017      0.000      0.000
REMARK  7 active torsions:
REMARK  status: ('A' for Active; 'I' for Inactive)
REMARK    1  A    between atoms: C2_2  and  O1_3 
REMARK    2  A    between atoms: O1_3  and  C3_4 
REMARK    3  A    between atoms: C3_4  and  C4_6 
REMARK    4  A    between atoms: C4_6  and  N1_7 
REMARK       I    between atoms: N1_7  and  C5_9 
REMARK       I    between atoms: C5_9  and  N2_11 
REMARK    5  A    between atoms: C9_15  and  C10_16 
REMARK       I    between atoms: C10_16  and  N3_18 
REMARK    6  A    between atoms: C11_19  and  O5_20 
REMARK    7  A    between atoms: O5_20  and  C12_21 
ROOT
HETATM    1  C10 UNL     1      10.836  20.151  48.466  1.00  0.00     0.245 C 
HETATM    2  O4  UNL     1      11.675  20.410  47.545  1.00  0.00    -0.271 OA
HETATM    3  N3  UNL     1       9.736  21.004  48.612  1.00  0.00    -0.317 N 
HETATM    4  C11 UNL     1       8.649  20.874  49.586  1.00  0.00     0.237 C 
HETATM    5  C14 UNL     1       8.140  22.278  49.824  1.00  0.00     0.075 C 
HETATM    6  C15 UNL     1       9.044  23.125  49.018  1.00  0.00     0.062 C 
HETATM    7  C16 UNL     1      10.250  23.569  49.796  1.00  0.00     0.028 C 
HETATM    8  C17 UNL     1       8.416  24.307  48.406  1.00  0.00     0.230 C 
HETATM    9  O7  UNL     1       7.333  24.821  48.740  1.00  0.00    -0.272 OA
HETATM   10  N4  UNL     1       9.168  24.890  47.319  1.00  0.00    -0.347 N 
HETATM   11  C18 UNL     1       9.027  26.315  47.011  1.00  0.00     0.153 C 
HETATM   12  C19 UNL     1      10.061  24.128  46.510  1.00  0.00     0.029 C 
HETATM   13  C20 UNL     1       9.479  23.914  45.111  1.00  0.00     0.038 C 
HETATM   14  C21 UNL     1      11.320  24.975  46.307  1.00  0.00     0.038 C 
HETATM   15  C22 UNL     1      10.506  22.814  47.092  1.00  0.00     0.057 C 
HETATM   16  C23 UNL     1       9.417  22.196  47.864  1.00  0.00     0.109 C 
ENDROOT
BRANCH   1  17
HETATM   17  C9  UNL     1      11.121  18.952  49.293  1.00  0.00     0.181 C 
HETATM   18  N2  UNL     1      12.541  18.582  49.193  1.00  0.00    -0.321 N 
HETATM   19  C5  UNL     1      13.116  17.513  48.452  1.00  0.00     0.319 C 
HETATM   20  C6  UNL     1      13.260  19.535  50.013  1.00  0.00     0.129 C 
HETATM   21  N1  UNL     1      12.351  16.623  47.669  1.00  0.00    -0.334 N 
HETATM   22  O3  UNL     1      14.382  17.377  48.516  1.00  0.00    -0.247 OA
ATOM     23  H1  UNL     1      11.341  16.767  47.648  1.00  0.00     0.164 HD
HETATM   24  C7  UNL     1      12.268  20.141  50.951  1.00  0.00     0.022 C 
HETATM   25  C8  UNL     1      11.045  19.236  50.783  1.00  0.00     0.037 C 
BRANCH  21  26
HETATM   26  C4  UNL     1      12.871  15.540  46.907  1.00  0.00     0.235 C 
BRANCH  26  27
HETATM   27  C3  UNL     1      13.387  15.959  45.584  1.00  0.00     0.276 C 
HETATM   28  O2  UNL     1      14.625  16.005  45.390  1.00  0.00    -0.263 OA
BRANCH  27  29
HETATM   29  O1  UNL     1      12.554  16.303  44.541  1.00  0.00    -0.321 OA
BRANCH  29  30
HETATM   30  C2  UNL     1      12.937  17.080  43.434  1.00  0.00     0.174 C 
HETATM   31  C1  UNL     1      12.915  16.263  42.184  1.00  0.00     0.034 C 
ENDBRANCH  29  30
ENDBRANCH  27  29
ENDBRANCH  26  27
ENDBRANCH  21  26
ENDBRANCH   1  17
BRANCH   4  32
HETATM   32  O5  UNL     1       7.558  20.151  49.045  1.00  0.00    -0.295 OA
BRANCH  32  33
HETATM   33  C12 UNL     1       7.236  18.943  49.648  1.00  0.00     0.256 C 
HETATM   34  C13 UNL     1       6.422  17.904  48.953  1.00  0.00     0.126 C 
HETATM   35  O6  UNL     1       7.614  18.662  50.814  1.00  0.00    -0.266 OA
ENDBRANCH  32  33
ENDBRANCH   4  32
TORSDOF 7
ENDMDL
MODEL 2
REMARK VINA RESULT: -7.889494304      1.727      2.361
REMARK  7 active torsions:
REMARK  status: ('A' for Active; 'I' for Inactive)
REMARK    1  A    between atoms: C2_2  and  O1_3 
REMARK    2  A    between atoms: O1_3  and  C3_4 
REMARK    3  A    between atoms: C3_4  and  C4_6 
REMARK    4  A    between atoms: C4_6  and  N1_7 
REMARK       I    between atoms: N1_7  and  C5_9 
REMARK       I    between atoms: C5_9  and  N2_11 
REMARK    5  A    between atoms: C9_15  and  C10_16 
REMARK       I    between atoms: C10_16  and  N3_18 
REMARK    6  A    between atoms: C11_19  and  O5_20 
REMARK    7  A    between atoms: O5_20  and  C12_21 
ROOT
HETATM    1  C10 UNL     1      10.323  19.867  47.036  1.00  0.00     0.245 C 
HETATM    2  O4  UNL     1      10.846  20.645  46.175  1.00  0.00    -0.271 OA
HETATM    3  N3  UNL     1       9.408  20.412  47.944  1.00  0.00    -0.317 N 
HETATM    4  C11 UNL     1       8.680  19.693  48.993  1.00  0.00     0.237 C 
HETATM    5  C14 UNL     1       8.401  20.715  50.073  1.00  0.00     0.075 C 
HETATM    6  C15 UNL     1       9.074  21.938  49.587  1.00  0.00     0.062 C 
HETATM    7  C16 UNL     1      10.499  22.024  50.054  1.00  0.00     0.028 C 
HETATM    8  C17 UNL     1       8.392  23.200  49.916  1.00  0.00     0.230 C 
HETATM    9  O7  UNL     1       7.522  23.361  50.791  1.00  0.00    -0.272 OA
HETATM   10  N4  UNL     1       8.808  24.331  49.118  1.00  0.00    -0.347 N 
HETATM   11  C18 UNL     1       8.705  25.688  49.660  1.00  0.00     0.153 C 
HETATM   12  C19 UNL     1       9.326  24.187  47.798  1.00  0.00     0.029 C 
HETATM   13  C20 UNL     1       8.312  24.677  46.761  1.00  0.00     0.038 C 
HETATM   14  C21 UNL     1      10.525  25.131  47.678  1.00  0.00     0.038 C 
HETATM   15  C22 UNL     1       9.813  22.812  47.435  1.00  0.00     0.057 C 
HETATM   16  C23 UNL     1       8.975  21.783  48.071  1.00  0.00     0.109 C 
ENDROOT
BRANCH   1  17
HETATM   17  C9  UNL     1      10.747  18.446  46.978  1.00  0.00     0.181 C 
HETATM   18  N2  UNL     1      12.182  18.348  46.669  1.00  0.00    -0.321 N 
HETATM   19  C5  UNL     1      12.788  17.993  45.433  1.00  0.00     0.319 C 
HETATM   20  C6  UNL     1      12.878  18.689  47.893  1.00  0.00     0.129 C 
HETATM   21  N1  UNL     1      12.044  17.676  44.277  1.00  0.00    -0.334 N 
HETATM   22  O3  UNL     1      14.062  17.970  45.396  1.00  0.00    -0.247 OA
ATOM     23  H1  UNL     1      11.027  17.705  44.352  1.00  0.00     0.164 HD
HETATM   24  C7  UNL     1      11.904  18.517  49.013  1.00  0.00     0.022 C 
HETATM   25  C8  UNL     1      10.744  17.778  48.342  1.00  0.00     0.037 C 
BRANCH  21  26
HETATM   26  C4  UNL     1      12.595  17.317  43.015  1.00  0.00     0.235 C 
BRANCH  26  27
HETATM   27  C3  UNL     1      12.790  15.858  42.861  1.00  0.00     0.276 C 
HETATM   28  O2  UNL     1      12.169  15.243  41.962  1.00  0.00    -0.263 OA
BRANCH  27  29
HETATM   29  O1  UNL     1      13.637  15.136  43.674  1.00  0.00    -0.321 OA
BRANCH  29  30
HETATM   30  C2  UNL     1      15.032  15.063  43.514  1.00  0.00     0.174 C 
HETATM   31  C1  UNL     1      15.715  15.045  44.842  1.00  0.00     0.034 C 
ENDBRANCH  29  30
ENDBRANCH  27  29
ENDBRANCH  26  27
ENDBRANCH  21  26
ENDBRANCH   1  17
BRANCH   4  32
HETATM   32  O5  UNL     1       7.413  19.257  48.533  1.00  0.00    -0.295 OA
BRANCH  32  33
HETATM   33  C12 UNL     1       6.892  18.105  49.106  1.00  0.00     0.256 C 
HETATM   34  C13 UNL     1       6.949  16.783  48.416  1.00  0.00     0.126 C 
HETATM   35  O6  UNL     1       6.346  18.116  50.238  1.00  0.00    -0.266 OA
ENDBRANCH  32  33
ENDBRANCH   4  32
TORSDOF 7
ENDMDL
MODEL 3
REMARK VINA RESULT: -7.537718462      1.852      2.487
REMARK  7 active torsions:
REMARK  status: ('A' for Active; 'I' for Inactive)
REMARK    1  A    between atoms: C2_2  and  O1_3 
REMARK    2  A    between atoms: O1_3  and  C3_4 
REMARK    3  A    between atoms: C3_4  and  C4_6 
REMARK    4  A    between atoms: C4_6  and  N1_7 
REMARK       I    between atoms: N1_7  and  C5_9 
REMARK       I    between atoms: C5_9  and  N2_11 
REMARK    5  A    between atoms: C9_15  and  C10_16 
REMARK       I    between atoms: C10_16  and  N3_18 
REMARK    6  A    between atoms: C11_19  and  O5_20 
REMARK    7  A    between atoms: O5_20  and  C12_21 
ROOT
HETATM    1  C10 UNL     1      10.797  19.260  46.522  1.00  0.00     0.245 C 
HETATM    2  O4  UNL     1      11.465  19.907  45.654  1.00  0.00    -0.271 OA
HETATM    3  N3  UNL     1       9.800  19.944  47.229  1.00  0.00    -0.317 N 
HETATM    4  C11 UNL     1       8.908  19.384  48.248  1.00  0.00     0.237 C 
HETATM    5  C14 UNL     1       8.544  20.540  49.153  1.00  0.00     0.075 C 
HETATM    6  C15 UNL     1       9.334  21.670  48.622  1.00  0.00     0.062 C 
HETATM    7  C16 UNL     1      10.690  21.765  49.263  1.00  0.00     0.028 C 
HETATM    8  C17 UNL     1       8.680  22.986  48.706  1.00  0.00     0.230 C 
HETATM    9  O7  UNL     1       7.714  23.284  49.431  1.00  0.00    -0.272 OA
HETATM   10  N4  UNL     1       9.252  23.995  47.844  1.00  0.00    -0.347 N 
HETATM   11  C18 UNL     1       9.148  25.411  48.204  1.00  0.00     0.153 C 
HETATM   12  C19 UNL     1       9.928  23.673  46.631  1.00  0.00     0.029 C 
HETATM   13  C20 UNL     1       9.083  24.066  45.417  1.00  0.00     0.038 C 
HETATM   14  C21 UNL     1      11.179  24.553  46.564  1.00  0.00     0.038 C 
HETATM   15  C22 UNL     1      10.388  22.247  46.502  1.00  0.00     0.057 C 
HETATM   16  C23 UNL     1       9.425  21.333  47.135  1.00  0.00     0.109 C 
ENDROOT
BRANCH   1  17
HETATM   17  C9  UNL     1      11.153  17.829  46.689  1.00  0.00     0.181 C 
HETATM   18  N2  UNL     1      12.608  17.643  46.580  1.00  0.00    -0.321 N 
HETATM   19  C5  UNL     1      13.342  17.116  45.482  1.00  0.00     0.319 C 
HETATM   20  C6  UNL     1      13.166  18.110  47.833  1.00  0.00     0.129 C 
HETATM   21  N1  UNL     1      12.730  16.683  44.287  1.00  0.00    -0.334 N 
HETATM   22  O3  UNL     1      14.608  17.043  45.611  1.00  0.00    -0.247 OA
ATOM     23  H1  UNL     1      11.714  16.757  44.228  1.00  0.00     0.164 HD
HETATM   24  C7  UNL     1      12.055  18.113  48.832  1.00  0.00     0.022 C 
HETATM   25  C8  UNL     1      10.949  17.337  48.112  1.00  0.00     0.037 C 
BRANCH  21  26
HETATM   26  C4  UNL     1      13.412  16.151  43.158  1.00  0.00     0.235 C 
BRANCH  26  27
HETATM   27  C3  UNL     1      12.541  16.008  41.969  1.00  0.00     0.276 C 
HETATM   28  O2  UNL     1      11.878  14.955  41.810  1.00  0.00    -0.263 OA
BRANCH  27  29
HETATM   29  O1  UNL     1      12.425  16.997  41.016  1.00  0.00    -0.321 OA
BRANCH  29  30
HETATM   30  C2  UNL     1      11.211  17.577  40.606  1.00  0.00     0.174 C 
HETATM   31  C1  UNL     1      11.336  18.143  39.230  1.00  0.00     0.034 C 
ENDBRANCH  29  30
ENDBRANCH  27  29
ENDBRANCH  26  27
ENDBRANCH  21  26
ENDBRANCH   1  17
BRANCH   4  32
HETATM   32  O5  UNL     1       7.691  18.939  47.676  1.00  0.00    -0.295 OA
BRANCH  32  33
HETATM   33  C12 UNL     1       6.928  18.050  48.422  1.00  0.00     0.256 C 
HETATM   34  C13 UNL     1       7.211  16.586  48.439  1.00  0.00     0.126 C 
HETATM   35  O6  UNL     1       5.957  18.436  49.122  1.00  0.00    -0.266 OA
ENDBRANCH  32  33
ENDBRANCH   4  32
TORSDOF 7
ENDMDL
MODEL 4
REMARK VINA RESULT: -7.435978131      2.562      8.596
REMARK  7 active torsions:
REMARK  status: ('A' for Active; 'I' for Inactive)
REMARK    1  A    between atoms: C2_2  and  O1_3 
REMARK    2  A    between atoms: O1_3  and  C3_4 
REMARK    3  A    between atoms: C3_4  and  C4_6 
REMARK    4  A    between atoms: C4_6  and  N1_7 
REMARK       I    between atoms: N1_7  and  C5_9 
REMARK       I    between atoms: C5_9  and  N2_11 
REMARK    5  A    between atoms: C9_15  and  C10_16 
REMARK       I    between atoms: C10_16  and  N3_18 
REMARK    6  A    between atoms: C11_19  and  O5_20 
REMARK    7  A    between atoms: O5_20  and  C12_21 
ROOT
HETATM    1  C10 UNL     1       9.328  22.260  48.793  1.00  0.00     0.245 C 
HETATM    2  O4  UNL     1      10.254  22.883  49.404  1.00  0.00    -0.271 OA
HETATM    3  N3  UNL     1       9.410  20.864  48.722  1.00  0.00    -0.317 N 
HETATM    4  C11 UNL     1       8.446  19.960  48.090  1.00  0.00     0.237 C 
HETATM    5  C14 UNL     1       9.240  18.744  47.667  1.00  0.00     0.075 C 
HETATM    6  C15 UNL     1      10.633  19.088  48.021  1.00  0.00     0.062 C 
HETATM    7  C16 UNL     1      11.348  19.785  46.899  1.00  0.00     0.028 C 
HETATM    8  C17 UNL     1      11.460  17.960  48.479  1.00  0.00     0.230 C 
HETATM    9  O7  UNL     1      11.219  16.752  48.304  1.00  0.00    -0.272 OA
HETATM   10  N4  UNL     1      12.654  18.345  49.195  1.00  0.00    -0.347 N 
HETATM   11  C18 UNL     1      13.825  17.464  49.195  1.00  0.00     0.153 C 
HETATM   12  C19 UNL     1      12.752  19.569  49.919  1.00  0.00     0.029 C 
HETATM   13  C20 UNL     1      12.735  19.310  51.428  1.00  0.00     0.038 C 
HETATM   14  C21 UNL     1      14.132  20.162  49.620  1.00  0.00     0.038 C 
HETATM   15  C22 UNL     1      11.737  20.619  49.563  1.00  0.00     0.057 C 
HETATM   16  C23 UNL     1      10.445  19.998  49.233  1.00  0.00     0.109 C 
ENDROOT
BRANCH   1  17
HETATM   17  C9  UNL     1       8.244  23.096  48.217  1.00  0.00     0.181 C 
HETATM   18  N2  UNL     1       8.779  24.386  47.755  1.00  0.00    -0.321 N 
HETATM   19  C5  UNL     1       8.658  25.657  48.381  1.00  0.00     0.319 C 
HETATM   20  C6  UNL     1       9.468  24.111  46.511  1.00  0.00     0.129 C 
HETATM   21  N1  UNL     1       7.972  25.850  49.599  1.00  0.00    -0.334 N 
HETATM   22  O3  UNL     1       9.203  26.648  47.795  1.00  0.00    -0.247 OA
ATOM     23  H1  UNL     1       7.549  25.029  50.034  1.00  0.00     0.164 HD
HETATM   24  C7  UNL     1       8.948  22.806  46.002  1.00  0.00     0.022 C 
HETATM   25  C8  UNL     1       7.729  22.556  46.893  1.00  0.00     0.037 C 
BRANCH  21  26
HETATM   26  C4  UNL     1       7.822  27.094  50.272  1.00  0.00     0.235 C 
BRANCH  26  27
HETATM   27  C3  UNL     1       6.585  27.814  49.891  1.00  0.00     0.276 C 
HETATM   28  O2  UNL     1       5.573  27.162  49.540  1.00  0.00    -0.263 OA
BRANCH  27  29
HETATM   29  O1  UNL     1       6.498  29.189  49.905  1.00  0.00    -0.321 OA
BRANCH  29  30
HETATM   30  C2  UNL     1       5.566  29.925  50.659  1.00  0.00     0.174 C 
HETATM   31  C1  UNL     1       5.761  29.681  52.119  1.00  0.00     0.034 C 
ENDBRANCH  29  30
ENDBRANCH  27  29
ENDBRANCH  26  27
ENDBRANCH  21  26
ENDBRANCH   1  17
BRANCH   4  32
HETATM   32  O5  UNL     1       7.489  19.494  49.024  1.00  0.00    -0.295 OA
BRANCH  32  33
HETATM   33  C12 UNL     1       6.568  18.558  48.576  1.00  0.00     0.256 C 
HETATM   34  C13 UNL     1       6.294  17.296  49.323  1.00  0.00     0.126 C 
HETATM   35  O6  UNL     1       5.915  18.726  47.515  1.00  0.00    -0.266 OA
ENDBRANCH  32  33
ENDBRANCH   4  32
TORSDOF 7
ENDMDL
MODEL 5
REMARK VINA RESULT: -7.400414805      2.244      4.379
REMARK  7 active torsions:
REMARK  status: ('A' for Active; 'I' for Inactive)
REMARK    1  A    between atoms: C2_2  and  O1_3 
REMARK    2  A    between atoms: O1_3  and  C3_4 
REMARK    3  A    between atoms: C3_4  and  C4_6 
REMARK    4  A    between atoms: C4_6  and  N1_7 
REMARK       I    between atoms: N1_7  and  C5_9 
REMARK       I    between atoms: C5_9  and  N2_11 
REMARK    5  A    between atoms: C9_15  and  C10_16 
REMARK       I    between atoms: C10_16  and  N3_18 
REMARK    6  A    between atoms: C11_19  and  O5_20 
REMARK    7  A    between atoms: O5_20  and  C12_21 
ROOT
HETATM    1  C10 UNL     1      10.198  21.122  47.367  1.00  0.00     0.245 C 
HETATM    2  O4  UNL     1      10.107  21.970  48.311  1.00  0.00    -0.271 OA
HETATM    3  N3  UNL     1      10.407  21.603  46.069  1.00  0.00    -0.317 N 
HETATM    4  C11 UNL     1      10.561  20.802  44.852  1.00  0.00     0.237 C 
HETATM    5  C14 UNL     1      10.080  21.681  43.719  1.00  0.00     0.075 C 
HETATM    6  C15 UNL     1       9.603  22.904  44.396  1.00  0.00     0.062 C 
HETATM    7  C16 UNL     1       8.151  22.816  44.772  1.00  0.00     0.028 C 
HETATM    8  C17 UNL     1       9.823  24.157  43.655  1.00  0.00     0.230 C 
HETATM    9  O7  UNL     1      10.065  24.260  42.439  1.00  0.00    -0.272 OA
HETATM   10  N4  UNL     1       9.739  25.353  44.462  1.00  0.00    -0.347 N 
HETATM   11  C18 UNL     1       9.349  26.625  43.849  1.00  0.00     0.153 C 
HETATM   12  C19 UNL     1      10.025  25.356  45.858  1.00  0.00     0.029 C 
HETATM   13  C20 UNL     1      11.353  26.063  46.139  1.00  0.00     0.038 C 
HETATM   14  C21 UNL     1       8.952  26.213  46.536  1.00  0.00     0.038 C 
HETATM   15  C22 UNL     1      10.001  24.012  46.531  1.00  0.00     0.057 C 
HETATM   16  C23 UNL     1      10.510  22.971  45.624  1.00  0.00     0.109 C 
ENDROOT
BRANCH   1  17
HETATM   17  C9  UNL     1      10.072  19.694  47.754  1.00  0.00     0.181 C 
HETATM   18  N2  UNL     1      10.406  19.514  49.176  1.00  0.00    -0.321 N 
HETATM   19  C5  UNL     1      11.599  18.976  49.732  1.00  0.00     0.319 C 
HETATM   20  C6  UNL     1       9.262  19.999  49.920  1.00  0.00     0.129 C 
HETATM   21  N1  UNL     1      12.679  18.525  48.942  1.00  0.00    -0.334 N 
HETATM   22  O3  UNL     1      11.670  18.911  51.003  1.00  0.00    -0.247 OA
ATOM     23  H1  UNL     1      12.579  18.594  47.929  1.00  0.00     0.164 HD
HETATM   24  C7  UNL     1       8.101  20.009  48.979  1.00  0.00     0.022 C 
HETATM   25  C8  UNL     1       8.629  19.219  47.779  1.00  0.00     0.037 C 
BRANCH  21  26
HETATM   26  C4  UNL     1      13.895  17.983  49.442  1.00  0.00     0.235 C 
BRANCH  26  27
HETATM   27  C3  UNL     1      13.918  16.502  49.429  1.00  0.00     0.276 C 
HETATM   28  O2  UNL     1      13.410  15.868  50.384  1.00  0.00    -0.263 OA
BRANCH  27  29
HETATM   29  O1  UNL     1      14.481  15.782  48.398  1.00  0.00    -0.321 OA
BRANCH  29  30
HETATM   30  C2  UNL     1      14.110  15.895  47.046  1.00  0.00     0.174 C 
HETATM   31  C1  UNL     1      12.663  15.571  46.867  1.00  0.00     0.034 C 
ENDBRANCH  29  30
ENDBRANCH  27  29
ENDBRANCH  26  27
ENDBRANCH  21  26
ENDBRANCH   1  17
BRANCH   4  32
HETATM   32  O5  UNL     1      11.926  20.532  44.583  1.00  0.00    -0.295 OA
BRANCH  32  33
HETATM   33  C12 UNL     1      12.414  19.290  44.963  1.00  0.00     0.256 C 
HETATM   34  C13 UNL     1      12.297  18.091  44.083  1.00  0.00     0.126 C 
HETATM   35  O6  UNL     1      12.981  19.111  46.071  1.00  0.00    -0.266 OA
ENDBRANCH  32  33
ENDBRANCH   4  32
TORSDOF 7
ENDMDL
