MODEL 1
REMARK VINA RESULT: -9.266046214      0.000      0.000
REMARK  6 active torsions:
REMARK  status: ('A' for Active; 'I' for Inactive)
REMARK    1  A    between atoms: C2_2  and  C3_3 
REMARK    2  A    between atoms: C3_3  and  N1_4 
REMARK       I    between atoms: N1_4  and  C4_6 
REMARK    3  A    between atoms: C4_6  and  C5_8 
REMARK    4  A    between atoms: C7_12  and  N3_13 
REMARK       I    between atoms: N3_13  and  C8_15 
REMARK    5  A    between atoms: C8_15  and  C9_17 
REMARK    6  A    between atoms: C9_17  and  C10_18 
ROOT
HETATM    1  C5  UNL     1       8.983  20.432  49.587  1.00  0.00     0.199 C 
HETATM    2  N2  UNL     1      10.216  19.990  50.144  1.00  0.00    -0.313 N 
HETATM    3  C6  UNL     1      11.268  19.688  51.090  1.00  0.00     0.271 C 
HETATM    4  O2  UNL     1      11.426  20.110  52.278  1.00  0.00    -0.266 OA
HETATM    5  C7  UNL     1      11.944  18.809  50.161  1.00  0.00     0.114 C 
HETATM    6  C18 UNL     1      11.125  19.432  49.139  1.00  0.00     0.207 C 
HETATM    7  S2  UNL     1       9.885  18.335  48.327  1.00  0.00    -0.125 SA
HETATM    8  C19 UNL     1       8.463  19.480  48.576  1.00  0.00     0.032 C 
HETATM    9  C20 UNL     1       8.219  20.109  47.223  1.00  0.00     0.029 C 
HETATM   10  C21 UNL     1       7.241  18.726  49.012  1.00  0.00     0.029 C 
ENDROOT
BRANCH   5  11
HETATM   11  N3  UNL     1      12.839  17.918  50.250  1.00  0.00    -0.323 N 
HETATM   12  C8  UNL     1      13.873  17.877  49.280  1.00  0.00     0.223 C 
HETATM   13  O3  UNL     1      14.504  18.907  49.019  1.00  0.00    -0.273 OA
ATOM     14  H3  UNL     1      12.816  17.238  51.009  1.00  0.00     0.169 HD
BRANCH  12  15
HETATM   15  C9  UNL     1      14.147  16.589  48.624  1.00  0.00     0.131 C 
BRANCH  15  16
HETATM   16  C10 UNL     1      14.402  16.640  47.167  1.00  0.00     0.193 C 
HETATM   17  C11 UNL     1      15.160  15.470  46.680  1.00  0.00     0.281 C 
HETATM   18  O4  UNL     1      15.668  14.666  47.479  1.00  0.00    -0.263 OA
HETATM   19  O5  UNL     1      15.330  15.226  45.320  1.00  0.00    -0.276 OA
HETATM   20  C12 UNL     1      14.460  15.573  44.325  1.00  0.00     0.098 A 
HETATM   21  C13 UNL     1      14.741  15.268  42.980  1.00  0.00     0.039 A 
HETATM   22  C17 UNL     1      13.291  16.229  44.617  1.00  0.00     0.066 A 
HETATM   23  C14 UNL     1      13.867  15.617  41.986  1.00  0.00     0.003 A 
HETATM   24  C15 UNL     1      12.699  16.272  42.298  1.00  0.00     0.002 A 
HETATM   25  C16 UNL     1      12.417  16.575  43.611  1.00  0.00     0.024 A 
HETATM   26  S1  UNL     1      12.844  16.675  46.249  1.00  0.00     0.067 S 
HETATM   27  O6  UNL     1      11.767  15.556  46.880  1.00  0.00    -0.252 OA
ENDBRANCH  15  16
ENDBRANCH  12  15
ENDBRANCH   5  11
BRANCH   1  28
HETATM   28  C4  UNL     1       9.019  21.854  49.153  1.00  0.00     0.242 C 
HETATM   29  N1  UNL     1      10.113  22.437  48.473  1.00  0.00    -0.359 N 
ATOM     30  H1  UNL     1      10.924  21.855  48.264  1.00  0.00     0.162 HD
HETATM   31  O1  UNL     1       8.030  22.610  49.390  1.00  0.00    -0.271 OA
BRANCH  29  32
HETATM   32  C3  UNL     1      10.131  23.819  48.061  1.00  0.00     0.122 C 
BRANCH  32  33
HETATM   33  C2  UNL     1      10.506  23.950  46.589  1.00  0.00     0.015 C 
HETATM   34  C1  UNL     1      11.286  25.238  46.352  1.00  0.00     0.006 C 
ENDBRANCH  32  33
ENDBRANCH  29  32
ENDBRANCH   1  28
TORSDOF 6
ENDMDL
MODEL 2
REMARK VINA RESULT: -9.190766637      1.183      1.347
REMARK  6 active torsions:
REMARK  status: ('A' for Active; 'I' for Inactive)
REMARK    1  A    between atoms: C2_2  and  C3_3 
REMARK    2  A    between atoms: C3_3  and  N1_4 
REMARK       I    between atoms: N1_4  and  C4_6 
REMARK    3  A    between atoms: C4_6  and  C5_8 
REMARK    4  A    between atoms: C7_12  and  N3_13 
REMARK       I    between atoms: N3_13  and  C8_15 
REMARK    5  A    between atoms: C8_15  and  C9_17 
REMARK    6  A    between atoms: C9_17  and  C10_18 
ROOT
HETATM    1  C5  UNL     1       9.296  20.177  49.483  1.00  0.00     0.199 C 
HETATM    2  N2  UNL     1      10.495  19.691  50.078  1.00  0.00    -0.313 N 
HETATM    3  C6  UNL     1      11.491  19.322  51.059  1.00  0.00     0.271 C 
HETATM    4  O2  UNL     1      11.586  19.669  52.278  1.00  0.00    -0.266 OA
HETATM    5  C7  UNL     1      12.212  18.496  50.117  1.00  0.00     0.114 C 
HETATM    6  C18 UNL     1      11.454  19.187  49.092  1.00  0.00     0.207 C 
HETATM    7  S2  UNL     1      10.255  18.153  48.147  1.00  0.00    -0.125 SA
HETATM    8  C19 UNL     1       8.827  19.293  48.388  1.00  0.00     0.032 C 
HETATM    9  C20 UNL     1       8.662  20.007  47.065  1.00  0.00     0.029 C 
HETATM   10  C21 UNL     1       7.579  18.525  48.709  1.00  0.00     0.029 C 
ENDROOT
BRANCH   5  11
HETATM   11  N3  UNL     1      13.096  17.593  50.199  1.00  0.00    -0.323 N 
HETATM   12  C8  UNL     1      14.162  17.581  49.262  1.00  0.00     0.223 C 
HETATM   13  O3  UNL     1      14.810  18.614  49.065  1.00  0.00    -0.273 OA
ATOM     14  H3  UNL     1      13.042  16.883  50.928  1.00  0.00     0.169 HD
BRANCH  12  15
HETATM   15  C9  UNL     1      14.446  16.317  48.564  1.00  0.00     0.131 C 
BRANCH  15  16
HETATM   16  C10 UNL     1      14.663  16.415  47.104  1.00  0.00     0.193 C 
HETATM   17  C11 UNL     1      15.406  15.259  46.560  1.00  0.00     0.281 C 
HETATM   18  O4  UNL     1      15.933  14.430  47.319  1.00  0.00    -0.263 OA
HETATM   19  O5  UNL     1      15.540  15.058  45.189  1.00  0.00    -0.276 OA
HETATM   20  C12 UNL     1      14.646  15.438  44.229  1.00  0.00     0.098 A 
HETATM   21  C13 UNL     1      14.891  15.175  42.867  1.00  0.00     0.039 A 
HETATM   22  C17 UNL     1      13.485  16.085  44.572  1.00  0.00     0.066 A 
HETATM   23  C14 UNL     1      13.992  15.556  41.908  1.00  0.00     0.003 A 
HETATM   24  C15 UNL     1      12.833  16.202  42.271  1.00  0.00     0.002 A 
HETATM   25  C16 UNL     1      12.586  16.463  43.601  1.00  0.00     0.024 A 
HETATM   26  S1  UNL     1      13.082  16.479  46.228  1.00  0.00     0.067 S 
HETATM   27  O6  UNL     1      12.020  15.342  46.851  1.00  0.00    -0.252 OA
ENDBRANCH  15  16
ENDBRANCH  12  15
ENDBRANCH   5  11
BRANCH   1  28
HETATM   28  C4  UNL     1       9.364  21.622  49.141  1.00  0.00     0.242 C 
HETATM   29  N1  UNL     1       8.249  22.492  49.190  1.00  0.00    -0.359 N 
ATOM     30  H1  UNL     1       7.347  22.112  49.476  1.00  0.00     0.162 HD
HETATM   31  O1  UNL     1      10.467  22.134  48.783  1.00  0.00    -0.271 OA
BRANCH  29  32
HETATM   32  C3  UNL     1       8.334  23.892  48.851  1.00  0.00     0.122 C 
BRANCH  32  33
HETATM   33  C2  UNL     1       8.215  24.766  50.095  1.00  0.00     0.015 C 
HETATM   34  C1  UNL     1       8.211  26.240  49.709  1.00  0.00     0.006 C 
ENDBRANCH  32  33
ENDBRANCH  29  32
ENDBRANCH   1  28
TORSDOF 6
ENDMDL
MODEL 3
REMARK VINA RESULT: -9.023911977      1.841      2.889
REMARK  6 active torsions:
REMARK  status: ('A' for Active; 'I' for Inactive)
REMARK    1  A    between atoms: C2_2  and  C3_3 
REMARK    2  A    between atoms: C3_3  and  N1_4 
REMARK       I    between atoms: N1_4  and  C4_6 
REMARK    3  A    between atoms: C4_6  and  C5_8 
REMARK    4  A    between atoms: C7_12  and  N3_13 
REMARK       I    between atoms: N3_13  and  C8_15 
REMARK    5  A    between atoms: C8_15  and  C9_17 
REMARK    6  A    between atoms: C9_17  and  C10_18 
ROOT
HETATM    1  C5  UNL     1      10.057  21.196  48.946  1.00  0.00     0.199 C 
HETATM    2  N2  UNL     1      10.926  20.118  48.614  1.00  0.00    -0.313 N 
HETATM    3  C6  UNL     1      11.986  19.344  48.008  1.00  0.00     0.271 C 
HETATM    4  O2  UNL     1      12.670  19.594  46.966  1.00  0.00    -0.266 OA
HETATM    5  C7  UNL     1      11.896  18.307  49.012  1.00  0.00     0.114 C 
HETATM    6  C18 UNL     1      10.610  18.889  49.346  1.00  0.00     0.207 C 
HETATM    7  S2  UNL     1      10.491  19.666  51.013  1.00  0.00    -0.125 SA
HETATM    8  C19 UNL     1       9.789  21.258  50.404  1.00  0.00     0.032 C 
HETATM    9  C20 UNL     1       8.319  21.202  50.750  1.00  0.00     0.029 C 
HETATM   10  C21 UNL     1      10.430  22.424  51.098  1.00  0.00     0.029 C 
ENDROOT
BRANCH   5  11
HETATM   11  N3  UNL     1      12.633  17.349  49.390  1.00  0.00    -0.323 N 
HETATM   12  C8  UNL     1      14.021  17.385  49.095  1.00  0.00     0.223 C 
HETATM   13  O3  UNL     1      14.676  18.394  49.377  1.00  0.00    -0.273 OA
ATOM     14  H3  UNL     1      12.234  16.561  49.900  1.00  0.00     0.169 HD
BRANCH  12  15
HETATM   15  C9  UNL     1      14.617  16.200  48.460  1.00  0.00     0.131 C 
BRANCH  15  16
HETATM   16  C10 UNL     1      14.822  16.280  46.996  1.00  0.00     0.193 C 
HETATM   17  C11 UNL     1      15.528  15.100  46.455  1.00  0.00     0.281 C 
HETATM   18  O4  UNL     1      16.039  14.262  47.217  1.00  0.00    -0.263 OA
HETATM   19  O5  UNL     1      15.643  14.884  45.085  1.00  0.00    -0.276 OA
HETATM   20  C12 UNL     1      14.750  15.280  44.130  1.00  0.00     0.098 A 
HETATM   21  C13 UNL     1      14.975  15.000  42.769  1.00  0.00     0.039 A 
HETATM   22  C17 UNL     1      13.611  15.962  44.479  1.00  0.00     0.066 A 
HETATM   23  C14 UNL     1      14.077  15.398  41.815  1.00  0.00     0.003 A 
HETATM   24  C15 UNL     1      12.940  16.079  42.183  1.00  0.00     0.002 A 
HETATM   25  C16 UNL     1      12.714  16.358  43.513  1.00  0.00     0.024 A 
HETATM   26  S1  UNL     1      13.235  16.381  46.135  1.00  0.00     0.067 S 
HETATM   27  O6  UNL     1      12.148  15.280  46.778  1.00  0.00    -0.252 OA
ENDBRANCH  15  16
ENDBRANCH  12  15
ENDBRANCH   5  11
BRANCH   1  28
HETATM   28  C4  UNL     1       8.850  21.256  48.080  1.00  0.00     0.242 C 
HETATM   29  N1  UNL     1       8.245  20.115  47.503  1.00  0.00    -0.359 N 
ATOM     30  H1  UNL     1       8.653  19.200  47.687  1.00  0.00     0.162 HD
HETATM   31  O1  UNL     1       8.309  22.374  47.829  1.00  0.00    -0.271 OA
BRANCH  29  32
HETATM   32  C3  UNL     1       7.073  20.193  46.663  1.00  0.00     0.122 C 
BRANCH  32  33
HETATM   33  C2  UNL     1       6.009  19.198  47.112  1.00  0.00     0.015 C 
HETATM   34  C1  UNL     1       6.532  18.341  48.258  1.00  0.00     0.006 C 
ENDBRANCH  32  33
ENDBRANCH  29  32
ENDBRANCH   1  28
TORSDOF 6
ENDMDL
MODEL 4
REMARK VINA RESULT: -9.011953973      1.682      2.390
REMARK  6 active torsions:
REMARK  status: ('A' for Active; 'I' for Inactive)
REMARK    1  A    between atoms: C2_2  and  C3_3 
REMARK    2  A    between atoms: C3_3  and  N1_4 
REMARK       I    between atoms: N1_4  and  C4_6 
REMARK    3  A    between atoms: C4_6  and  C5_8 
REMARK    4  A    between atoms: C7_12  and  N3_13 
REMARK       I    between atoms: N3_13  and  C8_15 
REMARK    5  A    between atoms: C8_15  and  C9_17 
REMARK    6  A    between atoms: C9_17  and  C10_18 
ROOT
HETATM    1  C5  UNL     1       8.314  22.289  47.703  1.00  0.00     0.199 C 
HETATM    2  N2  UNL     1       9.024  21.891  48.871  1.00  0.00    -0.313 N 
HETATM    3  C6  UNL     1       9.377  21.669  50.256  1.00  0.00     0.271 C 
HETATM    4  O2  UNL     1       8.890  22.195  51.305  1.00  0.00    -0.266 OA
HETATM    5  C7  UNL     1      10.399  20.704  49.911  1.00  0.00     0.114 C 
HETATM    6  C18 UNL     1      10.299  21.237  48.566  1.00  0.00     0.207 C 
HETATM    7  S2  UNL     1       9.638  20.079  47.293  1.00  0.00    -0.125 SA
HETATM    8  C19 UNL     1       8.373  21.252  46.643  1.00  0.00     0.032 C 
HETATM    9  C20 UNL     1       8.936  21.757  45.334  1.00  0.00     0.029 C 
HETATM   10  C21 UNL     1       7.070  20.549  46.398  1.00  0.00     0.029 C 
ENDROOT
BRANCH   5  11
HETATM   11  N3  UNL     1      11.052  19.819  50.537  1.00  0.00    -0.323 N 
HETATM   12  C8  UNL     1      12.356  19.477  50.092  1.00  0.00     0.223 C 
HETATM   13  O3  UNL     1      13.184  20.372  49.891  1.00  0.00    -0.273 OA
ATOM     14  H3  UNL     1      10.647  19.356  51.350  1.00  0.00     0.169 HD
BRANCH  12  15
HETATM   15  C9  UNL     1      12.659  18.052  49.890  1.00  0.00     0.131 C 
BRANCH  15  16
HETATM   16  C10 UNL     1      13.463  17.720  48.693  1.00  0.00     0.193 C 
HETATM   17  C11 UNL     1      14.191  16.441  48.831  1.00  0.00     0.281 C 
HETATM   18  O4  UNL     1      14.239  15.855  49.925  1.00  0.00    -0.263 OA
HETATM   19  O5  UNL     1      14.840  15.852  47.751  1.00  0.00    -0.276 OA
HETATM   20  C12 UNL     1      14.478  15.957  46.438  1.00  0.00     0.098 A 
HETATM   21  C13 UNL     1      15.215  15.308  45.430  1.00  0.00     0.039 A 
HETATM   22  C17 UNL     1      13.383  16.700  46.074  1.00  0.00     0.066 A 
HETATM   23  C14 UNL     1      14.848  15.416  44.115  1.00  0.00     0.003 A 
HETATM   24  C15 UNL     1      13.747  16.164  43.769  1.00  0.00     0.002 A 
HETATM   25  C16 UNL     1      13.020  16.801  44.750  1.00  0.00     0.024 A 
HETATM   26  S1  UNL     1      12.402  17.563  47.237  1.00  0.00     0.067 S 
HETATM   27  O6  UNL     1      11.028  16.676  47.606  1.00  0.00    -0.252 OA
ENDBRANCH  15  16
ENDBRANCH  12  15
ENDBRANCH   5  11
BRANCH   1  28
HETATM   28  C4  UNL     1       8.658  23.664  47.257  1.00  0.00     0.242 C 
HETATM   29  N1  UNL     1       9.943  24.236  47.402  1.00  0.00    -0.359 N 
ATOM     30  H1  UNL     1      10.679  23.679  47.835  1.00  0.00     0.162 HD
HETATM   31  O1  UNL     1       7.773  24.389  46.712  1.00  0.00    -0.271 OA
BRANCH  29  32
HETATM   32  C3  UNL     1      10.258  25.575  46.965  1.00  0.00     0.122 C 
BRANCH  32  33
HETATM   33  C2  UNL     1      11.578  25.609  46.203  1.00  0.00     0.015 C 
HETATM   34  C1  UNL     1      11.457  24.837  44.895  1.00  0.00     0.006 C 
ENDBRANCH  32  33
ENDBRANCH  29  32
ENDBRANCH   1  28
TORSDOF 6
ENDMDL
MODEL 5
REMARK VINA RESULT: -8.827352396      2.426      3.437
REMARK  6 active torsions:
REMARK  status: ('A' for Active; 'I' for Inactive)
REMARK    1  A    between atoms: C2_2  and  C3_3 
REMARK    2  A    between atoms: C3_3  and  N1_4 
REMARK       I    between atoms: N1_4  and  C4_6 
REMARK    3  A    between atoms: C4_6  and  C5_8 
REMARK    4  A    between atoms: C7_12  and  N3_13 
REMARK       I    between atoms: N3_13  and  C8_15 
REMARK    5  A    between atoms: C8_15  and  C9_17 
REMARK    6  A    between atoms: C9_17  and  C10_18 
ROOT
HETATM    1  C5  UNL     1       8.642  23.427  48.657  1.00  0.00     0.199 C 
HETATM    2  N2  UNL     1       9.148  22.774  49.817  1.00  0.00    -0.313 N 
HETATM    3  C6  UNL     1       9.244  22.209  51.144  1.00  0.00     0.271 C 
HETATM    4  O2  UNL     1       8.498  22.399  52.155  1.00  0.00    -0.266 OA
HETATM    5  C7  UNL     1      10.423  21.442  50.806  1.00  0.00     0.114 C 
HETATM    6  C18 UNL     1      10.529  22.311  49.650  1.00  0.00     0.207 C 
HETATM    7  S2  UNL     1      10.279  21.502  48.013  1.00  0.00    -0.125 SA
HETATM    8  C19 UNL     1       9.036  22.722  47.412  1.00  0.00     0.032 C 
HETATM    9  C20 UNL     1       9.781  23.599  46.432  1.00  0.00     0.029 C 
HETATM   10  C21 UNL     1       7.903  22.030  46.714  1.00  0.00     0.029 C 
ENDROOT
BRANCH   5  11
HETATM   11  N3  UNL     1      11.042  20.464  51.319  1.00  0.00    -0.323 N 
HETATM   12  C8  UNL     1      12.195  19.955  50.666  1.00  0.00     0.223 C 
HETATM   13  O3  UNL     1      13.094  20.731  50.326  1.00  0.00    -0.273 OA
ATOM     14  H3  UNL     1      10.717  20.047  52.191  1.00  0.00     0.169 HD
BRANCH  12  15
HETATM   15  C9  UNL     1      12.261  18.505  50.425  1.00  0.00     0.131 C 
BRANCH  15  16
HETATM   16  C10 UNL     1      13.119  18.070  49.300  1.00  0.00     0.193 C 
HETATM   17  C11 UNL     1      13.618  16.690  49.465  1.00  0.00     0.281 C 
HETATM   18  O4  UNL     1      13.463  16.083  50.538  1.00  0.00    -0.263 OA
HETATM   19  O5  UNL     1      14.273  16.023  48.434  1.00  0.00    -0.276 OA
HETATM   20  C12 UNL     1      14.066  16.209  47.096  1.00  0.00     0.098 A 
HETATM   21  C13 UNL     1      14.791  15.469  46.142  1.00  0.00     0.039 A 
HETATM   22  C17 UNL     1      13.144  17.124  46.653  1.00  0.00     0.066 A 
HETATM   23  C14 UNL     1      14.579  15.658  44.803  1.00  0.00     0.003 A 
HETATM   24  C15 UNL     1      13.651  16.578  44.377  1.00  0.00     0.002 A 
HETATM   25  C16 UNL     1      12.939  17.306  45.304  1.00  0.00     0.024 A 
HETATM   26  S1  UNL     1      12.199  18.112  47.744  1.00  0.00     0.067 S 
HETATM   27  O6  UNL     1      10.672  17.450  47.947  1.00  0.00    -0.252 OA
ENDBRANCH  15  16
ENDBRANCH  12  15
ENDBRANCH   5  11
BRANCH   1  28
HETATM   28  C4  UNL     1       8.898  24.892  48.659  1.00  0.00     0.242 C 
HETATM   29  N1  UNL     1       7.908  25.860  48.369  1.00  0.00    -0.359 N 
ATOM     30  H1  UNL     1       6.965  25.541  48.148  1.00  0.00     0.162 HD
HETATM   31  O1  UNL     1      10.056  25.329  48.933  1.00  0.00    -0.271 OA
BRANCH  29  32
HETATM   32  C3  UNL     1       8.175  27.277  48.374  1.00  0.00     0.122 C 
BRANCH  32  33
HETATM   33  C2  UNL     1       7.349  27.989  49.440  1.00  0.00     0.015 C 
HETATM   34  C1  UNL     1       7.971  27.786  50.816  1.00  0.00     0.006 C 
ENDBRANCH  32  33
ENDBRANCH  29  32
ENDBRANCH   1  28
TORSDOF 6
ENDMDL
