MODEL 1
REMARK VINA RESULT: -8.168441504      0.000      0.000
REMARK  7 active torsions:
REMARK  status: ('A' for Active; 'I' for Inactive)
REMARK       I    between atoms: N1_2  and  C2_4 
REMARK    1  A    between atoms: C2_4  and  C3_6 
REMARK    2  A    between atoms: N3_21  and  C13_22 
REMARK    3  A    between atoms: C13_22  and  C14_23 
REMARK    4  A    between atoms: C14_23  and  O6_24 
REMARK    5  A    between atoms: O6_24  and  C15_25 
REMARK    6  A    between atoms: C15_25  and  N4_27 
REMARK    7  A    between atoms: N4_27  and  C16_29 
ROOT
HETATM    1  C3  UNL     1       8.826  21.678  48.910  1.00  0.00     0.121 C 
HETATM    2  C4  UNL     1       7.982  22.274  47.776  1.00  0.00     0.052 C 
HETATM    3  C5  UNL     1       8.737  23.443  47.243  1.00  0.00     0.158 C 
HETATM    4  O2  UNL     1       8.040  24.641  47.310  1.00  0.00    -0.348 OA
HETATM    5  C6  UNL     1       8.756  25.509  48.099  1.00  0.00     0.158 C 
HETATM    6  C7  UNL     1       9.824  26.259  47.353  1.00  0.00     0.078 C 
HETATM    7  C8  UNL     1       7.927  26.473  48.888  1.00  0.00     0.078 C 
HETATM    8  O3  UNL     1       9.415  24.657  49.006  1.00  0.00    -0.345 OA
HETATM    9  C9  UNL     1       9.914  23.707  48.180  1.00  0.00     0.192 C 
HETATM   10  C10 UNL     1      10.126  22.329  48.758  1.00  0.00     0.133 C 
HETATM   11  O4  UNL     1      10.767  21.686  47.656  1.00  0.00    -0.260 OA
HETATM   12  N2  UNL     1      11.023  20.402  47.855  1.00  0.00    -0.217 N 
HETATM   13  C11 UNL     1      10.609  19.363  46.948  1.00  0.00     0.272 C 
HETATM   14  O5  UNL     1       9.767  19.616  46.058  1.00  0.00    -0.269 OA
HETATM   15  C12 UNL     1      11.171  18.014  47.063  1.00  0.00     0.377 C 
HETATM   16  N3  UNL     1      11.603  17.618  48.355  1.00  0.00     0.101 N 
HETATM   17  C19 UNL     1      11.390  18.557  49.411  1.00  0.00     0.300 C 
HETATM   18  C20 UNL     1      11.761  19.976  49.004  1.00  0.00     0.147 C 
HETATM   19  C21 UNL     1      11.532  20.842  50.176  1.00  0.00     0.037 C 
HETATM   20  C22 UNL     1      11.127  22.262  49.837  1.00  0.00     0.024 C 
HETATM   21  C23 UNL     1      10.901  22.970  51.107  1.00  0.00     0.013 C 
ENDROOT
BRANCH   1  22
HETATM   22  C2  UNL     1       8.126  21.715  50.179  1.00  0.00     0.228 C 
HETATM   23  N1  UNL     1       8.053  20.552  50.986  1.00  0.00    -0.347 N 
HETATM   24  C1  UNL     1       8.256  20.567  52.261  1.00  0.00     0.121 C 
ATOM     25  H1  UNL     1       7.830  19.662  50.539  1.00  0.00     0.167 HD
HETATM   26  O1  UNL     1       7.556  22.736  50.640  1.00  0.00    -0.273 OA
ENDBRANCH   1  22
BRANCH  16  27
HETATM   27  C13 UNL     1      12.947  17.046  48.382  1.00  0.00     0.299 C 
BRANCH  27  28
HETATM   28  C14 UNL     1      12.910  15.830  47.494  1.00  0.00     0.208 C 
BRANCH  28  29
HETATM   29  O6  UNL     1      13.973  15.540  46.727  1.00  0.00    -0.325 OA
BRANCH  29  30
HETATM   30  C15 UNL     1      14.502  15.908  45.569  1.00  0.00     0.210 C 
HETATM   31  S1  UNL     1      16.073  15.433  45.213  1.00  0.00    -0.033 SA
BRANCH  30  32
HETATM   32  N4  UNL     1      13.875  16.676  44.570  1.00  0.00    -0.357 N 
ATOM     33  H4  UNL     1      13.965  17.692  44.556  1.00  0.00     0.162 HD
BRANCH  32  34
HETATM   34  C16 UNL     1      13.088  15.973  43.547  1.00  0.00     0.084 A 
HETATM   35  C17 UNL     1      12.730  16.758  42.308  1.00  0.00     0.027 A 
HETATM   36  C18 UNL     1      13.741  15.648  42.262  1.00  0.00     0.027 A 
ENDBRANCH  32  34
ENDBRANCH  30  32
ENDBRANCH  29  30
ENDBRANCH  28  29
ENDBRANCH  27  28
ENDBRANCH  16  27
TORSDOF 7
ENDMDL
MODEL 2
REMARK VINA RESULT: -7.964609254      2.664      4.915
REMARK  7 active torsions:
REMARK  status: ('A' for Active; 'I' for Inactive)
REMARK       I    between atoms: N1_2  and  C2_4 
REMARK    1  A    between atoms: C2_4  and  C3_6 
REMARK    2  A    between atoms: N3_21  and  C13_22 
REMARK    3  A    between atoms: C13_22  and  C14_23 
REMARK    4  A    between atoms: C14_23  and  O6_24 
REMARK    5  A    between atoms: O6_24  and  C15_25 
REMARK    6  A    between atoms: C15_25  and  N4_27 
REMARK    7  A    between atoms: N4_27  and  C16_29 
ROOT
HETATM    1  C3  UNL     1       9.033  24.496  47.655  1.00  0.00     0.121 C 
HETATM    2  C4  UNL     1       7.858  25.473  47.788  1.00  0.00     0.052 C 
HETATM    3  C5  UNL     1       6.726  24.899  47.007  1.00  0.00     0.158 C 
HETATM    4  O2  UNL     1       6.259  25.730  45.999  1.00  0.00    -0.348 OA
HETATM    5  C6  UNL     1       6.415  25.078  44.800  1.00  0.00     0.158 C 
HETATM    6  C7  UNL     1       5.277  24.156  44.464  1.00  0.00     0.078 C 
HETATM    7  C8  UNL     1       6.699  25.969  43.632  1.00  0.00     0.078 C 
HETATM    8  O3  UNL     1       7.546  24.267  45.014  1.00  0.00    -0.345 OA
HETATM    9  C9  UNL     1       7.261  23.708  46.215  1.00  0.00     0.192 C 
HETATM   10  C10 UNL     1       8.427  23.296  47.080  1.00  0.00     0.133 C 
HETATM   11  O4  UNL     1       7.735  22.650  48.149  1.00  0.00    -0.260 OA
HETATM   12  N2  UNL     1       8.523  22.229  49.126  1.00  0.00    -0.217 N 
HETATM   13  C11 UNL     1       8.318  22.568  50.511  1.00  0.00     0.272 C 
HETATM   14  O5  UNL     1       7.525  23.487  50.813  1.00  0.00    -0.269 OA
HETATM   15  C12 UNL     1       9.032  21.841  51.564  1.00  0.00     0.377 C 
HETATM   16  N3  UNL     1      10.289  21.287  51.207  1.00  0.00     0.101 N 
HETATM   17  C19 UNL     1      10.744  21.548  49.878  1.00  0.00     0.300 C 
HETATM   18  C20 UNL     1       9.638  21.376  48.846  1.00  0.00     0.147 C 
HETATM   19  C21 UNL     1      10.230  21.638  47.521  1.00  0.00     0.037 C 
HETATM   20  C22 UNL     1       9.270  22.232  46.511  1.00  0.00     0.024 C 
HETATM   21  C23 UNL     1      10.026  22.464  45.270  1.00  0.00     0.013 C 
ENDROOT
BRANCH   1  22
HETATM   22  C2  UNL     1      10.180  25.117  47.023  1.00  0.00     0.228 C 
HETATM   23  N1  UNL     1      10.000  25.999  45.927  1.00  0.00    -0.347 N 
HETATM   24  C1  UNL     1      10.618  27.127  45.824  1.00  0.00     0.121 C 
ATOM     25  H1  UNL     1       9.351  25.729  45.187  1.00  0.00     0.167 HD
HETATM   26  O1  UNL     1      11.370  24.930  47.382  1.00  0.00    -0.273 OA
ENDBRANCH   1  22
BRANCH  16  27
HETATM   27  C13 UNL     1      10.448  19.884  51.584  1.00  0.00     0.299 C 
BRANCH  27  28
HETATM   28  C14 UNL     1      11.923  19.587  51.510  1.00  0.00     0.208 C 
BRANCH  28  29
HETATM   29  O6  UNL     1      12.346  18.519  50.815  1.00  0.00    -0.325 OA
BRANCH  29  30
HETATM   30  C15 UNL     1      12.788  18.226  49.601  1.00  0.00     0.210 C 
HETATM   31  S1  UNL     1      13.453  19.453  48.667  1.00  0.00    -0.033 SA
BRANCH  30  32
HETATM   32  N4  UNL     1      12.762  16.961  48.985  1.00  0.00    -0.357 N 
ATOM     33  H4  UNL     1      13.090  16.131  49.477  1.00  0.00     0.162 HD
BRANCH  32  34
HETATM   34  C16 UNL     1      12.249  16.870  47.610  1.00  0.00     0.084 A 
HETATM   35  C17 UNL     1      12.494  15.572  46.879  1.00  0.00     0.027 A 
HETATM   36  C18 UNL     1      11.118  15.956  47.345  1.00  0.00     0.027 A 
ENDBRANCH  32  34
ENDBRANCH  30  32
ENDBRANCH  29  30
ENDBRANCH  28  29
ENDBRANCH  27  28
ENDBRANCH  16  27
TORSDOF 7
ENDMDL
MODEL 3
REMARK VINA RESULT: -7.948848099      1.550      1.774
REMARK  7 active torsions:
REMARK  status: ('A' for Active; 'I' for Inactive)
REMARK       I    between atoms: N1_2  and  C2_4 
REMARK    1  A    between atoms: C2_4  and  C3_6 
REMARK    2  A    between atoms: N3_21  and  C13_22 
REMARK    3  A    between atoms: C13_22  and  C14_23 
REMARK    4  A    between atoms: C14_23  and  O6_24 
REMARK    5  A    between atoms: O6_24  and  C15_25 
REMARK    6  A    between atoms: C15_25  and  N4_27 
REMARK    7  A    between atoms: N4_27  and  C16_29 
ROOT
HETATM    1  C3  UNL     1       9.668  20.226  49.514  1.00  0.00     0.121 C 
HETATM    2  C4  UNL     1       8.592  20.881  48.637  1.00  0.00     0.052 C 
HETATM    3  C5  UNL     1       9.134  22.199  48.199  1.00  0.00     0.158 C 
HETATM    4  O2  UNL     1       8.348  23.281  48.571  1.00  0.00    -0.348 OA
HETATM    5  C6  UNL     1       9.102  24.100  49.376  1.00  0.00     0.158 C 
HETATM    6  C7  UNL     1       9.953  25.076  48.614  1.00  0.00     0.078 C 
HETATM    7  C8  UNL     1       8.330  24.828  50.432  1.00  0.00     0.078 C 
HETATM    8  O3  UNL     1       9.981  23.206  50.018  1.00  0.00    -0.345 OA
HETATM    9  C9  UNL     1      10.421  22.458  48.979  1.00  0.00     0.192 C 
HETATM   10  C10 UNL     1      10.856  21.044  49.279  1.00  0.00     0.133 C 
HETATM   11  O4  UNL     1      11.360  20.655  48.001  1.00  0.00    -0.260 OA
HETATM   12  N2  UNL     1      11.766  19.396  47.941  1.00  0.00    -0.217 N 
HETATM   13  C11 UNL     1      11.305  18.463  46.946  1.00  0.00     0.272 C 
HETATM   14  O5  UNL     1      10.305  18.744  46.248  1.00  0.00    -0.269 OA
HETATM   15  C12 UNL     1      12.003  17.190  46.746  1.00  0.00     0.377 C 
HETATM   16  N3  UNL     1      12.681  16.659  47.875  1.00  0.00     0.101 N 
HETATM   17  C19 UNL     1      12.561  17.396  49.092  1.00  0.00     0.300 C 
HETATM   18  C20 UNL     1      12.723  18.894  48.878  1.00  0.00     0.147 C 
HETATM   19  C21 UNL     1      12.614  19.541  50.199  1.00  0.00     0.037 C 
HETATM   20  C22 UNL     1      12.026  20.937  50.168  1.00  0.00     0.024 C 
HETATM   21  C23 UNL     1      11.951  21.413  51.558  1.00  0.00     0.013 C 
ENDROOT
BRANCH   1  22
HETATM   22  C2  UNL     1       9.190  19.988  50.862  1.00  0.00     0.228 C 
HETATM   23  N1  UNL     1       8.576  21.034  51.595  1.00  0.00    -0.347 N 
HETATM   24  C1  UNL     1       7.493  20.871  52.278  1.00  0.00     0.121 C 
ATOM     25  H1  UNL     1       9.010  21.957  51.583  1.00  0.00     0.167 HD
HETATM   26  O1  UNL     1       9.282  18.884  51.457  1.00  0.00    -0.273 OA
ENDBRANCH   1  22
BRANCH  16  27
HETATM   27  C13 UNL     1      14.059  16.255  47.602  1.00  0.00     0.299 C 
BRANCH  27  28
HETATM   28  C14 UNL     1      13.987  15.186  46.542  1.00  0.00     0.208 C 
BRANCH  28  29
HETATM   29  O6  UNL     1      14.674  15.343  45.400  1.00  0.00    -0.325 OA
BRANCH  29  30
HETATM   30  C15 UNL     1      14.448  15.641  44.128  1.00  0.00     0.210 C 
HETATM   31  S1  UNL     1      14.853  14.513  42.952  1.00  0.00    -0.033 SA
BRANCH  30  32
HETATM   32  N4  UNL     1      13.889  16.835  43.636  1.00  0.00    -0.357 N 
ATOM     33  H4  UNL     1      14.420  17.705  43.641  1.00  0.00     0.162 HD
BRANCH  32  34
HETATM   34  C16 UNL     1      12.516  16.791  43.113  1.00  0.00     0.084 A 
HETATM   35  C17 UNL     1      11.900  18.112  42.714  1.00  0.00     0.027 A 
HETATM   36  C18 UNL     1      12.302  17.097  41.682  1.00  0.00     0.027 A 
ENDBRANCH  32  34
ENDBRANCH  30  32
ENDBRANCH  29  30
ENDBRANCH  28  29
ENDBRANCH  27  28
ENDBRANCH  16  27
TORSDOF 7
ENDMDL
MODEL 4
REMARK VINA RESULT: -7.920905540      4.273      5.961
REMARK  7 active torsions:
REMARK  status: ('A' for Active; 'I' for Inactive)
REMARK       I    between atoms: N1_2  and  C2_4 
REMARK    1  A    between atoms: C2_4  and  C3_6 
REMARK    2  A    between atoms: N3_21  and  C13_22 
REMARK    3  A    between atoms: C13_22  and  C14_23 
REMARK    4  A    between atoms: C14_23  and  O6_24 
REMARK    5  A    between atoms: O6_24  and  C15_25 
REMARK    6  A    between atoms: C15_25  and  N4_27 
REMARK    7  A    between atoms: N4_27  and  C16_29 
ROOT
HETATM    1  C3  UNL     1       8.940  24.874  47.531  1.00  0.00     0.121 C 
HETATM    2  C4  UNL     1       7.646  25.693  47.616  1.00  0.00     0.052 C 
HETATM    3  C5  UNL     1       6.629  24.982  46.792  1.00  0.00     0.158 C 
HETATM    4  O2  UNL     1       6.100  25.750  45.764  1.00  0.00    -0.348 OA
HETATM    5  C6  UNL     1       6.385  25.127  44.574  1.00  0.00     0.158 C 
HETATM    6  C7  UNL     1       5.388  24.069  44.194  1.00  0.00     0.078 C 
HETATM    7  C8  UNL     1       6.600  26.051  43.415  1.00  0.00     0.078 C 
HETATM    8  O3  UNL     1       7.601  24.466  44.834  1.00  0.00    -0.345 OA
HETATM    9  C9  UNL     1       7.342  23.872  46.023  1.00  0.00     0.192 C 
HETATM   10  C10 UNL     1       8.515  23.609  46.936  1.00  0.00     0.133 C 
HETATM   11  O4  UNL     1       7.868  22.876  47.978  1.00  0.00    -0.260 OA
HETATM   12  N2  UNL     1       8.664  22.555  48.986  1.00  0.00    -0.217 N 
HETATM   13  C11 UNL     1       8.363  22.862  50.360  1.00  0.00     0.272 C 
HETATM   14  O5  UNL     1       7.448  23.671  50.629  1.00  0.00    -0.269 OA
HETATM   15  C12 UNL     1       9.121  22.228  51.443  1.00  0.00     0.377 C 
HETATM   16  N3  UNL     1      10.452  21.840  51.138  1.00  0.00     0.101 N 
HETATM   17  C19 UNL     1      10.922  22.160  49.827  1.00  0.00     0.300 C 
HETATM   18  C20 UNL     1       9.889  21.853  48.752  1.00  0.00     0.147 C 
HETATM   19  C21 UNL     1      10.495  22.191  47.451  1.00  0.00     0.037 C 
HETATM   20  C22 UNL     1       9.508  22.661  46.402  1.00  0.00     0.024 C 
HETATM   21  C23 UNL     1      10.278  22.992  45.192  1.00  0.00     0.013 C 
ENDROOT
BRANCH   1  22
HETATM   22  C2  UNL     1      10.024  25.638  46.944  1.00  0.00     0.228 C 
HETATM   23  N1  UNL     1       9.763  26.551  45.892  1.00  0.00    -0.347 N 
HETATM   24  C1  UNL     1      10.266  27.739  45.853  1.00  0.00     0.121 C 
ATOM     25  H1  UNL     1       9.149  26.256  45.132  1.00  0.00     0.167 HD
HETATM   26  O1  UNL     1      11.224  25.552  47.308  1.00  0.00    -0.273 OA
ENDBRANCH   1  22
BRANCH  16  27
HETATM   27  C13 UNL     1      10.772  20.467  51.524  1.00  0.00     0.299 C 
BRANCH  27  28
HETATM   28  C14 UNL     1       9.458  19.791  51.819  1.00  0.00     0.208 C 
BRANCH  28  29
HETATM   29  O6  UNL     1       8.999  18.849  50.981  1.00  0.00    -0.325 OA
BRANCH  29  30
HETATM   30  C15 UNL     1       8.586  18.740  49.726  1.00  0.00     0.210 C 
HETATM   31  S1  UNL     1       9.714  18.380  48.535  1.00  0.00    -0.033 SA
BRANCH  30  32
HETATM   32  N4  UNL     1       7.266  18.896  49.263  1.00  0.00    -0.357 N 
ATOM     33  H4  UNL     1       6.958  19.772  48.841  1.00  0.00     0.162 HD
BRANCH  32  34
HETATM   34  C16 UNL     1       6.344  17.761  49.405  1.00  0.00     0.084 A 
HETATM   35  C17 UNL     1       5.482  17.434  48.209  1.00  0.00     0.027 A 
HETATM   36  C18 UNL     1       6.614  16.537  48.621  1.00  0.00     0.027 A 
ENDBRANCH  32  34
ENDBRANCH  30  32
ENDBRANCH  29  30
ENDBRANCH  28  29
ENDBRANCH  27  28
ENDBRANCH  16  27
TORSDOF 7
ENDMDL
MODEL 5
REMARK VINA RESULT: -7.909000729      2.126      3.186
REMARK  7 active torsions:
REMARK  status: ('A' for Active; 'I' for Inactive)
REMARK       I    between atoms: N1_2  and  C2_4 
REMARK    1  A    between atoms: C2_4  and  C3_6 
REMARK    2  A    between atoms: N3_21  and  C13_22 
REMARK    3  A    between atoms: C13_22  and  C14_23 
REMARK    4  A    between atoms: C14_23  and  O6_24 
REMARK    5  A    between atoms: O6_24  and  C15_25 
REMARK    6  A    between atoms: C15_25  and  N4_27 
REMARK    7  A    between atoms: N4_27  and  C16_29 
ROOT
HETATM    1  C3  UNL     1      10.137  19.126  47.541  1.00  0.00     0.121 C 
HETATM    2  C4  UNL     1       9.540  20.213  46.638  1.00  0.00     0.052 C 
HETATM    3  C5  UNL     1      10.123  21.511  47.079  1.00  0.00     0.158 C 
HETATM    4  O2  UNL     1       9.178  22.448  47.474  1.00  0.00    -0.348 OA
HETATM    5  C6  UNL     1       9.416  22.768  48.788  1.00  0.00     0.158 C 
HETATM    6  C7  UNL     1      10.448  23.846  48.968  1.00  0.00     0.078 C 
HETATM    7  C8  UNL     1       8.194  23.108  49.584  1.00  0.00     0.078 C 
HETATM    8  O3  UNL     1       9.965  21.585  49.318  1.00  0.00    -0.345 OA
HETATM    9  C9  UNL     1      10.886  21.264  48.378  1.00  0.00     0.192 C 
HETATM   10  C10 UNL     1      11.237  19.804  48.224  1.00  0.00     0.133 C 
HETATM   11  O4  UNL     1      12.299  19.897  47.273  1.00  0.00    -0.260 OA
HETATM   12  N2  UNL     1      12.778  18.725  46.883  1.00  0.00    -0.217 N 
HETATM   13  C11 UNL     1      12.894  18.339  45.501  1.00  0.00     0.272 C 
HETATM   14  O5  UNL     1      12.309  19.005  44.619  1.00  0.00    -0.269 OA
HETATM   15  C12 UNL     1      13.697  17.171  45.124  1.00  0.00     0.377 C 
HETATM   16  N3  UNL     1      13.819  16.148  46.101  1.00  0.00     0.101 N 
HETATM   17  C19 UNL     1      13.100  16.345  47.320  1.00  0.00     0.300 C 
HETATM   18  C20 UNL     1      13.232  17.768  47.844  1.00  0.00     0.147 C 
HETATM   19  C21 UNL     1      12.482  17.840  49.112  1.00  0.00     0.037 C 
HETATM   20  C22 UNL     1      11.873  19.196  49.404  1.00  0.00     0.024 C 
HETATM   21  C23 UNL     1      11.134  19.082  50.672  1.00  0.00     0.013 C 
ENDROOT
BRANCH   1  22
HETATM   22  C2  UNL     1       9.114  18.434  48.299  1.00  0.00     0.228 C 
HETATM   23  N1  UNL     1       8.048  19.161  48.887  1.00  0.00    -0.347 N 
HETATM   24  C1  UNL     1       6.817  18.779  48.823  1.00  0.00     0.121 C 
ATOM     25  H1  UNL     1       8.265  20.025  49.384  1.00  0.00     0.167 HD
HETATM   26  O1  UNL     1       9.094  17.190  48.484  1.00  0.00    -0.273 OA
ENDBRANCH   1  22
BRANCH  16  27
HETATM   27  C13 UNL     1      15.193  15.709  46.330  1.00  0.00     0.299 C 
BRANCH  27  28
HETATM   28  C14 UNL     1      15.818  15.537  44.970  1.00  0.00     0.208 C 
BRANCH  28  29
HETATM   29  O6  UNL     1      15.425  14.519  44.188  1.00  0.00    -0.325 OA
BRANCH  29  30
HETATM   30  C15 UNL     1      14.922  14.323  42.977  1.00  0.00     0.210 C 
HETATM   31  S1  UNL     1      15.015  12.787  42.305  1.00  0.00    -0.033 SA
BRANCH  30  32
HETATM   32  N4  UNL     1      14.299  15.288  42.164  1.00  0.00    -0.357 N 
ATOM     33  H4  UNL     1      14.768  15.662  41.340  1.00  0.00     0.162 HD
BRANCH  32  34
HETATM   34  C16 UNL     1      12.951  15.741  42.537  1.00  0.00     0.084 A 
HETATM   35  C17 UNL     1      12.376  16.886  41.737  1.00  0.00     0.027 A 
HETATM   36  C18 UNL     1      11.842  15.489  41.594  1.00  0.00     0.027 A 
ENDBRANCH  32  34
ENDBRANCH  30  32
ENDBRANCH  29  30
ENDBRANCH  28  29
ENDBRANCH  27  28
ENDBRANCH  16  27
TORSDOF 7
ENDMDL
