MODEL 1
REMARK VINA RESULT: -7.871443487      0.000      0.000
REMARK  5 active torsions:
REMARK  status: ('A' for Active; 'I' for Inactive)
REMARK    1  A    between atoms: C1_2  and  C2_4 
REMARK    2  A    between atoms: C7_9  and  C8_10 
REMARK    3  A    between atoms: C8_10  and  N2_11 
REMARK       I    between atoms: N3_14  and  C11_15 
REMARK    4  A    between atoms: C11_15  and  C12_17 
REMARK    5  A    between atoms: C15_20  and  C16_21 
ROOT
HETATM    1  N2  UNL     1      39.410   4.068  62.442  1.00  0.00     0.092 N 
HETATM    2  C9  UNL     1      39.586   4.666  61.111  1.00  0.00     0.292 C 
HETATM    3  C10 UNL     1      40.265   5.996  61.213  1.00  0.00     0.156 C 
HETATM    4  N3  UNL     1      41.526   5.819  61.928  1.00  0.00    -0.348 N 
HETATM    5  C11 UNL     1      42.684   6.410  61.383  1.00  0.00     0.226 C 
HETATM    6  O2  UNL     1      42.511   7.071  60.286  1.00  0.00    -0.273 OA
HETATM    7  C21 UNL     1      41.528   5.073  63.141  1.00  0.00     0.156 C 
HETATM    8  C22 UNL     1      40.654   3.838  63.068  1.00  0.00     0.292 C 
ENDROOT
BRANCH   5   9
HETATM    9  C12 UNL     1      44.057   6.328  61.963  1.00  0.00     0.102 C 
HETATM   10  C13 UNL     1      44.593   7.677  62.397  1.00  0.00     0.017 C 
HETATM   11  C14 UNL     1      44.999   7.688  63.866  1.00  0.00     0.016 C 
HETATM   12  C15 UNL     1      46.375   7.134  64.093  1.00  0.00     0.117 C 
HETATM   13  C17 UNL     1      46.385   5.746  64.658  1.00  0.00     0.181 C 
HETATM   14  O3  UNL     1      46.553   4.755  63.699  1.00  0.00    -0.388 OA
HETATM   15  C18 UNL     1      45.578   3.789  63.696  1.00  0.00     0.193 C 
HETATM   16  C19 UNL     1      44.954   3.729  62.296  1.00  0.00     0.193 C 
HETATM   17  O4  UNL     1      45.636   4.552  61.446  1.00  0.00    -0.388 OA
HETATM   18  C20 UNL     1      44.995   5.671  61.001  1.00  0.00     0.181 C 
BRANCH  12  19
HETATM   19  C16 UNL     1      47.130   8.029  65.052  1.00  0.00     0.393 C 
HETATM   20  F1  UNL     1      48.494   7.850  64.899  1.00  0.00    -0.171 F 
HETATM   21  F2  UNL     1      46.800   7.689  66.346  1.00  0.00    -0.171 F 
HETATM   22  F3  UNL     1      46.805   9.357  64.866  1.00  0.00    -0.171 F 
ENDBRANCH  12  19
ENDBRANCH   5   9
BRANCH   1  23
HETATM   23  C8  UNL     1      38.377   4.714  63.172  1.00  0.00     0.278 C 
BRANCH  23  24
HETATM   24  C7  UNL     1      37.375   3.725  63.683  1.00  0.00     0.026 C 
HETATM   25  C2  UNL     1      37.277   3.676  65.197  1.00  0.00     0.081 C 
HETATM   26  C3  UNL     1      36.987   5.061  65.729  1.00  0.00     0.014 C 
HETATM   27  C4  UNL     1      35.746   5.592  65.085  1.00  0.00     0.001 C 
HETATM   28  C5  UNL     1      35.065   4.587  64.217  1.00  0.00     0.000 C 
HETATM   29  C6  UNL     1      35.984   4.003  63.178  1.00  0.00     0.007 C 
BRANCH  25  30
HETATM   30  C1  UNL     1      38.420   3.063  65.865  1.00  0.00     0.235 C 
HETATM   31  N1  UNL     1      39.419   3.897  66.427  1.00  0.00    -0.062 NA
HETATM   32  O1  UNL     1      38.529   1.823  65.946  1.00  0.00    -0.276 OA
ENDBRANCH  25  30
ENDBRANCH  23  24
ENDBRANCH   1  23
TORSDOF 5
ENDMDL
MODEL 2
REMARK VINA RESULT: -7.655696244      1.726      2.169
REMARK  5 active torsions:
REMARK  status: ('A' for Active; 'I' for Inactive)
REMARK    1  A    between atoms: C1_2  and  C2_4 
REMARK    2  A    between atoms: C7_9  and  C8_10 
REMARK    3  A    between atoms: C8_10  and  N2_11 
REMARK       I    between atoms: N3_14  and  C11_15 
REMARK    4  A    between atoms: C11_15  and  C12_17 
REMARK    5  A    between atoms: C15_20  and  C16_21 
ROOT
HETATM    1  N2  UNL     1      37.564   4.447  61.595  1.00  0.00     0.092 N 
HETATM    2  C9  UNL     1      37.930   5.116  60.339  1.00  0.00     0.292 C 
HETATM    3  C10 UNL     1      38.750   6.338  60.609  1.00  0.00     0.156 C 
HETATM    4  N3  UNL     1      39.911   5.952  61.406  1.00  0.00    -0.348 N 
HETATM    5  C11 UNL     1      41.175   6.432  61.009  1.00  0.00     0.226 C 
HETATM    6  O2  UNL     1      41.183   7.190  59.962  1.00  0.00    -0.273 OA
HETATM    7  C21 UNL     1      39.714   5.122  62.547  1.00  0.00     0.156 C 
HETATM    8  C22 UNL     1      38.710   4.016  62.299  1.00  0.00     0.292 C 
ENDROOT
BRANCH   5   9
HETATM    9  C12 UNL     1      42.470   6.135  61.690  1.00  0.00     0.102 C 
HETATM   10  C13 UNL     1      43.202   7.386  62.133  1.00  0.00     0.017 C 
HETATM   11  C14 UNL     1      43.502   7.376  63.628  1.00  0.00     0.016 C 
HETATM   12  C15 UNL     1      44.743   6.602  63.966  1.00  0.00     0.117 C 
HETATM   13  C17 UNL     1      44.472   5.252  64.559  1.00  0.00     0.181 C 
HETATM   14  O3  UNL     1      44.531   4.216  63.637  1.00  0.00    -0.388 OA
HETATM   15  C18 UNL     1      43.405   3.432  63.584  1.00  0.00     0.193 C 
HETATM   16  C19 UNL     1      42.877   3.433  62.142  1.00  0.00     0.193 C 
HETATM   17  O4  UNL     1      43.749   4.097  61.327  1.00  0.00    -0.388 OA
HETATM   18  C20 UNL     1      43.344   5.294  60.814  1.00  0.00     0.181 C 
BRANCH  12  19
HETATM   19  C16 UNL     1      45.574   7.386  64.959  1.00  0.00     0.393 C 
HETATM   20  F1  UNL     1      44.780   7.825  66.004  1.00  0.00    -0.171 F 
HETATM   21  F2  UNL     1      46.104   8.493  64.334  1.00  0.00    -0.171 F 
HETATM   22  F3  UNL     1      46.621   6.631  65.446  1.00  0.00    -0.171 F 
ENDBRANCH  12  19
ENDBRANCH   5   9
BRANCH   1  23
HETATM   23  C8  UNL     1      36.553   5.160  62.292  1.00  0.00     0.278 C 
BRANCH  23  24
HETATM   24  C7  UNL     1      35.671   4.231  63.068  1.00  0.00     0.026 C 
HETATM   25  C2  UNL     1      35.462   4.647  64.513  1.00  0.00     0.081 C 
HETATM   26  C3  UNL     1      34.928   6.061  64.559  1.00  0.00     0.014 C 
HETATM   27  C4  UNL     1      33.678   6.148  63.744  1.00  0.00     0.001 C 
HETATM   28  C5  UNL     1      33.224   4.822  63.231  1.00  0.00     0.000 C 
HETATM   29  C6  UNL     1      34.299   4.101  62.463  1.00  0.00     0.007 C 
BRANCH  25  30
HETATM   30  C1  UNL     1      36.626   4.475  65.374  1.00  0.00     0.235 C 
HETATM   31  N1  UNL     1      37.399   3.291  65.261  1.00  0.00    -0.062 NA
HETATM   32  O1  UNL     1      36.950   5.348  66.203  1.00  0.00    -0.276 OA
ENDBRANCH  25  30
ENDBRANCH  23  24
ENDBRANCH   1  23
TORSDOF 5
ENDMDL
MODEL 3
REMARK VINA RESULT: -7.627751947      5.583     10.062
REMARK  5 active torsions:
REMARK  status: ('A' for Active; 'I' for Inactive)
REMARK    1  A    between atoms: C1_2  and  C2_4 
REMARK    2  A    between atoms: C7_9  and  C8_10 
REMARK    3  A    between atoms: C8_10  and  N2_11 
REMARK       I    between atoms: N3_14  and  C11_15 
REMARK    4  A    between atoms: C11_15  and  C12_17 
REMARK    5  A    between atoms: C15_20  and  C16_21 
ROOT
HETATM    1  N2  UNL     1      40.121   4.587  61.907  1.00  0.00     0.092 N 
HETATM    2  C9  UNL     1      39.972   3.668  63.044  1.00  0.00     0.292 C 
HETATM    3  C10 UNL     1      39.009   4.220  64.049  1.00  0.00     0.156 C 
HETATM    4  N3  UNL     1      37.744   4.501  63.375  1.00  0.00    -0.348 N 
HETATM    5  C11 UNL     1      36.556   4.059  63.988  1.00  0.00     0.226 C 
HETATM    6  O2  UNL     1      36.703   3.443  65.115  1.00  0.00    -0.273 OA
HETATM    7  C21 UNL     1      37.769   5.214  62.142  1.00  0.00     0.156 C 
HETATM    8  C22 UNL     1      38.895   4.770  61.232  1.00  0.00     0.292 C 
ENDROOT
BRANCH   5   9
HETATM    9  C12 UNL     1      35.177   4.244  63.446  1.00  0.00     0.102 C 
HETATM   10  C13 UNL     1      34.279   5.031  64.378  1.00  0.00     0.017 C 
HETATM   11  C14 UNL     1      33.688   6.262  63.702  1.00  0.00     0.016 C 
HETATM   12  C15 UNL     1      32.467   5.948  62.887  1.00  0.00     0.117 C 
HETATM   13  C17 UNL     1      32.715   5.920  61.409  1.00  0.00     0.181 C 
HETATM   14  O3  UNL     1      32.921   4.644  60.902  1.00  0.00    -0.388 OA
HETATM   15  C18 UNL     1      34.091   4.488  60.201  1.00  0.00     0.193 C 
HETATM   16  C19 UNL     1      34.895   3.347  60.840  1.00  0.00     0.193 C 
HETATM   17  O4  UNL     1      34.156   2.749  61.821  1.00  0.00    -0.388 OA
HETATM   18  C20 UNL     1      34.563   2.921  63.111  1.00  0.00     0.181 C 
BRANCH  12  19
HETATM   19  C16 UNL     1      31.397   6.984  63.157  1.00  0.00     0.393 C 
HETATM   20  F1  UNL     1      30.363   6.851  62.245  1.00  0.00    -0.171 F 
HETATM   21  F2  UNL     1      31.935   8.243  63.008  1.00  0.00    -0.171 F 
HETATM   22  F3  UNL     1      30.908   6.881  64.443  1.00  0.00    -0.171 F 
ENDBRANCH  12  19
ENDBRANCH   5   9
BRANCH   1  23
HETATM   23  C8  UNL     1      40.896   5.725  62.254  1.00  0.00     0.278 C 
BRANCH  23  24
HETATM   24  C7  UNL     1      42.323   5.559  61.829  1.00  0.00     0.026 C 
HETATM   25  C2  UNL     1      43.181   6.789  62.066  1.00  0.00     0.081 C 
HETATM   26  C3  UNL     1      43.095   7.192  63.520  1.00  0.00     0.014 C 
HETATM   27  C4  UNL     1      43.490   6.035  64.382  1.00  0.00     0.001 C 
HETATM   28  C5  UNL     1      43.986   4.867  63.596  1.00  0.00     0.000 C 
HETATM   29  C6  UNL     1      43.007   4.423  62.542  1.00  0.00     0.007 C 
BRANCH  25  30
HETATM   30  C1  UNL     1      42.906   7.908  61.172  1.00  0.00     0.235 C 
HETATM   31  N1  UNL     1      43.061   7.729  59.774  1.00  0.00    -0.062 NA
HETATM   32  O1  UNL     1      42.538   9.013  61.618  1.00  0.00    -0.276 OA
ENDBRANCH  25  30
ENDBRANCH  23  24
ENDBRANCH   1  23
TORSDOF 5
ENDMDL
MODEL 4
REMARK VINA RESULT: -7.559600134      5.301      9.487
REMARK  5 active torsions:
REMARK  status: ('A' for Active; 'I' for Inactive)
REMARK    1  A    between atoms: C1_2  and  C2_4 
REMARK    2  A    between atoms: C7_9  and  C8_10 
REMARK    3  A    between atoms: C8_10  and  N2_11 
REMARK       I    between atoms: N3_14  and  C11_15 
REMARK    4  A    between atoms: C11_15  and  C12_17 
REMARK    5  A    between atoms: C15_20  and  C16_21 
ROOT
HETATM    1  N2  UNL     1      41.185   4.354  62.915  1.00  0.00     0.092 N 
HETATM    2  C9  UNL     1      40.815   3.493  64.047  1.00  0.00     0.292 C 
HETATM    3  C10 UNL     1      39.724   4.122  64.856  1.00  0.00     0.156 C 
HETATM    4  N3  UNL     1      38.599   4.413  63.973  1.00  0.00    -0.348 N 
HETATM    5  C11 UNL     1      37.309   4.038  64.399  1.00  0.00     0.226 C 
HETATM    6  O2  UNL     1      37.246   3.470  65.558  1.00  0.00    -0.273 OA
HETATM    7  C21 UNL     1      38.852   5.068  62.734  1.00  0.00     0.156 C 
HETATM    8  C22 UNL     1      40.093   4.547  62.040  1.00  0.00     0.292 C 
ENDROOT
BRANCH   5   9
HETATM    9  C12 UNL     1      36.046   4.243  63.630  1.00  0.00     0.102 C 
HETATM   10  C13 UNL     1      34.943   4.861  64.465  1.00  0.00     0.017 C 
HETATM   11  C14 UNL     1      34.411   6.150  63.850  1.00  0.00     0.016 C 
HETATM   12  C15 UNL     1      33.384   5.904  62.782  1.00  0.00     0.117 C 
HETATM   13  C17 UNL     1      33.903   6.088  61.388  1.00  0.00     0.181 C 
HETATM   14  O3  UNL     1      34.280   4.901  60.772  1.00  0.00    -0.388 OA
HETATM   15  C18 UNL     1      35.567   4.887  60.295  1.00  0.00     0.193 C 
HETATM   16  C19 UNL     1      36.308   3.701  60.926  1.00  0.00     0.193 C 
HETATM   17  O4  UNL     1      35.439   2.947  61.663  1.00  0.00    -0.388 OA
HETATM   18  C20 UNL     1      35.588   2.957  63.019  1.00  0.00     0.181 C 
BRANCH  12  19
HETATM   19  C16 UNL     1      32.219   6.852  62.971  1.00  0.00     0.393 C 
HETATM   20  F1  UNL     1      31.559   6.568  64.154  1.00  0.00    -0.171 F 
HETATM   21  F2  UNL     1      31.326   6.687  61.935  1.00  0.00    -0.171 F 
HETATM   22  F3  UNL     1      32.634   8.168  62.967  1.00  0.00    -0.171 F 
ENDBRANCH  12  19
ENDBRANCH   5   9
BRANCH   1  23
HETATM   23  C8  UNL     1      41.937   5.481  63.339  1.00  0.00     0.278 C 
BRANCH  23  24
HETATM   24  C7  UNL     1      42.937   5.101  64.388  1.00  0.00     0.026 C 
HETATM   25  C2  UNL     1      44.333   4.856  63.845  1.00  0.00     0.081 C 
HETATM   26  C3  UNL     1      44.796   6.072  63.076  1.00  0.00     0.014 C 
HETATM   27  C4  UNL     1      44.719   7.279  63.957  1.00  0.00     0.001 C 
HETATM   28  C5  UNL     1      44.351   6.949  65.365  1.00  0.00     0.000 C 
HETATM   29  C6  UNL     1      43.077   6.153  65.457  1.00  0.00     0.007 C 
BRANCH  25  30
HETATM   30  C1  UNL     1      44.482   3.630  63.071  1.00  0.00     0.235 C 
HETATM   31  N1  UNL     1      44.309   2.380  63.717  1.00  0.00    -0.062 NA
HETATM   32  O1  UNL     1      44.758   3.666  61.855  1.00  0.00    -0.276 OA
ENDBRANCH  25  30
ENDBRANCH  23  24
ENDBRANCH   1  23
TORSDOF 5
ENDMDL
MODEL 5
REMARK VINA RESULT: -7.538580574      5.324      9.460
REMARK  5 active torsions:
REMARK  status: ('A' for Active; 'I' for Inactive)
REMARK    1  A    between atoms: C1_2  and  C2_4 
REMARK    2  A    between atoms: C7_9  and  C8_10 
REMARK    3  A    between atoms: C8_10  and  N2_11 
REMARK       I    between atoms: N3_14  and  C11_15 
REMARK    4  A    between atoms: C11_15  and  C12_17 
REMARK    5  A    between atoms: C15_20  and  C16_21 
ROOT
HETATM    1  N2  UNL     1      41.261   4.452  63.120  1.00  0.00     0.092 N 
HETATM    2  C9  UNL     1      40.859   3.367  64.026  1.00  0.00     0.292 C 
HETATM    3  C10 UNL     1      39.703   3.789  64.878  1.00  0.00     0.156 C 
HETATM    4  N3  UNL     1      38.619   4.230  64.004  1.00  0.00    -0.348 N 
HETATM    5  C11 UNL     1      37.322   3.745  64.263  1.00  0.00     0.226 C 
HETATM    6  O2  UNL     1      37.214   2.948  65.275  1.00  0.00    -0.273 OA
HETATM    7  C21 UNL     1      38.918   5.133  62.944  1.00  0.00     0.156 C 
HETATM    8  C22 UNL     1      40.214   4.796  62.237  1.00  0.00     0.292 C 
ENDROOT
BRANCH   5   9
HETATM    9  C12 UNL     1      36.097   4.075  63.475  1.00  0.00     0.102 C 
HETATM   10  C13 UNL     1      34.982   4.639  64.331  1.00  0.00     0.017 C 
HETATM   11  C14 UNL     1      34.515   6.005  63.839  1.00  0.00     0.016 C 
HETATM   12  C15 UNL     1      33.525   5.910  62.714  1.00  0.00     0.117 C 
HETATM   13  C17 UNL     1      34.105   6.222  61.368  1.00  0.00     0.181 C 
HETATM   14  O3  UNL     1      34.468   5.095  60.642  1.00  0.00    -0.388 OA
HETATM   15  C18 UNL     1      35.772   5.086  60.213  1.00  0.00     0.193 C 
HETATM   16  C19 UNL     1      36.450   3.814  60.740  1.00  0.00     0.193 C 
HETATM   17  O4  UNL     1      35.530   3.017  61.359  1.00  0.00    -0.388 OA
HETATM   18  C20 UNL     1      35.625   2.878  62.713  1.00  0.00     0.181 C 
BRANCH  12  19
HETATM   19  C16 UNL     1      32.384   6.873  62.962  1.00  0.00     0.393 C 
HETATM   20  F1  UNL     1      31.765   6.582  64.165  1.00  0.00    -0.171 F 
HETATM   21  F2  UNL     1      31.449   6.736  61.959  1.00  0.00    -0.171 F 
HETATM   22  F3  UNL     1      32.820   8.182  62.960  1.00  0.00    -0.171 F 
ENDBRANCH  12  19
ENDBRANCH   5   9
BRANCH   1  23
HETATM   23  C8  UNL     1      41.948   5.483  63.813  1.00  0.00     0.278 C 
BRANCH  23  24
HETATM   24  C7  UNL     1      43.300   5.730  63.217  1.00  0.00     0.026 C 
HETATM   25  C2  UNL     1      44.417   5.810  64.242  1.00  0.00     0.081 C 
HETATM   26  C3  UNL     1      44.420   4.554  65.083  1.00  0.00     0.014 C 
HETATM   27  C4  UNL     1      44.534   3.358  64.193  1.00  0.00     0.001 C 
HETATM   28  C5  UNL     1      44.750   3.717  62.760  1.00  0.00     0.000 C 
HETATM   29  C6  UNL     1      43.701   4.660  62.237  1.00  0.00     0.007 C 
BRANCH  25  30
HETATM   30  C1  UNL     1      44.411   7.016  65.061  1.00  0.00     0.235 C 
HETATM   31  N1  UNL     1      45.485   7.935  64.944  1.00  0.00    -0.062 NA
HETATM   32  O1  UNL     1      43.481   7.249  65.858  1.00  0.00    -0.276 OA
ENDBRANCH  25  30
ENDBRANCH  23  24
ENDBRANCH   1  23
TORSDOF 5
ENDMDL
