MODEL 1
REMARK VINA RESULT: -7.436700773      0.000      0.000
REMARK  7 active torsions:
REMARK  status: ('A' for Active; 'I' for Inactive)
REMARK    1  A    between atoms: O1_2  and  C2_3 
REMARK    2  A    between atoms: C2_3  and  C3_5 
REMARK       I    between atoms: N1_7  and  C5_8 
REMARK    3  A    between atoms: C5_8  and  C6_10 
REMARK       I    between atoms: N2_14  and  C10_15 
REMARK    4  A    between atoms: C10_15  and  C11_17 
REMARK    5  A    between atoms: N3_19  and  C13_21 
REMARK    6  A    between atoms: C13_21  and  N4_23 
REMARK    7  A    between atoms: N4_23  and  C15_25 
ROOT
HETATM    1  C6  UNL     1      32.957   6.288  60.041  1.00  0.00     0.179 C 
HETATM    2  C7  UNL     1      33.765   7.000  58.968  1.00  0.00     0.037 C 
HETATM    3  C8  UNL     1      33.296   6.356  57.695  1.00  0.00     0.022 C 
HETATM    4  C9  UNL     1      31.930   5.823  57.960  1.00  0.00     0.127 C 
HETATM    5  N2  UNL     1      31.727   5.918  59.420  1.00  0.00    -0.334 N 
HETATM    6  C10 UNL     1      30.488   5.664  60.018  1.00  0.00     0.266 C 
HETATM    7  O4  UNL     1      29.511   5.359  59.254  1.00  0.00    -0.266 OA
ENDROOT
BRANCH   1   8
HETATM    8  C5  UNL     1      33.654   5.090  60.542  1.00  0.00     0.244 C 
HETATM    9  N1  UNL     1      34.573   5.161  61.658  1.00  0.00    -0.321 N 
HETATM   10  C3  UNL     1      35.357   4.162  62.316  1.00  0.00     0.187 C 
HETATM   11  C19 UNL     1      35.094   6.153  62.540  1.00  0.00     0.209 C 
HETATM   12  C4  UNL     1      34.550   2.929  62.674  1.00  0.00     0.057 C 
HETATM   13  C20 UNL     1      35.656   5.086  63.426  1.00  0.00     0.293 C 
HETATM   14  F1  UNL     1      34.926   4.875  64.582  1.00  0.00    -0.201 F 
HETATM   15  F2  UNL     1      37.006   5.311  63.666  1.00  0.00    -0.201 F 
HETATM   16  O3  UNL     1      33.423   4.003  59.962  1.00  0.00    -0.271 OA
BRANCH  10  17
HETATM   17  C2  UNL     1      36.630   3.823  61.587  1.00  0.00     0.293 C 
HETATM   18  O2  UNL     1      37.301   2.814  61.873  1.00  0.00    -0.262 OA
BRANCH  17  19
HETATM   19  O1  UNL     1      37.098   4.644  60.559  1.00  0.00    -0.324 OA
HETATM   20  C1  UNL     1      37.080   4.264  59.204  1.00  0.00     0.213 C 
ENDBRANCH  17  19
ENDBRANCH  10  17
ENDBRANCH   1   8
BRANCH   6  21
HETATM   21  C11 UNL     1      30.181   5.710  61.442  1.00  0.00     0.071 C 
HETATM   22  C12 UNL     1      29.076   4.817  61.933  1.00  0.00     0.074 C 
HETATM   23  N3  UNL     1      30.792   6.449  62.199  1.00  0.00    -0.369 N 
ATOM     24  H3  UNL     1      31.478   6.950  61.634  1.00  0.00     0.161 HD
BRANCH  23  25
HETATM   25  C13 UNL     1      30.944   6.890  63.495  1.00  0.00     0.173 C 
HETATM   26  C14 UNL     1      31.803   6.016  64.343  1.00  0.00     0.055 C 
BRANCH  25  27
HETATM   27  N4  UNL     1      29.750   7.351  64.155  1.00  0.00    -0.394 N 
ATOM     28  H4  UNL     1      29.440   6.918  65.025  1.00  0.00     0.156 HD
BRANCH  27  29
HETATM   29  C15 UNL     1      29.017   8.404  63.587  1.00  0.00     0.016 C 
HETATM   30  C16 UNL     1      28.510   9.244  64.788  1.00  0.00     0.037 C 
HETATM   31  C17 UNL     1      29.788   9.384  62.743  1.00  0.00     0.037 C 
HETATM   32  C18 UNL     1      27.735   7.999  62.865  1.00  0.00     0.037 C 
ENDBRANCH  27  29
ENDBRANCH  25  27
ENDBRANCH  23  25
ENDBRANCH   6  21
TORSDOF 7
ENDMDL
MODEL 2
REMARK VINA RESULT: -6.986533290      7.833     11.154
REMARK  7 active torsions:
REMARK  status: ('A' for Active; 'I' for Inactive)
REMARK    1  A    between atoms: O1_2  and  C2_3 
REMARK    2  A    between atoms: C2_3  and  C3_5 
REMARK       I    between atoms: N1_7  and  C5_8 
REMARK    3  A    between atoms: C5_8  and  C6_10 
REMARK       I    between atoms: N2_14  and  C10_15 
REMARK    4  A    between atoms: C10_15  and  C11_17 
REMARK    5  A    between atoms: N3_19  and  C13_21 
REMARK    6  A    between atoms: C13_21  and  N4_23 
REMARK    7  A    between atoms: N4_23  and  C15_25 
ROOT
HETATM    1  C6  UNL     1      44.139   3.056  62.475  1.00  0.00     0.179 C 
HETATM    2  C7  UNL     1      45.381   2.705  61.671  1.00  0.00     0.037 C 
HETATM    3  C8  UNL     1      45.892   1.464  62.345  1.00  0.00     0.022 C 
HETATM    4  C9  UNL     1      44.725   0.828  63.020  1.00  0.00     0.127 C 
HETATM    5  N2  UNL     1      43.628   1.817  62.963  1.00  0.00    -0.334 N 
HETATM    6  C10 UNL     1      42.321   1.502  63.350  1.00  0.00     0.266 C 
HETATM    7  O4  UNL     1      42.090   0.311  63.746  1.00  0.00    -0.266 OA
ENDROOT
BRANCH   1   8
HETATM    8  C5  UNL     1      44.456   3.955  63.599  1.00  0.00     0.244 C 
HETATM    9  N1  UNL     1      44.670   5.371  63.399  1.00  0.00    -0.321 N 
HETATM   10  C3  UNL     1      44.983   6.429  64.308  1.00  0.00     0.187 C 
HETATM   11  C19 UNL     1      44.680   6.299  62.314  1.00  0.00     0.209 C 
HETATM   12  C4  UNL     1      44.083   6.435  65.529  1.00  0.00     0.057 C 
HETATM   13  C20 UNL     1      44.685   7.443  63.279  1.00  0.00     0.293 C 
HETATM   14  F1  UNL     1      43.460   8.072  63.408  1.00  0.00    -0.201 F 
HETATM   15  F2  UNL     1      45.722   8.321  62.990  1.00  0.00    -0.201 F 
HETATM   16  O3  UNL     1      44.536   3.443  64.741  1.00  0.00    -0.271 OA
BRANCH  10  17
HETATM   17  C2  UNL     1      46.443   6.495  64.670  1.00  0.00     0.293 C 
HETATM   18  O2  UNL     1      46.868   7.277  65.542  1.00  0.00    -0.262 OA
BRANCH  17  19
HETATM   19  O1  UNL     1      47.370   5.672  64.029  1.00  0.00    -0.324 OA
HETATM   20  C1  UNL     1      48.478   6.172  63.319  1.00  0.00     0.213 C 
ENDBRANCH  17  19
ENDBRANCH  10  17
ENDBRANCH   1   8
BRANCH   6  21
HETATM   21  C11 UNL     1      41.173   2.400  63.352  1.00  0.00     0.071 C 
HETATM   22  C12 UNL     1      40.620   2.807  62.015  1.00  0.00     0.074 C 
HETATM   23  N3  UNL     1      40.689   2.808  64.397  1.00  0.00    -0.369 N 
ATOM     24  H3  UNL     1      41.235   2.401  65.155  1.00  0.00     0.161 HD
BRANCH  23  25
HETATM   25  C13 UNL     1      39.715   3.587  64.980  1.00  0.00     0.173 C 
HETATM   26  C14 UNL     1      39.942   3.872  66.426  1.00  0.00     0.055 C 
BRANCH  25  27
HETATM   27  N4  UNL     1      38.352   3.248  64.660  1.00  0.00    -0.394 N 
ATOM     28  H4  UNL     1      38.019   2.290  64.766  1.00  0.00     0.156 HD
BRANCH  27  29
HETATM   29  C15 UNL     1      37.487   4.253  64.201  1.00  0.00     0.016 C 
HETATM   30  C16 UNL     1      36.416   3.516  63.355  1.00  0.00     0.037 C 
HETATM   31  C17 UNL     1      36.694   4.992  65.246  1.00  0.00     0.037 C 
HETATM   32  C18 UNL     1      38.098   5.249  63.219  1.00  0.00     0.037 C 
ENDBRANCH  27  29
ENDBRANCH  25  27
ENDBRANCH  23  25
ENDBRANCH   6  21
TORSDOF 7
ENDMDL
MODEL 3
REMARK VINA RESULT: -6.874129265      3.806      8.205
REMARK  7 active torsions:
REMARK  status: ('A' for Active; 'I' for Inactive)
REMARK    1  A    between atoms: O1_2  and  C2_3 
REMARK    2  A    between atoms: C2_3  and  C3_5 
REMARK       I    between atoms: N1_7  and  C5_8 
REMARK    3  A    between atoms: C5_8  and  C6_10 
REMARK       I    between atoms: N2_14  and  C10_15 
REMARK    4  A    between atoms: C10_15  and  C11_17 
REMARK    5  A    between atoms: N3_19  and  C13_21 
REMARK    6  A    between atoms: C13_21  and  N4_23 
REMARK    7  A    between atoms: N4_23  and  C15_25 
ROOT
HETATM    1  C6  UNL     1      36.302   2.814  61.643  1.00  0.00     0.179 C 
HETATM    2  C7  UNL     1      35.450   1.665  61.126  1.00  0.00     0.037 C 
HETATM    3  C8  UNL     1      35.835   1.573  59.678  1.00  0.00     0.022 C 
HETATM    4  C9  UNL     1      37.202   2.153  59.556  1.00  0.00     0.127 C 
HETATM    5  N2  UNL     1      37.487   2.808  60.850  1.00  0.00    -0.334 N 
HETATM    6  C10 UNL     1      38.752   3.316  61.165  1.00  0.00     0.266 C 
HETATM    7  O4  UNL     1      39.678   3.185  60.296  1.00  0.00    -0.266 OA
ENDROOT
BRANCH   1   8
HETATM    8  C5  UNL     1      35.608   4.108  61.511  1.00  0.00     0.244 C 
HETATM    9  N1  UNL     1      34.873   4.688  62.614  1.00  0.00    -0.321 N 
HETATM   10  C3  UNL     1      34.130   5.904  62.733  1.00  0.00     0.187 C 
HETATM   11  C19 UNL     1      34.557   4.361  63.966  1.00  0.00     0.209 C 
HETATM   12  C4  UNL     1      34.897   7.109  62.221  1.00  0.00     0.057 C 
HETATM   13  C20 UNL     1      34.062   5.755  64.199  1.00  0.00     0.293 C 
HETATM   14  F1  UNL     1      34.941   6.548  64.915  1.00  0.00    -0.201 F 
HETATM   15  F2  UNL     1      32.782   5.735  64.737  1.00  0.00    -0.201 F 
HETATM   16  O3  UNL     1      35.677   4.688  60.402  1.00  0.00    -0.271 OA
BRANCH  10  17
HETATM   17  C2  UNL     1      32.743   5.819  62.154  1.00  0.00     0.293 C 
HETATM   18  O2  UNL     1      32.283   4.751  61.707  1.00  0.00    -0.262 OA
BRANCH  17  19
HETATM   19  O1  UNL     1      31.926   6.949  62.103  1.00  0.00    -0.324 OA
HETATM   20  C1  UNL     1      30.606   6.966  62.593  1.00  0.00     0.213 C 
ENDBRANCH  17  19
ENDBRANCH  10  17
ENDBRANCH   1   8
BRANCH   6  21
HETATM   21  C11 UNL     1      39.138   3.993  62.396  1.00  0.00     0.071 C 
HETATM   22  C12 UNL     1      38.664   5.409  62.576  1.00  0.00     0.074 C 
HETATM   23  N3  UNL     1      39.823   3.435  63.240  1.00  0.00    -0.369 N 
ATOM     24  H3  UNL     1      40.018   2.497  62.889  1.00  0.00     0.161 HD
BRANCH  23  25
HETATM   25  C13 UNL     1      40.442   3.539  64.465  1.00  0.00     0.173 C 
HETATM   26  C14 UNL     1      39.613   3.074  65.613  1.00  0.00     0.055 C 
BRANCH  25  27
HETATM   27  N4  UNL     1      41.151   4.767  64.718  1.00  0.00    -0.394 N 
ATOM     28  H4  UNL     1      40.711   5.516  65.253  1.00  0.00     0.156 HD
BRANCH  27  29
HETATM   29  C15 UNL     1      42.454   4.920  64.221  1.00  0.00     0.016 C 
HETATM   30  C16 UNL     1      43.167   5.864  65.225  1.00  0.00     0.037 C 
HETATM   31  C17 UNL     1      43.315   3.686  64.191  1.00  0.00     0.037 C 
HETATM   32  C18 UNL     1      42.568   5.660  62.890  1.00  0.00     0.037 C 
ENDBRANCH  27  29
ENDBRANCH  25  27
ENDBRANCH  23  25
ENDBRANCH   6  21
TORSDOF 7
ENDMDL
MODEL 4
REMARK VINA RESULT: -6.842947846      2.232      3.743
REMARK  7 active torsions:
REMARK  status: ('A' for Active; 'I' for Inactive)
REMARK    1  A    between atoms: O1_2  and  C2_3 
REMARK    2  A    between atoms: C2_3  and  C3_5 
REMARK       I    between atoms: N1_7  and  C5_8 
REMARK    3  A    between atoms: C5_8  and  C6_10 
REMARK       I    between atoms: N2_14  and  C10_15 
REMARK    4  A    between atoms: C10_15  and  C11_17 
REMARK    5  A    between atoms: N3_19  and  C13_21 
REMARK    6  A    between atoms: C13_21  and  N4_23 
REMARK    7  A    between atoms: N4_23  and  C15_25 
ROOT
HETATM    1  C6  UNL     1      34.951   7.892  60.398  1.00  0.00     0.179 C 
HETATM    2  C7  UNL     1      35.526   9.238  60.809  1.00  0.00     0.037 C 
HETATM    3  C8  UNL     1      36.274   9.684  59.586  1.00  0.00     0.022 C 
HETATM    4  C9  UNL     1      35.651   8.993  58.422  1.00  0.00     0.127 C 
HETATM    5  N2  UNL     1      34.747   7.970  58.988  1.00  0.00    -0.334 N 
HETATM    6  C10 UNL     1      33.861   7.237  58.191  1.00  0.00     0.266 C 
HETATM    7  O4  UNL     1      33.840   7.489  56.940  1.00  0.00    -0.266 OA
ENDROOT
BRANCH   1   8
HETATM    8  C5  UNL     1      35.873   6.787  60.718  1.00  0.00     0.244 C 
HETATM    9  N1  UNL     1      35.398   5.550  61.299  1.00  0.00    -0.321 N 
HETATM   10  C3  UNL     1      36.078   4.356  61.693  1.00  0.00     0.187 C 
HETATM   11  C19 UNL     1      34.158   4.987  61.725  1.00  0.00     0.209 C 
HETATM   12  C4  UNL     1      37.016   3.837  60.620  1.00  0.00     0.057 C 
HETATM   13  C20 UNL     1      34.797   3.637  61.836  1.00  0.00     0.293 C 
HETATM   14  F1  UNL     1      34.482   2.781  60.796  1.00  0.00    -0.201 F 
HETATM   15  F2  UNL     1      34.560   3.086  63.088  1.00  0.00    -0.201 F 
HETATM   16  O3  UNL     1      37.089   6.960  60.468  1.00  0.00    -0.271 OA
BRANCH  10  17
HETATM   17  C2  UNL     1      36.747   4.462  63.037  1.00  0.00     0.293 C 
HETATM   18  O2  UNL     1      37.623   3.654  63.401  1.00  0.00    -0.262 OA
BRANCH  17  19
HETATM   19  O1  UNL     1      36.396   5.482  63.924  1.00  0.00    -0.324 OA
HETATM   20  C1  UNL     1      35.941   5.238  65.234  1.00  0.00     0.213 C 
ENDBRANCH  17  19
ENDBRANCH  10  17
ENDBRANCH   1   8
BRANCH   6  21
HETATM   21  C11 UNL     1      32.942   6.198  58.639  1.00  0.00     0.071 C 
HETATM   22  C12 UNL     1      33.268   4.783  58.251  1.00  0.00     0.074 C 
HETATM   23  N3  UNL     1      31.946   6.470  59.293  1.00  0.00    -0.369 N 
ATOM     24  H3  UNL     1      31.943   7.482  59.420  1.00  0.00     0.161 HD
BRANCH  23  25
HETATM   25  C13 UNL     1      30.827   5.984  59.932  1.00  0.00     0.173 C 
HETATM   26  C14 UNL     1      29.961   5.121  59.079  1.00  0.00     0.055 C 
BRANCH  25  27
HETATM   27  N4  UNL     1      30.096   6.926  60.740  1.00  0.00    -0.394 N 
ATOM     28  H4  UNL     1      29.689   7.761  60.319  1.00  0.00     0.156 HD
BRANCH  27  29
HETATM   29  C15 UNL     1      29.949   6.679  62.113  1.00  0.00     0.016 C 
HETATM   30  C16 UNL     1      28.441   6.378  62.315  1.00  0.00     0.037 C 
HETATM   31  C17 UNL     1      30.650   5.464  62.660  1.00  0.00     0.037 C 
HETATM   32  C18 UNL     1      30.202   7.875  63.027  1.00  0.00     0.037 C 
ENDBRANCH  27  29
ENDBRANCH  25  27
ENDBRANCH  23  25
ENDBRANCH   6  21
TORSDOF 7
ENDMDL
MODEL 5
REMARK VINA RESULT: -6.841091144      2.724      6.300
REMARK  7 active torsions:
REMARK  status: ('A' for Active; 'I' for Inactive)
REMARK    1  A    between atoms: O1_2  and  C2_3 
REMARK    2  A    between atoms: C2_3  and  C3_5 
REMARK       I    between atoms: N1_7  and  C5_8 
REMARK    3  A    between atoms: C5_8  and  C6_10 
REMARK       I    between atoms: N2_14  and  C10_15 
REMARK    4  A    between atoms: C10_15  and  C11_17 
REMARK    5  A    between atoms: N3_19  and  C13_21 
REMARK    6  A    between atoms: C13_21  and  N4_23 
REMARK    7  A    between atoms: N4_23  and  C15_25 
ROOT
HETATM    1  C6  UNL     1      32.605   5.606  59.347  1.00  0.00     0.179 C 
HETATM    2  C7  UNL     1      31.430   5.543  58.384  1.00  0.00     0.037 C 
HETATM    3  C8  UNL     1      31.539   6.831  57.619  1.00  0.00     0.022 C 
HETATM    4  C9  UNL     1      32.966   7.253  57.686  1.00  0.00     0.127 C 
HETATM    5  N2  UNL     1      33.608   6.377  58.688  1.00  0.00    -0.334 N 
HETATM    6  C10 UNL     1      34.991   6.370  58.895  1.00  0.00     0.266 C 
HETATM    7  O4  UNL     1      35.704   7.144  58.171  1.00  0.00    -0.266 OA
ENDROOT
BRANCH   1   8
HETATM    8  C5  UNL     1      32.228   6.243  60.622  1.00  0.00     0.244 C 
HETATM    9  N1  UNL     1      30.916   6.060  61.201  1.00  0.00    -0.321 N 
HETATM   10  C3  UNL     1      30.322   6.561  62.402  1.00  0.00     0.187 C 
HETATM   11  C19 UNL     1      29.705   5.373  60.887  1.00  0.00     0.209 C 
HETATM   12  C4  UNL     1      31.210   6.373  63.616  1.00  0.00     0.057 C 
HETATM   13  C20 UNL     1      29.193   5.620  62.272  1.00  0.00     0.293 C 
HETATM   14  F1  UNL     1      29.252   4.511  63.096  1.00  0.00    -0.201 F 
HETATM   15  F2  UNL     1      27.933   6.203  62.230  1.00  0.00    -0.201 F 
HETATM   16  O3  UNL     1      33.092   6.955  61.188  1.00  0.00    -0.271 OA
BRANCH  10  17
HETATM   17  C2  UNL     1      29.815   7.973  62.275  1.00  0.00     0.293 C 
HETATM   18  O2  UNL     1      29.438   8.440  61.182  1.00  0.00    -0.262 OA
BRANCH  17  19
HETATM   19  O1  UNL     1      29.755   8.808  63.392  1.00  0.00    -0.324 OA
HETATM   20  C1  UNL     1      28.543   9.249  63.957  1.00  0.00     0.213 C 
ENDBRANCH  17  19
ENDBRANCH  10  17
ENDBRANCH   1   8
BRANCH   6  21
HETATM   21  C11 UNL     1      35.724   5.564  59.863  1.00  0.00     0.071 C 
HETATM   22  C12 UNL     1      36.079   4.161  59.458  1.00  0.00     0.074 C 
HETATM   23  N3  UNL     1      36.028   6.010  60.960  1.00  0.00    -0.369 N 
ATOM     24  H3  UNL     1      35.675   6.967  60.998  1.00  0.00     0.161 HD
BRANCH  23  25
HETATM   25  C13 UNL     1      36.646   5.764  62.166  1.00  0.00     0.173 C 
HETATM   26  C14 UNL     1      38.135   5.782  62.106  1.00  0.00     0.055 C 
BRANCH  25  27
HETATM   27  N4  UNL     1      36.107   4.682  62.948  1.00  0.00    -0.394 N 
ATOM     28  H4  UNL     1      36.344   3.715  62.726  1.00  0.00     0.156 HD
BRANCH  27  29
HETATM   29  C15 UNL     1      35.251   4.973  64.021  1.00  0.00     0.016 C 
HETATM   30  C16 UNL     1      36.054   4.607  65.297  1.00  0.00     0.037 C 
HETATM   31  C17 UNL     1      34.879   6.420  64.215  1.00  0.00     0.037 C 
HETATM   32  C18 UNL     1      34.001   4.103  64.122  1.00  0.00     0.037 C 
ENDBRANCH  27  29
ENDBRANCH  25  27
ENDBRANCH  23  25
ENDBRANCH   6  21
TORSDOF 7
ENDMDL
