MODEL 1
REMARK VINA RESULT: -7.631926302      0.000      0.000
REMARK  8 active torsions:
REMARK  status: ('A' for Active; 'I' for Inactive)
REMARK    1  A    between atoms: C2_2  and  O1_3 
REMARK    2  A    between atoms: O1_3  and  C3_4 
REMARK       I    between atoms: C3_4  and  N1_6 
REMARK    3  A    between atoms: N2_9  and  C6_10 
REMARK    4  A    between atoms: C6_10  and  N3_12 
REMARK    5  A    between atoms: N3_12  and  C7_14 
REMARK    6  A    between atoms: C7_14  and  C9_16 
REMARK       I    between atoms: C9_16  and  N4_18 
REMARK    7  A    between atoms: C14_23  and  C15_24 
REMARK    8  A    between atoms: C15_24  and  C16_26 
ROOT
HETATM    1  C7  UNL     1      38.297   4.023  62.584  1.00  0.00     0.172 C 
HETATM    2  C8  UNL     1      38.070   5.524  62.587  1.00  0.00     0.042 C 
ENDROOT
BRANCH   1   3
HETATM    3  N3  UNL     1      37.265   3.359  61.803  1.00  0.00    -0.354 N 
ATOM      4  H3  UNL     1      37.537   2.907  60.929  1.00  0.00     0.162 HD
BRANCH   3   5
HETATM    5  C6  UNL     1      35.897   3.304  62.191  1.00  0.00     0.170 C 
HETATM    6  S1  UNL     1      35.220   1.796  62.265  1.00  0.00    -0.041 SA
BRANCH   5   7
HETATM    7  N2  UNL     1      35.138   4.458  62.490  1.00  0.00    -0.355 N 
HETATM    8  C5  UNL     1      34.855   4.763  63.878  1.00  0.00     0.145 C 
HETATM    9  C4  UNL     1      33.321   4.749  63.952  1.00  0.00     0.148 C 
HETATM   10  N1  UNL     1      32.877   5.902  63.207  1.00  0.00    -0.325 N 
HETATM   11  C3  UNL     1      31.699   6.563  63.630  1.00  0.00     0.362 C 
HETATM   12  C18 UNL     1      33.617   6.351  62.072  1.00  0.00     0.148 C 
HETATM   13  O2  UNL     1      31.061   6.144  64.627  1.00  0.00    -0.238 OA
HETATM   14  C17 UNL     1      34.606   5.381  61.519  1.00  0.00     0.145 C 
BRANCH  11  15
HETATM   15  O1  UNL     1      31.206   7.681  62.973  1.00  0.00    -0.304 OA
BRANCH  15  16
HETATM   16  C2  UNL     1      29.819   7.803  62.790  1.00  0.00     0.176 C 
HETATM   17  C1  UNL     1      29.240   8.956  63.585  1.00  0.00     0.034 C 
ENDBRANCH  15  16
ENDBRANCH  11  15
ENDBRANCH   5   7
ENDBRANCH   3   5
ENDBRANCH   1   3
BRANCH   1  18
HETATM   18  C9  UNL     1      39.640   3.603  62.172  1.00  0.00     0.242 C 
HETATM   19  O3  UNL     1      39.751   3.133  60.977  1.00  0.00    -0.271 OA
HETATM   20  N4  UNL     1      40.829   3.645  62.911  1.00  0.00    -0.338 N 
HETATM   21  C10 UNL     1      42.059   3.185  62.275  1.00  0.00     0.127 C 
HETATM   22  C14 UNL     1      40.947   4.090  64.273  1.00  0.00     0.166 C 
HETATM   23  C11 UNL     1      43.010   4.357  62.099  1.00  0.00     0.020 C 
HETATM   24  C12 UNL     1      42.853   5.275  63.295  1.00  0.00     0.004 C 
HETATM   25  C13 UNL     1      42.389   4.501  64.516  1.00  0.00     0.033 C 
BRANCH  22  26
HETATM   26  C15 UNL     1      40.506   3.057  65.242  1.00  0.00     0.255 C 
HETATM   27  O4  UNL     1      41.070   1.987  65.279  1.00  0.00    -0.286 OA
BRANCH  26  28
HETATM   28  C16 UNL     1      39.382   3.321  66.163  1.00  0.00     0.453 C 
HETATM   29  F1  UNL     1      38.572   4.351  65.724  1.00  0.00    -0.163 F 
HETATM   30  F2  UNL     1      38.616   2.155  66.288  1.00  0.00    -0.163 F 
HETATM   31  F3  UNL     1      39.786   3.633  67.454  1.00  0.00    -0.163 F 
ENDBRANCH  26  28
ENDBRANCH  22  26
ENDBRANCH   1  18
TORSDOF 8
ENDMDL
MODEL 2
REMARK VINA RESULT: -7.535682628      0.950      1.495
REMARK  8 active torsions:
REMARK  status: ('A' for Active; 'I' for Inactive)
REMARK    1  A    between atoms: C2_2  and  O1_3 
REMARK    2  A    between atoms: O1_3  and  C3_4 
REMARK       I    between atoms: C3_4  and  N1_6 
REMARK    3  A    between atoms: N2_9  and  C6_10 
REMARK    4  A    between atoms: C6_10  and  N3_12 
REMARK    5  A    between atoms: N3_12  and  C7_14 
REMARK    6  A    between atoms: C7_14  and  C9_16 
REMARK       I    between atoms: C9_16  and  N4_18 
REMARK    7  A    between atoms: C14_23  and  C15_24 
REMARK    8  A    between atoms: C15_24  and  C16_26 
ROOT
HETATM    1  C7  UNL     1      38.508   4.832  62.917  1.00  0.00     0.172 C 
HETATM    2  C8  UNL     1      37.829   5.898  62.075  1.00  0.00     0.042 C 
ENDROOT
BRANCH   1   3
HETATM    3  N3  UNL     1      37.637   3.676  63.064  1.00  0.00    -0.354 N 
ATOM      4  H3  UNL     1      37.871   2.983  63.776  1.00  0.00     0.162 HD
BRANCH   3   5
HETATM    5  C6  UNL     1      36.477   3.458  62.269  1.00  0.00     0.170 C 
HETATM    6  S1  UNL     1      36.704   2.612  60.865  1.00  0.00    -0.041 SA
BRANCH   5   7
HETATM    7  N2  UNL     1      35.198   3.936  62.632  1.00  0.00    -0.355 N 
HETATM    8  C5  UNL     1      34.066   3.606  61.789  1.00  0.00     0.145 C 
HETATM    9  C4  UNL     1      33.535   4.974  61.336  1.00  0.00     0.148 C 
HETATM   10  N1  UNL     1      32.970   5.589  62.512  1.00  0.00    -0.325 N 
HETATM   11  C3  UNL     1      31.847   6.437  62.354  1.00  0.00     0.362 C 
HETATM   12  C18 UNL     1      33.542   5.340  63.796  1.00  0.00     0.148 C 
HETATM   13  O2  UNL     1      31.367   6.647  61.213  1.00  0.00    -0.238 OA
HETATM   14  C17 UNL     1      34.907   4.742  63.792  1.00  0.00     0.145 C 
BRANCH  11  15
HETATM   15  O1  UNL     1      31.241   7.064  63.432  1.00  0.00    -0.304 OA
BRANCH  15  16
HETATM   16  C2  UNL     1      29.877   7.387  63.349  1.00  0.00     0.176 C 
HETATM   17  C1  UNL     1      29.649   8.885  63.301  1.00  0.00     0.034 C 
ENDBRANCH  15  16
ENDBRANCH  11  15
ENDBRANCH   5   7
ENDBRANCH   3   5
ENDBRANCH   1   3
BRANCH   1  18
HETATM   18  C9  UNL     1      39.846   4.445  62.460  1.00  0.00     0.242 C 
HETATM   19  O3  UNL     1      39.976   4.220  61.198  1.00  0.00    -0.271 OA
HETATM   20  N4  UNL     1      41.012   4.284  63.220  1.00  0.00    -0.338 N 
HETATM   21  C10 UNL     1      42.243   3.907  62.532  1.00  0.00     0.127 C 
HETATM   22  C14 UNL     1      41.104   4.440  64.646  1.00  0.00     0.166 C 
HETATM   23  C11 UNL     1      43.244   5.047  62.620  1.00  0.00     0.020 C 
HETATM   24  C12 UNL     1      43.084   5.712  63.973  1.00  0.00     0.004 C 
HETATM   25  C13 UNL     1      42.551   4.729  65.000  1.00  0.00     0.033 C 
BRANCH  22  26
HETATM   26  C15 UNL     1      40.592   3.253  65.375  1.00  0.00     0.255 C 
HETATM   27  O4  UNL     1      41.139   2.182  65.240  1.00  0.00    -0.286 OA
BRANCH  26  28
HETATM   28  C16 UNL     1      39.419   3.366  66.265  1.00  0.00     0.453 C 
HETATM   29  F1  UNL     1      38.636   2.227  66.251  1.00  0.00    -0.163 F 
HETATM   30  F2  UNL     1      39.864   3.602  67.572  1.00  0.00    -0.163 F 
HETATM   31  F3  UNL     1      38.594   4.439  65.959  1.00  0.00    -0.163 F 
ENDBRANCH  26  28
ENDBRANCH  22  26
ENDBRANCH   1  18
TORSDOF 8
ENDMDL
MODEL 3
REMARK VINA RESULT: -7.513391312      1.950      2.645
REMARK  8 active torsions:
REMARK  status: ('A' for Active; 'I' for Inactive)
REMARK    1  A    between atoms: C2_2  and  O1_3 
REMARK    2  A    between atoms: O1_3  and  C3_4 
REMARK       I    between atoms: C3_4  and  N1_6 
REMARK    3  A    between atoms: N2_9  and  C6_10 
REMARK    4  A    between atoms: C6_10  and  N3_12 
REMARK    5  A    between atoms: N3_12  and  C7_14 
REMARK    6  A    between atoms: C7_14  and  C9_16 
REMARK       I    between atoms: C9_16  and  N4_18 
REMARK    7  A    between atoms: C14_23  and  C15_24 
REMARK    8  A    between atoms: C15_24  and  C16_26 
ROOT
HETATM    1  C7  UNL     1      37.301   6.071  60.875  1.00  0.00     0.172 C 
HETATM    2  C8  UNL     1      37.809   7.337  60.208  1.00  0.00     0.042 C 
ENDROOT
BRANCH   1   3
HETATM    3  N3  UNL     1      36.035   5.665  60.284  1.00  0.00    -0.354 N 
ATOM      4  H3  UNL     1      35.877   5.865  59.296  1.00  0.00     0.162 HD
BRANCH   3   5
HETATM    5  C6  UNL     1      35.004   5.003  61.009  1.00  0.00     0.170 C 
HETATM    6  S1  UNL     1      34.858   3.376  60.746  1.00  0.00    -0.041 SA
BRANCH   5   7
HETATM    7  N2  UNL     1      34.138   5.678  61.899  1.00  0.00    -0.355 N 
HETATM    8  C5  UNL     1      33.250   4.893  62.734  1.00  0.00     0.145 C 
HETATM    9  C4  UNL     1      31.848   5.367  62.324  1.00  0.00     0.148 C 
HETATM   10  N1  UNL     1      31.730   6.721  62.806  1.00  0.00    -0.325 N 
HETATM   11  C3  UNL     1      30.458   7.178  63.226  1.00  0.00     0.362 C 
HETATM   12  C18 UNL     1      32.878   7.570  62.849  1.00  0.00     0.148 C 
HETATM   13  O2  UNL     1      29.462   6.415  63.172  1.00  0.00    -0.238 OA
HETATM   14  C17 UNL     1      34.053   7.108  62.056  1.00  0.00     0.145 C 
BRANCH  11  15
HETATM   15  O1  UNL     1      30.258   8.463  63.707  1.00  0.00    -0.304 OA
BRANCH  15  16
HETATM   16  C2  UNL     1      29.071   9.136  63.372  1.00  0.00     0.176 C 
HETATM   17  C1  UNL     1      28.169   9.328  64.574  1.00  0.00     0.034 C 
ENDBRANCH  15  16
ENDBRANCH  11  15
ENDBRANCH   5   7
ENDBRANCH   3   5
ENDBRANCH   1   3
BRANCH   1  18
HETATM   18  C9  UNL     1      38.260   4.964  60.908  1.00  0.00     0.242 C 
HETATM   19  O3  UNL     1      38.589   4.457  59.770  1.00  0.00    -0.271 OA
HETATM   20  N4  UNL     1      38.872   4.376  62.024  1.00  0.00    -0.338 N 
HETATM   21  C10 UNL     1      39.818   3.287  61.804  1.00  0.00     0.127 C 
HETATM   22  C14 UNL     1      38.633   4.743  63.393  1.00  0.00     0.166 C 
HETATM   23  C11 UNL     1      41.211   3.732  62.216  1.00  0.00     0.020 C 
HETATM   24  C12 UNL     1      41.079   4.637  63.425  1.00  0.00     0.004 C 
HETATM   25  C13 UNL     1      39.828   4.303  64.219  1.00  0.00     0.033 C 
BRANCH  22  26
HETATM   26  C15 UNL     1      37.369   4.168  63.916  1.00  0.00     0.255 C 
HETATM   27  O4  UNL     1      37.005   3.077  63.543  1.00  0.00    -0.286 OA
BRANCH  26  28
HETATM   28  C16 UNL     1      36.549   4.917  64.890  1.00  0.00     0.453 C 
HETATM   29  F1  UNL     1      37.247   5.221  66.043  1.00  0.00    -0.163 F 
HETATM   30  F2  UNL     1      36.109   6.105  64.292  1.00  0.00    -0.163 F 
HETATM   31  F3  UNL     1      35.393   4.248  65.270  1.00  0.00    -0.163 F 
ENDBRANCH  26  28
ENDBRANCH  22  26
ENDBRANCH   1  18
TORSDOF 8
ENDMDL
MODEL 4
REMARK VINA RESULT: -7.363028980      1.071      1.173
REMARK  8 active torsions:
REMARK  status: ('A' for Active; 'I' for Inactive)
REMARK    1  A    between atoms: C2_2  and  O1_3 
REMARK    2  A    between atoms: O1_3  and  C3_4 
REMARK       I    between atoms: C3_4  and  N1_6 
REMARK    3  A    between atoms: N2_9  and  C6_10 
REMARK    4  A    between atoms: C6_10  and  N3_12 
REMARK    5  A    between atoms: N3_12  and  C7_14 
REMARK    6  A    between atoms: C7_14  and  C9_16 
REMARK       I    between atoms: C9_16  and  N4_18 
REMARK    7  A    between atoms: C14_23  and  C15_24 
REMARK    8  A    between atoms: C15_24  and  C16_26 
ROOT
HETATM    1  C7  UNL     1      37.977   4.640  61.804  1.00  0.00     0.172 C 
HETATM    2  C8  UNL     1      38.204   5.966  61.100  1.00  0.00     0.042 C 
ENDROOT
BRANCH   1   3
HETATM    3  N3  UNL     1      36.819   3.962  61.241  1.00  0.00    -0.354 N 
ATOM      4  H3  UNL     1      36.912   3.534  60.320  1.00  0.00     0.162 HD
BRANCH   3   5
HETATM    5  C6  UNL     1      35.565   3.865  61.905  1.00  0.00     0.170 C 
HETATM    6  S1  UNL     1      35.011   2.333  62.197  1.00  0.00    -0.041 SA
BRANCH   5   7
HETATM    7  N2  UNL     1      34.813   4.997  62.294  1.00  0.00    -0.355 N 
HETATM    8  C5  UNL     1      34.507   5.180  63.699  1.00  0.00     0.145 C 
HETATM    9  C4  UNL     1      32.972   5.178  63.745  1.00  0.00     0.148 C 
HETATM   10  N1  UNL     1      32.555   6.398  63.099  1.00  0.00    -0.325 N 
HETATM   11  C3  UNL     1      31.377   7.034  63.559  1.00  0.00     0.362 C 
HETATM   12  C18 UNL     1      33.321   6.938  62.022  1.00  0.00     0.148 C 
HETATM   13  O2  UNL     1      30.716   6.535  64.503  1.00  0.00    -0.238 OA
HETATM   14  C17 UNL     1      34.308   6.010  61.401  1.00  0.00     0.145 C 
BRANCH  11  15
HETATM   15  O1  UNL     1      30.907   8.212  62.998  1.00  0.00    -0.304 OA
BRANCH  15  16
HETATM   16  C2  UNL     1      29.530   8.348  62.758  1.00  0.00     0.176 C 
HETATM   17  C1  UNL     1      28.851   9.195  63.815  1.00  0.00     0.034 C 
ENDBRANCH  15  16
ENDBRANCH  11  15
ENDBRANCH   5   7
ENDBRANCH   3   5
ENDBRANCH   1   3
BRANCH   1  18
HETATM   18  C9  UNL     1      39.148   3.759  61.851  1.00  0.00     0.242 C 
HETATM   19  O3  UNL     1      39.353   3.024  60.812  1.00  0.00    -0.271 OA
HETATM   20  N4  UNL     1      40.081   3.606  62.885  1.00  0.00    -0.338 N 
HETATM   21  C10 UNL     1      41.185   2.671  62.693  1.00  0.00     0.127 C 
HETATM   22  C14 UNL     1      40.038   4.286  64.151  1.00  0.00     0.166 C 
HETATM   23  C11 UNL     1      42.496   3.437  62.638  1.00  0.00     0.020 C 
HETATM   24  C12 UNL     1      42.403   4.601  63.604  1.00  0.00     0.004 C 
HETATM   25  C13 UNL     1      41.439   4.291  64.736  1.00  0.00     0.033 C 
BRANCH  22  26
HETATM   26  C15 UNL     1      39.061   3.672  65.085  1.00  0.00     0.255 C 
HETATM   27  O4  UNL     1      39.287   2.584  65.563  1.00  0.00    -0.286 OA
BRANCH  26  28
HETATM   28  C16 UNL     1      37.813   4.378  65.438  1.00  0.00     0.453 C 
HETATM   29  F1  UNL     1      37.473   5.343  64.509  1.00  0.00    -0.163 F 
HETATM   30  F2  UNL     1      36.774   3.442  65.530  1.00  0.00    -0.163 F 
HETATM   31  F3  UNL     1      37.859   4.997  66.680  1.00  0.00    -0.163 F 
ENDBRANCH  26  28
ENDBRANCH  22  26
ENDBRANCH   1  18
TORSDOF 8
ENDMDL
MODEL 5
REMARK VINA RESULT: -7.232532045      1.939      2.630
REMARK  8 active torsions:
REMARK  status: ('A' for Active; 'I' for Inactive)
REMARK    1  A    between atoms: C2_2  and  O1_3 
REMARK    2  A    between atoms: O1_3  and  C3_4 
REMARK       I    between atoms: C3_4  and  N1_6 
REMARK    3  A    between atoms: N2_9  and  C6_10 
REMARK    4  A    between atoms: C6_10  and  N3_12 
REMARK    5  A    between atoms: N3_12  and  C7_14 
REMARK    6  A    between atoms: C7_14  and  C9_16 
REMARK       I    between atoms: C9_16  and  N4_18 
REMARK    7  A    between atoms: C14_23  and  C15_24 
REMARK    8  A    between atoms: C15_24  and  C16_26 
ROOT
HETATM    1  C7  UNL     1      37.754   4.407  62.641  1.00  0.00     0.172 C 
HETATM    2  C8  UNL     1      37.804   5.833  62.121  1.00  0.00     0.042 C 
ENDROOT
BRANCH   1   3
HETATM    3  N3  UNL     1      36.379   4.016  62.910  1.00  0.00    -0.354 N 
ATOM      4  H3  UNL     1      35.989   3.232  62.387  1.00  0.00     0.162 HD
BRANCH   3   5
HETATM    5  C6  UNL     1      35.548   4.670  63.862  1.00  0.00     0.170 C 
HETATM    6  S1  UNL     1      36.230   4.972  65.339  1.00  0.00    -0.041 SA
BRANCH   5   7
HETATM    7  N2  UNL     1      34.211   5.039  63.588  1.00  0.00    -0.355 N 
HETATM    8  C5  UNL     1      33.933   5.803  62.388  1.00  0.00     0.145 C 
HETATM    9  C4  UNL     1      33.310   7.104  62.917  1.00  0.00     0.148 C 
HETATM   10  N1  UNL     1      32.019   6.737  63.447  1.00  0.00    -0.325 N 
HETATM   11  C3  UNL     1      30.963   7.675  63.353  1.00  0.00     0.362 C 
HETATM   12  C18 UNL     1      31.828   5.458  64.051  1.00  0.00     0.148 C 
HETATM   13  O2  UNL     1      31.157   8.798  62.825  1.00  0.00    -0.238 OA
HETATM   14  C17 UNL     1      33.073   4.721  64.413  1.00  0.00     0.145 C 
BRANCH  11  15
HETATM   15  O1  UNL     1      29.690   7.402  63.834  1.00  0.00    -0.304 OA
BRANCH  15  16
HETATM   16  C2  UNL     1      28.613   8.182  63.382  1.00  0.00     0.176 C 
HETATM   17  C1  UNL     1      28.157   9.181  64.426  1.00  0.00     0.034 C 
ENDBRANCH  15  16
ENDBRANCH  11  15
ENDBRANCH   5   7
ENDBRANCH   3   5
ENDBRANCH   1   3
BRANCH   1  18
HETATM   18  C9  UNL     1      38.441   3.420  61.801  1.00  0.00     0.242 C 
HETATM   19  O3  UNL     1      37.689   2.604  61.147  1.00  0.00    -0.271 OA
HETATM   20  N4  UNL     1      39.819   3.245  61.616  1.00  0.00    -0.338 N 
HETATM   21  C10 UNL     1      40.269   2.196  60.707  1.00  0.00     0.127 C 
HETATM   22  C14 UNL     1      40.850   4.006  62.267  1.00  0.00     0.166 C 
HETATM   23  C11 UNL     1      40.949   2.824  59.502  1.00  0.00     0.020 C 
HETATM   24  C12 UNL     1      41.703   4.052  59.973  1.00  0.00     0.004 C 
HETATM   25  C13 UNL     1      42.112   3.912  61.429  1.00  0.00     0.033 C 
BRANCH  22  26
HETATM   26  C15 UNL     1      41.087   3.552  63.661  1.00  0.00     0.255 C 
HETATM   27  O4  UNL     1      40.678   2.472  64.019  1.00  0.00    -0.286 OA
BRANCH  26  28
HETATM   28  C16 UNL     1      41.819   4.409  64.615  1.00  0.00     0.453 C 
HETATM   29  F1  UNL     1      43.132   4.011  64.781  1.00  0.00    -0.163 F 
HETATM   30  F2  UNL     1      41.794   5.730  64.149  1.00  0.00    -0.163 F 
HETATM   31  F3  UNL     1      41.238   4.454  65.876  1.00  0.00    -0.163 F 
ENDBRANCH  26  28
ENDBRANCH  22  26
ENDBRANCH   1  18
TORSDOF 8
ENDMDL
