MODEL 1
REMARK VINA RESULT: -6.837404029      0.000      0.000
REMARK  3 active torsions:
REMARK  status: ('A' for Active; 'I' for Inactive)
REMARK    1  A    between atoms: O1_2  and  C2_3 
REMARK    2  A    between atoms: C3_4  and  N1_5 
REMARK       I    between atoms: N1_5  and  C4_7 
REMARK    3  A    between atoms: C4_7  and  C5_9 
ROOT
HETATM    1  N1  UNL     1      32.303   6.558  62.986  1.00  0.00    -0.308 N 
ATOM      2  H1  UNL     1      32.162   5.558  63.125  1.00  0.00     0.170 HD
HETATM    3  C4  UNL     1      33.605   7.091  62.803  1.00  0.00     0.235 C 
HETATM    4  O2  UNL     1      33.757   8.355  62.632  1.00  0.00    -0.272 OA
ENDROOT
BRANCH   1   5
HETATM    5  C3  UNL     1      31.186   7.466  62.970  1.00  0.00     0.174 A 
HETATM    6  C2  UNL     1      29.871   7.059  62.965  1.00  0.00     0.203 A 
HETATM    7  N4  UNL     1      29.128   8.174  62.946  1.00  0.00    -0.256 N 
HETATM    8  N3  UNL     1      29.958   9.217  62.939  1.00  0.00    -0.017 NA
HETATM    9  C9  UNL     1      27.682   8.247  62.934  1.00  0.00     0.177 C 
HETATM   10  N2  UNL     1      31.218   8.808  62.953  1.00  0.00    -0.265 N 
ATOM     11  H2  UNL     1      32.050   9.398  62.952  1.00  0.00     0.186 HD
BRANCH   6  12
HETATM   12  O1  UNL     1      29.390   5.747  62.978  1.00  0.00    -0.337 OA
HETATM   13  C1  UNL     1      29.220   5.022  61.752  1.00  0.00     0.212 C 
ENDBRANCH   6  12
ENDBRANCH   1   5
BRANCH   3  14
HETATM   14  C5  UNL     1      34.785   6.225  62.806  1.00  0.00     0.081 A 
HETATM   15  C6  UNL     1      35.347   5.920  64.188  1.00  0.00     0.029 C 
HETATM   16  C7  UNL     1      34.841   5.144  61.765  1.00  0.00     0.109 A 
HETATM   17 BR1  UNL     1      35.443   3.434  62.447  1.00  0.00    -0.087 Br
HETATM   18  C8  UNL     1      35.789   6.282  61.705  1.00  0.00     0.107 A 
HETATM   19 BR2  UNL     1      37.612   5.848  62.182  1.00  0.00    -0.070 Br
HETATM   20 BR3  UNL     1      35.508   7.605  60.332  1.00  0.00    -0.070 Br
ENDBRANCH   3  14
TORSDOF 3
ENDMDL
MODEL 2
REMARK VINA RESULT: -6.701865716      2.154      2.734
REMARK  3 active torsions:
REMARK  status: ('A' for Active; 'I' for Inactive)
REMARK    1  A    between atoms: O1_2  and  C2_3 
REMARK    2  A    between atoms: C3_4  and  N1_5 
REMARK       I    between atoms: N1_5  and  C4_7 
REMARK    3  A    between atoms: C4_7  and  C5_9 
ROOT
HETATM    1  N1  UNL     1      31.119   5.627  61.560  1.00  0.00    -0.308 N 
ATOM      2  H1  UNL     1      31.360   5.630  60.569  1.00  0.00     0.170 HD
HETATM    3  C4  UNL     1      32.110   5.397  62.548  1.00  0.00     0.235 C 
HETATM    4  O2  UNL     1      31.782   5.396  63.790  1.00  0.00    -0.272 OA
ENDROOT
BRANCH   1   5
HETATM    5  C3  UNL     1      29.765   5.856  61.991  1.00  0.00     0.174 A 
HETATM    6  C2  UNL     1      29.215   7.108  62.148  1.00  0.00     0.203 A 
HETATM    7  N4  UNL     1      27.953   6.921  62.560  1.00  0.00    -0.256 N 
HETATM    8  N3  UNL     1      27.746   5.607  62.650  1.00  0.00    -0.017 NA
HETATM    9  C9  UNL     1      26.981   7.950  62.857  1.00  0.00     0.177 C 
HETATM   10  N2  UNL     1      28.838   4.940  62.308  1.00  0.00    -0.265 N 
ATOM     11  H2  UNL     1      28.951   3.926  62.289  1.00  0.00     0.186 HD
BRANCH   6  12
HETATM   12  O1  UNL     1      29.835   8.340  61.924  1.00  0.00    -0.337 OA
HETATM   13  C1  UNL     1      30.188   9.188  63.027  1.00  0.00     0.212 C 
ENDBRANCH   6  12
ENDBRANCH   1   5
BRANCH   3  14
HETATM   14  C5  UNL     1      33.506   5.159  62.180  1.00  0.00     0.081 A 
HETATM   15  C6  UNL     1      34.059   3.809  62.619  1.00  0.00     0.029 C 
HETATM   16  C7  UNL     1      33.973   5.721  60.868  1.00  0.00     0.109 A 
HETATM   17 BR1  UNL     1      35.063   4.496  59.836  1.00  0.00    -0.087 Br
HETATM   18  C8  UNL     1      34.497   6.273  62.139  1.00  0.00     0.107 A 
HETATM   19 BR2  UNL     1      36.332   5.807  62.533  1.00  0.00    -0.070 Br
HETATM   20 BR3  UNL     1      33.874   8.016  62.679  1.00  0.00    -0.070 Br
ENDBRANCH   3  14
TORSDOF 3
ENDMDL
MODEL 3
REMARK VINA RESULT: -6.664171469      2.053      2.815
REMARK  3 active torsions:
REMARK  status: ('A' for Active; 'I' for Inactive)
REMARK    1  A    between atoms: O1_2  and  C2_3 
REMARK    2  A    between atoms: C3_4  and  N1_5 
REMARK       I    between atoms: N1_5  and  C4_7 
REMARK    3  A    between atoms: C4_7  and  C5_9 
ROOT
HETATM    1  N1  UNL     1      31.960   6.076  62.451  1.00  0.00    -0.308 N 
ATOM      2  H1  UNL     1      32.447   6.513  61.668  1.00  0.00     0.170 HD
HETATM    3  C4  UNL     1      32.677   5.589  63.573  1.00  0.00     0.235 C 
HETATM    4  O2  UNL     1      32.041   5.040  64.546  1.00  0.00    -0.272 OA
ENDROOT
BRANCH   1   5
HETATM    5  C3  UNL     1      30.527   5.938  62.444  1.00  0.00     0.174 A 
HETATM    6  C2  UNL     1      29.657   7.004  62.435  1.00  0.00     0.203 A 
HETATM    7  N4  UNL     1      28.420   6.487  62.435  1.00  0.00    -0.256 N 
HETATM    8  N3  UNL     1      28.535   5.159  62.443  1.00  0.00    -0.017 NA
HETATM    9  C9  UNL     1      27.176   7.226  62.427  1.00  0.00     0.177 C 
HETATM   10  N2  UNL     1      29.811   4.803  62.449  1.00  0.00    -0.265 N 
ATOM     11  H2  UNL     1      30.177   3.851  62.456  1.00  0.00     0.186 HD
BRANCH   6  12
HETATM   12  O1  UNL     1      29.983   8.364  62.427  1.00  0.00    -0.337 OA
HETATM   13  C1  UNL     1      29.489   9.237  63.453  1.00  0.00     0.212 C 
ENDBRANCH   6  12
ENDBRANCH   1   5
BRANCH   3  14
HETATM   14  C5  UNL     1      34.134   5.699  63.646  1.00  0.00     0.081 A 
HETATM   15  C6  UNL     1      34.654   7.109  63.894  1.00  0.00     0.029 C 
HETATM   16  C7  UNL     1      34.877   4.552  64.271  1.00  0.00     0.109 A 
HETATM   17 BR1  UNL     1      36.279   5.100  65.490  1.00  0.00    -0.087 Br
HETATM   18  C8  UNL     1      35.019   4.826  62.822  1.00  0.00     0.107 A 
HETATM   19 BR2  UNL     1      36.723   5.579  62.300  1.00  0.00    -0.070 Br
HETATM   20 BR3  UNL     1      34.156   3.616  61.595  1.00  0.00    -0.070 Br
ENDBRANCH   3  14
TORSDOF 3
ENDMDL
MODEL 4
REMARK VINA RESULT: -6.510113708      1.122      1.913
REMARK  3 active torsions:
REMARK  status: ('A' for Active; 'I' for Inactive)
REMARK    1  A    between atoms: O1_2  and  C2_3 
REMARK    2  A    between atoms: C3_4  and  N1_5 
REMARK       I    between atoms: N1_5  and  C4_7 
REMARK    3  A    between atoms: C4_7  and  C5_9 
ROOT
HETATM    1  N1  UNL     1      32.501   6.290  62.872  1.00  0.00    -0.308 N 
ATOM      2  H1  UNL     1      32.452   5.415  63.394  1.00  0.00     0.170 HD
HETATM    3  C4  UNL     1      33.629   6.593  62.065  1.00  0.00     0.235 C 
HETATM    4  O2  UNL     1      33.668   7.702  61.418  1.00  0.00    -0.272 OA
ENDROOT
BRANCH   1   5
HETATM    5  C3  UNL     1      31.429   7.248  62.934  1.00  0.00     0.174 A 
HETATM    6  C2  UNL     1      30.098   6.902  62.987  1.00  0.00     0.203 A 
HETATM    7  N4  UNL     1      29.408   8.050  63.032  1.00  0.00    -0.256 N 
HETATM    8  N3  UNL     1      30.285   9.053  63.006  1.00  0.00    -0.017 NA
HETATM    9  C9  UNL     1      27.969   8.190  63.096  1.00  0.00     0.177 C 
HETATM   10  N2  UNL     1      31.523   8.587  62.946  1.00  0.00    -0.265 N 
ATOM     11  H2  UNL     1      32.381   9.138  62.915  1.00  0.00     0.186 HD
BRANCH   6  12
HETATM   12  O1  UNL     1      29.557   5.614  62.996  1.00  0.00    -0.337 OA
HETATM   13  C1  UNL     1      29.212   4.961  61.765  1.00  0.00     0.212 C 
ENDBRANCH   6  12
ENDBRANCH   1   5
BRANCH   3  14
HETATM   14  C5  UNL     1      34.753   5.663  61.955  1.00  0.00     0.081 A 
HETATM   15  C6  UNL     1      34.565   4.558  60.923  1.00  0.00     0.029 C 
HETATM   16  C7  UNL     1      36.131   6.230  62.141  1.00  0.00     0.109 A 
HETATM   17 BR1  UNL     1      37.422   5.587  60.848  1.00  0.00    -0.087 Br
HETATM   18  C8  UNL     1      35.573   5.294  63.145  1.00  0.00     0.107 A 
HETATM   19 BR2  UNL     1      36.357   3.526  63.133  1.00  0.00    -0.070 Br
HETATM   20 BR3  UNL     1      35.028   6.027  64.842  1.00  0.00    -0.070 Br
ENDBRANCH   3  14
TORSDOF 3
ENDMDL
MODEL 5
REMARK VINA RESULT: -6.381351772      1.952      2.632
REMARK  3 active torsions:
REMARK  status: ('A' for Active; 'I' for Inactive)
REMARK    1  A    between atoms: O1_2  and  C2_3 
REMARK    2  A    between atoms: C3_4  and  N1_5 
REMARK       I    between atoms: N1_5  and  C4_7 
REMARK    3  A    between atoms: C4_7  and  C5_9 
ROOT
HETATM    1  N1  UNL     1      31.374   6.325  63.356  1.00  0.00    -0.308 N 
ATOM      2  H1  UNL     1      31.665   6.234  64.329  1.00  0.00     0.170 HD
HETATM    3  C4  UNL     1      32.335   6.456  62.320  1.00  0.00     0.235 C 
HETATM    4  O2  UNL     1      31.944   6.571  61.101  1.00  0.00    -0.272 OA
ENDROOT
BRANCH   1   5
HETATM    5  C3  UNL     1      29.980   6.322  62.998  1.00  0.00     0.174 A 
HETATM    6  C2  UNL     1      29.155   7.416  63.130  1.00  0.00     0.203 A 
HETATM    7  N4  UNL     1      27.943   7.033  62.704  1.00  0.00    -0.256 N 
HETATM    8  N3  UNL     1      28.029   5.757  62.328  1.00  0.00    -0.017 NA
HETATM    9  C9  UNL     1      26.749   7.847  62.656  1.00  0.00     0.177 C 
HETATM   10  N2  UNL     1      29.262   5.304  62.499  1.00  0.00    -0.265 N 
ATOM     11  H2  UNL     1      29.600   4.364  62.291  1.00  0.00     0.186 HD
BRANCH   6  12
HETATM   12  O1  UNL     1      29.498   8.682  63.612  1.00  0.00    -0.337 OA
HETATM   13  C1  UNL     1      28.597   9.406  64.462  1.00  0.00     0.212 C 
ENDBRANCH   6  12
ENDBRANCH   1   5
BRANCH   3  14
HETATM   14  C5  UNL     1      33.768   6.464  62.612  1.00  0.00     0.081 A 
HETATM   15  C6  UNL     1      34.342   7.835  62.946  1.00  0.00     0.029 C 
HETATM   16  C7  UNL     1      34.325   5.270  63.333  1.00  0.00     0.109 A 
HETATM   17 BR1  UNL     1      35.562   5.722  64.754  1.00  0.00    -0.087 Br
HETATM   18  C8  UNL     1      34.704   5.529  61.924  1.00  0.00     0.107 A 
HETATM   19 BR2  UNL     1      36.515   6.158  61.671  1.00  0.00    -0.070 Br
HETATM   20 BR3  UNL     1      33.953   4.378  60.572  1.00  0.00    -0.070 Br
ENDBRANCH   3  14
TORSDOF 3
ENDMDL
