MODEL 1
REMARK VINA RESULT: -7.640492857      0.000      0.000
REMARK  6 active torsions:
REMARK  status: ('A' for Active; 'I' for Inactive)
REMARK    1  A    between atoms: C2_2  and  C4_4 
REMARK    2  A    between atoms: C2_2  and  C20_28 
REMARK    3  A    between atoms: C9_9  and  N1_10 
REMARK       I    between atoms: N1_10  and  C10_12 
REMARK    4  A    between atoms: C10_12  and  C11_14 
REMARK    5  A    between atoms: C11_14  and  N2_15 
REMARK    6  A    between atoms: N3_18  and  C14_19 
ROOT
HETATM    1  N1  UNL     1      41.291   4.715  64.551  1.00  0.00    -0.351 N 
ATOM      2  H1  UNL     1      41.212   5.299  65.383  1.00  0.00     0.163 HD
HETATM    3  C10 UNL     1      40.254   3.769  64.254  1.00  0.00     0.257 C 
HETATM    4  O1  UNL     1      40.399   3.075  63.218  1.00  0.00    -0.267 OA
ENDROOT
BRANCH   3   5
HETATM    5  C11 UNL     1      39.077   3.598  65.094  1.00  0.00     0.164 C 
BRANCH   5   6
HETATM    6  N2  UNL     1      37.914   4.294  64.782  1.00  0.00    -0.362 N 
HETATM    7  C12 UNL     1      37.850   4.964  63.544  1.00  0.00     0.093 C 
HETATM    8  C13 UNL     1      36.503   4.807  62.847  1.00  0.00     0.317 C 
HETATM    9  N3  UNL     1      35.430   4.812  63.818  1.00  0.00     0.100 N 
HETATM   10  C18 UNL     1      35.859   5.473  65.046  1.00  0.00     0.293 C 
HETATM   11  C19 UNL     1      36.881   4.514  65.684  1.00  0.00     0.158 C 
BRANCH   9  12
HETATM   12  C14 UNL     1      34.206   5.346  63.334  1.00  0.00     0.238 C 
HETATM   13  C15 UNL     1      34.164   6.828  63.219  1.00  0.00     0.052 C 
HETATM   14  C16 UNL     1      32.824   7.194  62.670  1.00  0.00     0.142 C 
HETATM   15  S1  UNL     1      31.742   5.944  63.381  1.00  0.00     0.146 S 
HETATM   16  O2  UNL     1      31.029   5.249  62.275  1.00  0.00    -0.228 OA
HETATM   17  O3  UNL     1      30.849   6.514  64.416  1.00  0.00    -0.228 OA
HETATM   18  C17 UNL     1      33.001   4.887  64.120  1.00  0.00     0.176 C 
ENDBRANCH   9  12
ENDBRANCH   5   6
ENDBRANCH   3   5
BRANCH   1  19
HETATM   19  C9  UNL     1      42.469   4.858  63.677  1.00  0.00     0.089 C 
HETATM   20  C4  UNL     1      42.783   6.314  63.430  1.00  0.00     0.025 C 
HETATM   21  C5  UNL     1      43.426   6.985  64.586  1.00  0.00     0.007 C 
HETATM   22  C6  UNL     1      44.066   6.049  65.571  1.00  0.00     0.001 C 
HETATM   23  C7  UNL     1      44.573   4.798  64.961  1.00  0.00     0.002 C 
HETATM   24  C8  UNL     1      43.530   4.021  64.280  1.00  0.00     0.026 C 
BRANCH  20  25
HETATM   25  C2  UNL     1      43.218   6.667  62.071  1.00  0.00     0.056 C 
HETATM   26  C1  UNL     1      42.436   5.764  61.095  1.00  0.00     0.024 C 
HETATM   27  C3  UNL     1      42.702   8.083  61.757  1.00  0.00     0.024 C 
BRANCH  25  28
HETATM   28  C20 UNL     1      44.614   6.623  61.645  1.00  0.00     0.395 C 
HETATM   29  F1  UNL     1      44.558   6.786  60.234  1.00  0.00    -0.170 F 
HETATM   30  F2  UNL     1      45.245   5.393  61.752  1.00  0.00    -0.170 F 
HETATM   31  F3  UNL     1      45.431   7.657  62.038  1.00  0.00    -0.170 F 
ENDBRANCH  25  28
ENDBRANCH  20  25
ENDBRANCH   1  19
TORSDOF 6
ENDMDL
MODEL 2
REMARK VINA RESULT: -7.604912919      0.955      1.357
REMARK  6 active torsions:
REMARK  status: ('A' for Active; 'I' for Inactive)
REMARK    1  A    between atoms: C2_2  and  C4_4 
REMARK    2  A    between atoms: C2_2  and  C20_28 
REMARK    3  A    between atoms: C9_9  and  N1_10 
REMARK       I    between atoms: N1_10  and  C10_12 
REMARK    4  A    between atoms: C10_12  and  C11_14 
REMARK    5  A    between atoms: C11_14  and  N2_15 
REMARK    6  A    between atoms: N3_18  and  C14_19 
ROOT
HETATM    1  N1  UNL     1      41.177   4.692  64.614  1.00  0.00    -0.351 N 
ATOM      2  H1  UNL     1      41.063   5.349  65.385  1.00  0.00     0.163 HD
HETATM    3  C10 UNL     1      40.173   3.693  64.387  1.00  0.00     0.257 C 
HETATM    4  O1  UNL     1      40.360   2.909  63.424  1.00  0.00    -0.267 OA
ENDROOT
BRANCH   3   5
HETATM    5  C11 UNL     1      38.982   3.567  65.215  1.00  0.00     0.164 C 
BRANCH   5   6
HETATM    6  N2  UNL     1      37.836   4.275  64.867  1.00  0.00    -0.362 N 
HETATM    7  C12 UNL     1      37.772   4.850  63.582  1.00  0.00     0.093 C 
HETATM    8  C13 UNL     1      36.409   4.685  62.919  1.00  0.00     0.317 C 
HETATM    9  N3  UNL     1      35.354   4.800  63.903  1.00  0.00     0.100 N 
HETATM   10  C18 UNL     1      35.824   5.538  65.069  1.00  0.00     0.293 C 
HETATM   11  C19 UNL     1      36.827   4.598  65.765  1.00  0.00     0.158 C 
BRANCH   9  12
HETATM   12  C14 UNL     1      34.139   5.335  63.397  1.00  0.00     0.238 C 
HETATM   13  C15 UNL     1      34.117   6.813  63.237  1.00  0.00     0.052 C 
HETATM   14  C16 UNL     1      32.785   7.180  62.670  1.00  0.00     0.142 C 
HETATM   15  S1  UNL     1      31.683   5.966  63.415  1.00  0.00     0.146 S 
HETATM   16  O2  UNL     1      30.965   5.248  62.327  1.00  0.00    -0.228 OA
HETATM   17  O3  UNL     1      30.793   6.579  64.427  1.00  0.00    -0.228 OA
HETATM   18  C17 UNL     1      32.925   4.916  64.191  1.00  0.00     0.176 C 
ENDBRANCH   9  12
ENDBRANCH   5   6
ENDBRANCH   3   5
BRANCH   1  19
HETATM   19  C9  UNL     1      42.370   4.787  63.755  1.00  0.00     0.089 C 
HETATM   20  C4  UNL     1      42.663   6.223  63.396  1.00  0.00     0.025 C 
HETATM   21  C5  UNL     1      43.269   7.000  64.504  1.00  0.00     0.007 C 
HETATM   22  C6  UNL     1      43.905   6.160  65.576  1.00  0.00     0.001 C 
HETATM   23  C7  UNL     1      44.447   4.874  65.080  1.00  0.00     0.002 C 
HETATM   24  C8  UNL     1      43.433   4.023  64.446  1.00  0.00     0.026 C 
BRANCH  20  25
HETATM   25  C2  UNL     1      43.121   6.472  62.020  1.00  0.00     0.056 C 
HETATM   26  C1  UNL     1      44.655   6.616  62.072  1.00  0.00     0.024 C 
HETATM   27  C3  UNL     1      42.898   5.186  61.203  1.00  0.00     0.024 C 
BRANCH  25  28
HETATM   28  C20 UNL     1      42.630   7.580  61.206  1.00  0.00     0.395 C 
HETATM   29  F1  UNL     1      41.254   7.286  61.003  1.00  0.00    -0.170 F 
HETATM   30  F2  UNL     1      43.093   7.628  59.900  1.00  0.00    -0.170 F 
HETATM   31  F3  UNL     1      42.592   8.828  61.785  1.00  0.00    -0.170 F 
ENDBRANCH  25  28
ENDBRANCH  20  25
ENDBRANCH   1  19
TORSDOF 6
ENDMDL
MODEL 3
REMARK VINA RESULT: -7.543257494      1.035      1.596
REMARK  6 active torsions:
REMARK  status: ('A' for Active; 'I' for Inactive)
REMARK    1  A    between atoms: C2_2  and  C4_4 
REMARK    2  A    between atoms: C2_2  and  C20_28 
REMARK    3  A    between atoms: C9_9  and  N1_10 
REMARK       I    between atoms: N1_10  and  C10_12 
REMARK    4  A    between atoms: C10_12  and  C11_14 
REMARK    5  A    between atoms: C11_14  and  N2_15 
REMARK    6  A    between atoms: N3_18  and  C14_19 
ROOT
HETATM    1  N1  UNL     1      41.753   4.811  64.647  1.00  0.00    -0.351 N 
ATOM      2  H1  UNL     1      41.634   5.385  65.482  1.00  0.00     0.163 HD
HETATM    3  C10 UNL     1      40.744   3.851  64.302  1.00  0.00     0.257 C 
HETATM    4  O1  UNL     1      40.940   3.172  63.264  1.00  0.00    -0.267 OA
ENDROOT
BRANCH   3   5
HETATM    5  C11 UNL     1      39.541   3.650  65.096  1.00  0.00     0.164 C 
BRANCH   5   6
HETATM    6  N2  UNL     1      38.316   4.075  64.591  1.00  0.00    -0.362 N 
HETATM    7  C12 UNL     1      37.140   3.573  65.184  1.00  0.00     0.093 C 
HETATM    8  C13 UNL     1      36.064   4.635  65.372  1.00  0.00     0.317 C 
HETATM    9  N3  UNL     1      36.069   5.560  64.258  1.00  0.00     0.100 N 
HETATM   10  C18 UNL     1      36.682   4.942  63.088  1.00  0.00     0.293 C 
HETATM   11  C19 UNL     1      38.179   4.825  63.431  1.00  0.00     0.158 C 
BRANCH   9  12
HETATM   12  C14 UNL     1      34.798   6.116  63.954  1.00  0.00     0.238 C 
HETATM   13  C15 UNL     1      33.638   5.221  64.211  1.00  0.00     0.052 C 
HETATM   14  C16 UNL     1      32.402   5.984  63.865  1.00  0.00     0.142 C 
HETATM   15  S1  UNL     1      32.935   7.008  62.484  1.00  0.00     0.146 S 
HETATM   16  O2  UNL     1      32.661   8.433  62.817  1.00  0.00    -0.228 OA
HETATM   17  O3  UNL     1      32.339   6.560  61.204  1.00  0.00    -0.228 OA
HETATM   18  C17 UNL     1      34.698   6.644  62.543  1.00  0.00     0.176 C 
ENDBRANCH   9  12
ENDBRANCH   5   6
ENDBRANCH   3   5
BRANCH   1  19
HETATM   19  C9  UNL     1      42.960   4.985  63.819  1.00  0.00     0.089 C 
HETATM   20  C4  UNL     1      43.261   6.448  63.607  1.00  0.00     0.025 C 
HETATM   21  C5  UNL     1      43.852   7.111  64.795  1.00  0.00     0.007 C 
HETATM   22  C6  UNL     1      44.470   6.168  65.788  1.00  0.00     0.001 C 
HETATM   23  C7  UNL     1      45.017   4.934  65.177  1.00  0.00     0.002 C 
HETATM   24  C8  UNL     1      44.010   4.153  64.448  1.00  0.00     0.026 C 
BRANCH  20  25
HETATM   25  C2  UNL     1      43.740   6.829  62.269  1.00  0.00     0.056 C 
HETATM   26  C1  UNL     1      43.152   5.813  61.270  1.00  0.00     0.024 C 
HETATM   27  C3  UNL     1      43.067   8.159  61.882  1.00  0.00     0.024 C 
BRANCH  25  28
HETATM   28  C20 UNL     1      45.156   6.962  61.938  1.00  0.00     0.395 C 
HETATM   29  F1  UNL     1      45.182   7.026  60.518  1.00  0.00    -0.170 F 
HETATM   30  F2  UNL     1      45.944   5.846  62.175  1.00  0.00    -0.170 F 
HETATM   31  F3  UNL     1      45.789   8.126  62.307  1.00  0.00    -0.170 F 
ENDBRANCH  25  28
ENDBRANCH  20  25
ENDBRANCH   1  19
TORSDOF 6
ENDMDL
MODEL 4
REMARK VINA RESULT: -7.424790229      2.173      3.098
REMARK  6 active torsions:
REMARK  status: ('A' for Active; 'I' for Inactive)
REMARK    1  A    between atoms: C2_2  and  C4_4 
REMARK    2  A    between atoms: C2_2  and  C20_28 
REMARK    3  A    between atoms: C9_9  and  N1_10 
REMARK       I    between atoms: N1_10  and  C10_12 
REMARK    4  A    between atoms: C10_12  and  C11_14 
REMARK    5  A    between atoms: C11_14  and  N2_15 
REMARK    6  A    between atoms: N3_18  and  C14_19 
ROOT
HETATM    1  N1  UNL     1      39.167   4.061  63.572  1.00  0.00    -0.351 N 
ATOM      2  H1  UNL     1      39.117   3.361  64.312  1.00  0.00     0.163 HD
HETATM    3  C10 UNL     1      38.048   4.931  63.349  1.00  0.00     0.257 C 
HETATM    4  O1  UNL     1      38.162   5.775  62.427  1.00  0.00    -0.267 OA
ENDROOT
BRANCH   3   5
HETATM    5  C11 UNL     1      36.826   4.863  64.137  1.00  0.00     0.164 C 
BRANCH   5   6
HETATM    6  N2  UNL     1      35.631   5.299  63.574  1.00  0.00    -0.362 N 
HETATM    7  C12 UNL     1      35.125   4.601  62.460  1.00  0.00     0.093 C 
HETATM    8  C13 UNL     1      33.617   4.388  62.521  1.00  0.00     0.317 C 
HETATM    9  N3  UNL     1      32.969   5.542  63.105  1.00  0.00     0.100 N 
HETATM   10  C18 UNL     1      33.816   6.722  62.972  1.00  0.00     0.293 C 
HETATM   11  C19 UNL     1      34.997   6.482  63.931  1.00  0.00     0.158 C 
BRANCH   9  12
HETATM   12  C14 UNL     1      31.654   5.782  62.623  1.00  0.00     0.238 C 
HETATM   13  C15 UNL     1      31.529   5.866  61.143  1.00  0.00     0.052 C 
HETATM   14  C16 UNL     1      30.085   6.086  60.831  1.00  0.00     0.142 C 
HETATM   15  S1  UNL     1      29.524   7.094  62.213  1.00  0.00     0.146 S 
HETATM   16  O2  UNL     1      28.372   6.410  62.861  1.00  0.00    -0.228 OA
HETATM   17  O3  UNL     1      29.247   8.489  61.800  1.00  0.00    -0.228 OA
HETATM   18  C17 UNL     1      31.005   7.000  63.234  1.00  0.00     0.176 C 
ENDBRANCH   9  12
ENDBRANCH   5   6
ENDBRANCH   3   5
BRANCH   1  19
HETATM   19  C9  UNL     1      40.388   4.158  62.752  1.00  0.00     0.089 C 
HETATM   20  C4  UNL     1      41.555   4.639  63.578  1.00  0.00     0.025 C 
HETATM   21  C5  UNL     1      42.114   3.599  64.476  1.00  0.00     0.007 C 
HETATM   22  C6  UNL     1      41.767   2.190  64.087  1.00  0.00     0.001 C 
HETATM   23  C7  UNL     1      41.581   2.004  62.629  1.00  0.00     0.002 C 
HETATM   24  C8  UNL     1      40.525   2.854  62.066  1.00  0.00     0.026 C 
BRANCH  20  25
HETATM   25  C2  UNL     1      42.475   5.581  62.923  1.00  0.00     0.056 C 
HETATM   26  C1  UNL     1      43.538   4.740  62.187  1.00  0.00     0.024 C 
HETATM   27  C3  UNL     1      41.709   6.284  61.787  1.00  0.00     0.024 C 
BRANCH  25  28
HETATM   28  C20 UNL     1      43.201   6.620  63.648  1.00  0.00     0.395 C 
HETATM   29  F1  UNL     1      42.874   7.822  62.963  1.00  0.00    -0.170 F 
HETATM   30  F2  UNL     1      44.581   6.600  63.521  1.00  0.00    -0.170 F 
HETATM   31  F3  UNL     1      42.806   6.888  64.939  1.00  0.00    -0.170 F 
ENDBRANCH  25  28
ENDBRANCH  20  25
ENDBRANCH   1  19
TORSDOF 6
ENDMDL
MODEL 5
REMARK VINA RESULT: -7.368955886      1.746      2.948
REMARK  6 active torsions:
REMARK  status: ('A' for Active; 'I' for Inactive)
REMARK    1  A    between atoms: C2_2  and  C4_4 
REMARK    2  A    between atoms: C2_2  and  C20_28 
REMARK    3  A    between atoms: C9_9  and  N1_10 
REMARK       I    between atoms: N1_10  and  C10_12 
REMARK    4  A    between atoms: C10_12  and  C11_14 
REMARK    5  A    between atoms: C11_14  and  N2_15 
REMARK    6  A    between atoms: N3_18  and  C14_19 
ROOT
HETATM    1  N1  UNL     1      41.970   5.809  62.517  1.00  0.00    -0.351 N 
ATOM      2  H1  UNL     1      41.764   5.852  61.519  1.00  0.00     0.163 HD
HETATM    3  C10 UNL     1      41.149   4.999  63.370  1.00  0.00     0.257 C 
HETATM    4  O1  UNL     1      41.445   4.980  64.590  1.00  0.00    -0.267 OA
ENDROOT
BRANCH   3   5
HETATM    5  C11 UNL     1      40.019   4.225  62.876  1.00  0.00     0.164 C 
BRANCH   5   6
HETATM    6  N2  UNL     1      38.733   4.733  63.024  1.00  0.00    -0.362 N 
HETATM    7  C12 UNL     1      38.325   5.775  62.169  1.00  0.00     0.093 C 
HETATM    8  C13 UNL     1      36.898   5.608  61.658  1.00  0.00     0.317 C 
HETATM    9  N3  UNL     1      36.057   5.044  62.692  1.00  0.00     0.100 N 
HETATM   10  C18 UNL     1      36.634   5.291  64.008  1.00  0.00     0.293 C 
HETATM   11  C19 UNL     1      37.887   4.397  64.074  1.00  0.00     0.158 C 
BRANCH   9  12
HETATM   12  C14 UNL     1      34.698   5.453  62.629  1.00  0.00     0.238 C 
HETATM   13  C15 UNL     1      34.445   6.866  63.017  1.00  0.00     0.052 C 
HETATM   14  C16 UNL     1      32.981   7.116  62.857  1.00  0.00     0.142 C 
HETATM   15  S1  UNL     1      32.252   5.529  63.293  1.00  0.00     0.146 S 
HETATM   16  O2  UNL     1      31.403   5.070  62.159  1.00  0.00    -0.228 OA
HETATM   17  O3  UNL     1      31.549   5.585  64.594  1.00  0.00    -0.228 OA
HETATM   18  C17 UNL     1      33.767   4.561  63.414  1.00  0.00     0.176 C 
ENDBRANCH   9  12
ENDBRANCH   5   6
ENDBRANCH   3   5
BRANCH   1  19
HETATM   19  C9  UNL     1      43.105   6.581  63.053  1.00  0.00     0.089 C 
HETATM   20  C4  UNL     1      44.371   5.760  63.038  1.00  0.00     0.025 C 
HETATM   21  C5  UNL     1      44.969   5.618  61.688  1.00  0.00     0.007 C 
HETATM   22  C6  UNL     1      44.519   6.654  60.698  1.00  0.00     0.001 C 
HETATM   23  C7  UNL     1      44.179   7.958  61.314  1.00  0.00     0.002 C 
HETATM   24  C8  UNL     1      43.111   7.864  62.316  1.00  0.00     0.026 C 
BRANCH  20  25
HETATM   25  C2  UNL     1      45.262   5.912  64.198  1.00  0.00     0.056 C 
HETATM   26  C1  UNL     1      44.801   4.896  65.262  1.00  0.00     0.024 C 
HETATM   27  C3  UNL     1      46.661   5.411  63.792  1.00  0.00     0.024 C 
BRANCH  25  28
HETATM   28  C20 UNL     1      45.453   7.180  64.894  1.00  0.00     0.395 C 
HETATM   29  F1  UNL     1      46.513   6.926  65.807  1.00  0.00    -0.170 F 
HETATM   30  F2  UNL     1      44.437   7.561  65.757  1.00  0.00    -0.170 F 
HETATM   31  F3  UNL     1      45.931   8.242  64.162  1.00  0.00    -0.170 F 
ENDBRANCH  25  28
ENDBRANCH  20  25
ENDBRANCH   1  19
TORSDOF 6
ENDMDL
