MODEL 1
REMARK VINA RESULT: -3.767587337      0.000      0.000
REMARK  2 active torsions:
REMARK  status: ('A' for Active; 'I' for Inactive)
REMARK    1  A    between atoms: C7_9  and  S1_10 
REMARK    2  A    between atoms: S1_10  and  C8_11 
ROOT
HETATM    1  C8  UNL     1     -21.863  59.671   3.849  1.00  0.00     0.005 A 
HETATM    2  C9  UNL     1     -22.609  60.700   4.471  1.00  0.00     0.020 A 
HETATM    3  C10 UNL     1     -23.906  60.956   4.216  1.00  0.00     0.024 A 
HETATM    4  C11 UNL     1     -24.572  60.184   3.299  1.00  0.00     0.044 A 
HETATM    5  C12 UNL     1     -25.945  60.435   2.988  1.00  0.00     0.099 C 
HETATM    6  N2  UNL     1     -27.039  60.656   2.731  1.00  0.00    -0.191 NA
HETATM    7  C13 UNL     1     -23.916  59.159   2.649  1.00  0.00     0.024 A 
HETATM    8  C14 UNL     1     -22.598  58.909   2.918  1.00  0.00     0.020 A 
ENDROOT
BRANCH   1   9
HETATM    9  S1  UNL     1     -20.243  59.497   4.219  1.00  0.00    -0.089 SA
BRANCH   9  10
HETATM   10  C7  UNL     1     -18.914  59.519   4.963  1.00  0.00     0.034 A 
HETATM   11  C6  UNL     1     -17.928  60.535   4.458  1.00  0.00     0.027 A 
HETATM   12  C2  UNL     1     -18.260  61.383   3.414  1.00  0.00    -0.046 A 
HETATM   13  C5  UNL     1     -16.674  60.687   4.990  1.00  0.00     0.147 A 
HETATM   14  C1  UNL     1     -19.551  61.340   2.753  1.00  0.00     0.049 C 
HETATM   15  C3  UNL     1     -17.271  62.319   3.006  1.00  0.00     0.024 A 
HETATM   16  C4  UNL     1     -16.046  62.415   3.581  1.00  0.00     0.089 A 
HETATM   17  N1  UNL     1     -15.766  61.590   4.572  1.00  0.00    -0.356 N 
ATOM     18  H1  UNL     1     -14.854  61.636   5.025  1.00  0.00     0.166 HD
HETATM   19  S2  UNL     1     -16.107  59.696   6.298  1.00  0.00     0.246 S 
HETATM   20  C16 UNL     1     -17.370  58.613   6.747  1.00  0.00     0.189 A 
HETATM   21  O2  UNL     1     -14.903  58.936   5.734  1.00  0.00    -0.214 OA
HETATM   22  O3  UNL     1     -15.653  60.534   7.470  1.00  0.00    -0.214 OA
HETATM   23  C15 UNL     1     -18.561  58.618   6.088  1.00  0.00     0.041 A 
HETATM   24  O1  UNL     1     -17.409  57.691   7.698  1.00  0.00    -0.297 OA
HETATM   25  C22 UNL     1     -19.364  57.629   6.690  1.00  0.00     0.013 A 
HETATM   26  C17 UNL     1     -18.552  57.094   7.700  1.00  0.00     0.088 A 
HETATM   27  C21 UNL     1     -20.628  57.133   6.519  1.00  0.00     0.015 A 
HETATM   28  C18 UNL     1     -19.008  56.068   8.530  1.00  0.00     0.038 A 
HETATM   29  C19 UNL     1     -20.265  55.585   8.351  1.00  0.00     0.003 A 
HETATM   30  C20 UNL     1     -21.054  56.109   7.367  1.00  0.00     0.001 A 
ENDBRANCH   9  10
ENDBRANCH   1   9
TORSDOF 2
ENDMDL
MODEL 2
REMARK VINA RESULT: -3.438825489      3.273      6.770
REMARK  2 active torsions:
REMARK  status: ('A' for Active; 'I' for Inactive)
REMARK    1  A    between atoms: C7_9  and  S1_10 
REMARK    2  A    between atoms: S1_10  and  C8_11 
ROOT
HETATM    1  C8  UNL     1     -19.354  57.407   6.734  1.00  0.00     0.005 A 
HETATM    2  C9  UNL     1     -19.727  57.980   7.973  1.00  0.00     0.020 A 
HETATM    3  C10 UNL     1     -19.569  57.375   9.166  1.00  0.00     0.024 A 
HETATM    4  C11 UNL     1     -19.013  56.122   9.211  1.00  0.00     0.044 A 
HETATM    5  C12 UNL     1     -18.845  55.439  10.456  1.00  0.00     0.099 C 
HETATM    6  N2  UNL     1     -18.733  54.892  11.456  1.00  0.00    -0.191 NA
HETATM    7  C13 UNL     1     -18.621  55.495   8.047  1.00  0.00     0.024 A 
HETATM    8  C14 UNL     1     -18.787  56.121   6.841  1.00  0.00     0.020 A 
ENDROOT
BRANCH   1   9
HETATM    9  S1  UNL     1     -19.656  58.247   5.322  1.00  0.00    -0.089 SA
BRANCH   9  10
HETATM   10  C7  UNL     1     -19.692  59.343   4.264  1.00  0.00     0.034 A 
HETATM   11  C6  UNL     1     -20.908  59.324   3.382  1.00  0.00     0.027 A 
HETATM   12  C2  UNL     1     -21.906  58.383   3.574  1.00  0.00    -0.046 A 
HETATM   13  C5  UNL     1     -21.105  60.220   2.363  1.00  0.00     0.147 A 
HETATM   14  C1  UNL     1     -21.837  57.373   4.613  1.00  0.00     0.049 C 
HETATM   15  C3  UNL     1     -23.025  58.444   2.700  1.00  0.00     0.024 A 
HETATM   16  C4  UNL     1     -23.155  59.361   1.709  1.00  0.00     0.089 A 
HETATM   17  N1  UNL     1     -22.184  60.242   1.557  1.00  0.00    -0.356 N 
ATOM     18  H1  UNL     1     -22.251  60.945   0.821  1.00  0.00     0.166 HD
HETATM   19  S2  UNL     1     -19.944  61.456   1.992  1.00  0.00     0.246 S 
HETATM   20  C16 UNL     1     -18.639  61.329   3.110  1.00  0.00     0.189 A 
HETATM   21  O2  UNL     1     -19.479  61.156   0.564  1.00  0.00    -0.214 OA
HETATM   22  O3  UNL     1     -20.570  62.830   2.025  1.00  0.00    -0.214 OA
HETATM   23  C15 UNL     1     -18.629  60.359   4.064  1.00  0.00     0.041 A 
HETATM   24  O1  UNL     1     -17.541  62.062   3.231  1.00  0.00    -0.297 OA
HETATM   25  C22 UNL     1     -17.441  60.526   4.803  1.00  0.00     0.013 A 
HETATM   26  C17 UNL     1     -16.815  61.629   4.205  1.00  0.00     0.088 A 
HETATM   27  C21 UNL     1     -16.834  59.912   5.865  1.00  0.00     0.015 A 
HETATM   28  C18 UNL     1     -15.590  62.108   4.670  1.00  0.00     0.038 A 
HETATM   29  C19 UNL     1     -14.997  61.490   5.724  1.00  0.00     0.003 A 
HETATM   30  C20 UNL     1     -15.609  60.416   6.306  1.00  0.00     0.001 A 
ENDBRANCH   9  10
ENDBRANCH   1   9
TORSDOF 2
ENDMDL
MODEL 3
REMARK VINA RESULT: -2.848782813      3.062      6.709
REMARK  2 active torsions:
REMARK  status: ('A' for Active; 'I' for Inactive)
REMARK    1  A    between atoms: C7_9  and  S1_10 
REMARK    2  A    between atoms: S1_10  and  C8_11 
ROOT
HETATM    1  C8  UNL     1     -17.389  60.402   4.700  1.00  0.00     0.005 A 
HETATM    2  C9  UNL     1     -16.702  59.481   5.524  1.00  0.00     0.020 A 
HETATM    3  C10 UNL     1     -15.504  59.719   6.093  1.00  0.00     0.024 A 
HETATM    4  C11 UNL     1     -14.890  60.926   5.876  1.00  0.00     0.044 A 
HETATM    5  C12 UNL     1     -13.610  61.210   6.448  1.00  0.00     0.099 C 
HETATM    6  N2  UNL     1     -12.578  61.421   6.895  1.00  0.00    -0.191 NA
HETATM    7  C13 UNL     1     -15.495  61.879   5.085  1.00  0.00     0.024 A 
HETATM    8  C14 UNL     1     -16.712  61.625   4.513  1.00  0.00     0.020 A 
ENDROOT
BRANCH   1   9
HETATM    9  S1  UNL     1     -18.845  59.956   4.013  1.00  0.00    -0.089 SA
BRANCH   9  10
HETATM   10  C7  UNL     1     -20.185  59.275   3.765  1.00  0.00     0.034 A 
HETATM   11  C6  UNL     1     -20.916  59.752   2.542  1.00  0.00     0.027 A 
HETATM   12  C2  UNL     1     -20.360  60.718   1.719  1.00  0.00    -0.046 A 
HETATM   13  C5  UNL     1     -22.143  59.269   2.169  1.00  0.00     0.147 A 
HETATM   14  C1  UNL     1     -19.067  61.320   1.984  1.00  0.00     0.049 C 
HETATM   15  C3  UNL     1     -21.116  61.105   0.579  1.00  0.00     0.024 A 
HETATM   16  C4  UNL     1     -22.329  60.582   0.270  1.00  0.00     0.089 A 
HETATM   17  N1  UNL     1     -22.826  59.665   1.078  1.00  0.00    -0.356 N 
ATOM     18  H1  UNL     1     -23.736  59.252   0.874  1.00  0.00     0.166 HD
HETATM   19  S2  UNL     1     -22.974  58.062   3.100  1.00  0.00     0.246 S 
HETATM   20  C16 UNL     1     -21.981  57.631   4.442  1.00  0.00     0.189 A 
HETATM   21  O2  UNL     1     -24.270  58.731   3.565  1.00  0.00    -0.214 OA
HETATM   22  O3  UNL     1     -23.319  56.856   2.258  1.00  0.00    -0.214 OA
HETATM   23  C15 UNL     1     -20.777  58.232   4.640  1.00  0.00     0.041 A 
HETATM   24  O1  UNL     1     -22.184  56.746   5.407  1.00  0.00    -0.297 OA
HETATM   25  C22 UNL     1     -20.225  57.665   5.806  1.00  0.00     0.013 A 
HETATM   26  C17 UNL     1     -21.186  56.733   6.224  1.00  0.00     0.088 A 
HETATM   27  C21 UNL     1     -19.077  57.811   6.537  1.00  0.00     0.015 A 
HETATM   28  C18 UNL     1     -20.994  55.956   7.367  1.00  0.00     0.038 A 
HETATM   29  C19 UNL     1     -19.851  56.111   8.085  1.00  0.00     0.003 A 
HETATM   30  C20 UNL     1     -18.916  57.019   7.675  1.00  0.00     0.001 A 
ENDBRANCH   9  10
ENDBRANCH   1   9
TORSDOF 2
ENDMDL
MODEL 4
REMARK VINA RESULT: -2.752445292      0.997      1.304
REMARK  2 active torsions:
REMARK  status: ('A' for Active; 'I' for Inactive)
REMARK    1  A    between atoms: C7_9  and  S1_10 
REMARK    2  A    between atoms: S1_10  and  C8_11 
ROOT
HETATM    1  C8  UNL     1     -21.715  60.169   3.849  1.00  0.00     0.005 A 
HETATM    2  C9  UNL     1     -21.588  59.633   2.546  1.00  0.00     0.020 A 
HETATM    3  C10 UNL     1     -22.583  59.601   1.639  1.00  0.00     0.024 A 
HETATM    4  C11 UNL     1     -23.809  60.115   1.974  1.00  0.00     0.044 A 
HETATM    5  C12 UNL     1     -24.896  60.084   1.046  1.00  0.00     0.099 C 
HETATM    6  N2  UNL     1     -25.766  60.037   0.302  1.00  0.00    -0.191 NA
HETATM    7  C13 UNL     1     -24.015  60.658   3.226  1.00  0.00     0.024 A 
HETATM    8  C14 UNL     1     -22.995  60.684   4.138  1.00  0.00     0.020 A 
ENDROOT
BRANCH   1   9
HETATM    9  S1  UNL     1     -20.413  60.095   4.893  1.00  0.00    -0.089 SA
BRANCH   9  10
HETATM   10  C7  UNL     1     -19.001  59.940   5.444  1.00  0.00     0.034 A 
HETATM   11  C6  UNL     1     -18.055  61.046   5.066  1.00  0.00     0.027 A 
HETATM   12  C2  UNL     1     -18.488  62.115   4.299  1.00  0.00    -0.046 A 
HETATM   13  C5  UNL     1     -16.741  61.068   5.452  1.00  0.00     0.147 A 
HETATM   14  C1  UNL     1     -19.853  62.229   3.818  1.00  0.00     0.049 C 
HETATM   15  C3  UNL     1     -17.530  63.120   3.996  1.00  0.00     0.024 A 
HETATM   16  C4  UNL     1     -16.240  63.078   4.413  1.00  0.00     0.089 A 
HETATM   17  N1  UNL     1     -15.864  62.043   5.141  1.00  0.00    -0.356 N 
ATOM     18  H1  UNL     1     -14.901  61.981   5.471  1.00  0.00     0.166 HD
HETATM   19  S2  UNL     1     -16.044  59.798   6.409  1.00  0.00     0.246 S 
HETATM   20  C16 UNL     1     -17.275  58.641   6.755  1.00  0.00     0.189 A 
HETATM   21  O2  UNL     1     -14.945  59.190   5.535  1.00  0.00    -0.214 OA
HETATM   22  O3  UNL     1     -15.422  60.338   7.676  1.00  0.00    -0.214 OA
HETATM   23  C15 UNL     1     -18.538  58.801   6.274  1.00  0.00     0.041 A 
HETATM   24  O1  UNL     1     -17.223  57.522   7.462  1.00  0.00    -0.297 OA
HETATM   25  C22 UNL     1     -19.289  57.699   6.728  1.00  0.00     0.013 A 
HETATM   26  C17 UNL     1     -18.374  56.942   7.473  1.00  0.00     0.088 A 
HETATM   27  C21 UNL     1     -20.580  57.258   6.612  1.00  0.00     0.015 A 
HETATM   28  C18 UNL     1     -18.754  55.751   8.094  1.00  0.00     0.038 A 
HETATM   29  C19 UNL     1     -20.038  55.324   7.971  1.00  0.00     0.003 A 
HETATM   30  C20 UNL     1     -20.928  56.064   7.246  1.00  0.00     0.001 A 
ENDBRANCH   9  10
ENDBRANCH   1   9
TORSDOF 2
ENDMDL
MODEL 5
REMARK VINA RESULT: -2.409496154      3.162      6.454
REMARK  2 active torsions:
REMARK  status: ('A' for Active; 'I' for Inactive)
REMARK    1  A    between atoms: C7_9  and  S1_10 
REMARK    2  A    between atoms: S1_10  and  C8_11 
ROOT
HETATM    1  C8  UNL     1     -17.638  60.733   5.172  1.00  0.00     0.005 A 
HETATM    2  C9  UNL     1     -17.854  62.087   5.518  1.00  0.00     0.020 A 
HETATM    3  C10 UNL     1     -16.999  62.830   6.247  1.00  0.00     0.024 A 
HETATM    4  C11 UNL     1     -15.835  62.261   6.695  1.00  0.00     0.044 A 
HETATM    5  C12 UNL     1     -14.910  63.011   7.487  1.00  0.00     0.099 C 
HETATM    6  N2  UNL     1     -14.185  63.613   8.136  1.00  0.00    -0.191 NA
HETATM    7  C13 UNL     1     -15.548  60.944   6.399  1.00  0.00     0.024 A 
HETATM    8  C14 UNL     1     -16.426  60.201   5.658  1.00  0.00     0.020 A 
ENDROOT
BRANCH   1   9
HETATM    9  S1  UNL     1     -18.808  59.913   4.307  1.00  0.00    -0.089 SA
BRANCH   9  10
HETATM   10  C7  UNL     1     -20.105  59.211   3.924  1.00  0.00     0.034 A 
HETATM   11  C6  UNL     1     -20.730  59.699   2.647  1.00  0.00     0.027 A 
HETATM   12  C2  UNL     1     -20.120  60.691   1.896  1.00  0.00    -0.046 A 
HETATM   13  C5  UNL     1     -21.907  59.200   2.154  1.00  0.00     0.147 A 
HETATM   14  C1  UNL     1     -18.870  61.311   2.291  1.00  0.00     0.049 C 
HETATM   15  C3  UNL     1     -20.775  61.085   0.698  1.00  0.00     0.024 A 
HETATM   16  C4  UNL     1     -21.943  60.546   0.269  1.00  0.00     0.089 A 
HETATM   17  N1  UNL     1     -22.494  59.604   1.011  1.00  0.00    -0.356 N 
ATOM     18  H1  UNL     1     -23.373  59.178   0.717  1.00  0.00     0.166 HD
HETATM   19  S2  UNL     1     -22.796  57.960   2.982  1.00  0.00     0.246 S 
HETATM   20  C16 UNL     1     -21.923  57.521   4.402  1.00  0.00     0.189 A 
HETATM   21  O2  UNL     1     -24.142  58.596   3.336  1.00  0.00    -0.214 OA
HETATM   22  O3  UNL     1     -23.037  56.764   2.090  1.00  0.00    -0.214 OA
HETATM   23  C15 UNL     1     -20.754  58.141   4.722  1.00  0.00     0.041 A 
HETATM   24  O1  UNL     1     -22.196  56.615   5.329  1.00  0.00    -0.297 OA
HETATM   25  C22 UNL     1     -20.301  57.562   5.924  1.00  0.00     0.013 A 
HETATM   26  C17 UNL     1     -21.277  56.604   6.234  1.00  0.00     0.088 A 
HETATM   27  C21 UNL     1     -19.229  57.715   6.761  1.00  0.00     0.015 A 
HETATM   28  C18 UNL     1     -21.176  55.809   7.377  1.00  0.00     0.038 A 
HETATM   29  C19 UNL     1     -20.108  55.971   8.200  1.00  0.00     0.003 A 
HETATM   30  C20 UNL     1     -19.158  56.904   7.895  1.00  0.00     0.001 A 
ENDBRANCH   9  10
ENDBRANCH   1   9
TORSDOF 2
ENDMDL
