MODEL 1
REMARK VINA RESULT: -4.444969521      0.000      0.000
REMARK  1 active torsions:
REMARK  status: ('A' for Active; 'I' for Inactive)
REMARK    1  A    between atoms: C3_4  and  C4_5 
ROOT
HETATM    1  C4  UNL     1     -20.284  59.865   4.059  1.00  0.00     0.156 C 
HETATM    2  N2  UNL     1     -20.550  61.238   4.094  1.00  0.00    -0.346 N 
ATOM      3  H2  UNL     1     -21.356  61.554   4.634  1.00  0.00     0.163 HD
HETATM    4  C5  UNL     1     -19.855  62.114   3.498  1.00  0.00     0.221 A 
HETATM    5  N3  UNL     1     -19.180  63.210   2.890  1.00  0.00    -0.257 N 
ATOM      6  H3  UNL     1     -19.143  64.162   2.525  1.00  0.00     0.191 HD
HETATM    7  N4  UNL     1     -18.574  61.896   3.197  1.00  0.00    -0.184 N 
HETATM    8  C6  UNL     1     -17.538  60.925   3.319  1.00  0.00     0.280 C 
HETATM    9  O1  UNL     1     -17.121  60.330   2.305  1.00  0.00    -0.265 OA
HETATM   10  C7  UNL     1     -16.865  60.543   4.587  1.00  0.00     0.045 A 
HETATM   11  C8  UNL     1     -15.556  61.120   4.622  1.00  0.00     0.018 A 
HETATM   12  C9  UNL     1     -14.807  61.180   5.758  1.00  0.00     0.001 A 
HETATM   13  C10 UNL     1     -15.348  60.661   6.908  1.00  0.00     0.001 A 
HETATM   14  C11 UNL     1     -16.594  60.099   6.879  1.00  0.00     0.013 A 
HETATM   15  C12 UNL     1     -17.399  60.005   5.716  1.00  0.00    -0.007 A 
HETATM   16  C13 UNL     1     -18.577  59.091   5.835  1.00  0.00     0.012 A 
HETATM   17  C14 UNL     1     -19.766  59.129   5.216  1.00  0.00    -0.002 A 
HETATM   18  C15 UNL     1     -20.535  58.069   5.772  1.00  0.00     0.107 A 
HETATM   19  N5  UNL     1     -19.836  57.406   6.680  1.00  0.00    -0.331 N 
HETATM   20  C16 UNL     1     -20.158  56.301   7.419  1.00  0.00     0.096 A 
HETATM   21  C17 UNL     1     -19.240  55.743   8.267  1.00  0.00     0.018 A 
HETATM   22  C18 UNL     1     -17.994  56.292   8.372  1.00  0.00     0.004 A 
HETATM   23  C19 UNL     1     -17.700  57.408   7.614  1.00  0.00     0.031 A 
HETATM   24  C20 UNL     1     -18.629  57.985   6.757  1.00  0.00     0.050 A 
ENDROOT
BRANCH   1  25
HETATM   25  C3  UNL     1     -21.613  59.288   3.526  1.00  0.00    -0.003 A 
HETATM   26  C2  UNL     1     -21.862  57.999   3.121  1.00  0.00     0.101 A 
HETATM   27  N1  UNL     1     -23.149  57.885   2.713  1.00  0.00    -0.360 N 
HETATM   28  C1  UNL     1     -23.766  56.668   2.220  1.00  0.00     0.155 C 
HETATM   29  C26 UNL     1     -23.754  59.083   2.844  1.00  0.00     0.044 A 
HETATM   30  C21 UNL     1     -22.798  59.961   3.350  1.00  0.00     0.001 A 
HETATM   31  C25 UNL     1     -25.035  59.498   2.575  1.00  0.00     0.030 A 
HETATM   32  C22 UNL     1     -23.174  61.266   3.576  1.00  0.00     0.014 A 
HETATM   33  C23 UNL     1     -24.461  61.673   3.302  1.00  0.00     0.001 A 
HETATM   34  C24 UNL     1     -25.411  60.803   2.799  1.00  0.00     0.002 A 
ENDBRANCH   1  25
TORSDOF 1
ENDMDL
MODEL 2
REMARK VINA RESULT: -3.361431915      1.920      6.320
REMARK  1 active torsions:
REMARK  status: ('A' for Active; 'I' for Inactive)
REMARK    1  A    between atoms: C3_4  and  C4_5 
ROOT
HETATM    1  C4  UNL     1     -19.409  60.474   4.558  1.00  0.00     0.156 C 
HETATM    2  N2  UNL     1     -18.925  60.548   3.248  1.00  0.00    -0.346 N 
ATOM      3  H2  UNL     1     -17.960  60.267   3.079  1.00  0.00     0.163 HD
HETATM    4  C5  UNL     1     -19.610  60.944   2.257  1.00  0.00     0.221 A 
HETATM    5  N3  UNL     1     -20.243  61.363   1.052  1.00  0.00    -0.257 N 
ATOM      6  H3  UNL     1     -20.227  61.726   0.099  1.00  0.00     0.191 HD
HETATM    7  N4  UNL     1     -20.941  60.865   2.257  1.00  0.00    -0.184 N 
HETATM    8  C6  UNL     1     -22.043  60.432   3.051  1.00  0.00     0.280 C 
HETATM    9  O1  UNL     1     -22.820  61.271   3.547  1.00  0.00    -0.265 OA
HETATM   10  C7  UNL     1     -22.381  59.016   3.348  1.00  0.00     0.045 A 
HETATM   11  C8  UNL     1     -23.516  58.625   2.567  1.00  0.00     0.018 A 
HETATM   12  C9  UNL     1     -23.893  57.326   2.413  1.00  0.00     0.001 A 
HETATM   13  C10 UNL     1     -23.140  56.364   3.038  1.00  0.00     0.001 A 
HETATM   14  C11 UNL     1     -22.060  56.730   3.794  1.00  0.00     0.013 A 
HETATM   15  C12 UNL     1     -21.644  58.072   3.991  1.00  0.00    -0.007 A 
HETATM   16  C13 UNL     1     -20.644  58.268   5.086  1.00  0.00     0.012 A 
HETATM   17  C14 UNL     1     -19.690  59.199   5.227  1.00  0.00    -0.002 A 
HETATM   18  C15 UNL     1     -18.977  58.859   6.410  1.00  0.00     0.107 A 
HETATM   19  N5  UNL     1     -19.488  57.774   6.971  1.00  0.00    -0.331 N 
HETATM   20  C16 UNL     1     -19.152  57.130   8.130  1.00  0.00     0.096 A 
HETATM   21  C17 UNL     1     -19.871  56.044   8.552  1.00  0.00     0.018 A 
HETATM   22  C18 UNL     1     -20.930  55.603   7.810  1.00  0.00     0.004 A 
HETATM   23  C19 UNL     1     -21.242  56.274   6.645  1.00  0.00     0.031 A 
HETATM   24  C20 UNL     1     -20.513  57.373   6.206  1.00  0.00     0.050 A 
ENDROOT
BRANCH   1  25
HETATM   25  C3  UNL     1     -18.398  61.347   5.330  1.00  0.00    -0.003 A 
HETATM   26  C2  UNL     1     -18.607  62.594   5.866  1.00  0.00     0.101 A 
HETATM   27  N1  UNL     1     -17.473  63.035   6.464  1.00  0.00    -0.360 N 
HETATM   28  C1  UNL     1     -17.325  64.313   7.136  1.00  0.00     0.155 C 
HETATM   29  C26 UNL     1     -16.517  62.095   6.330  1.00  0.00     0.044 A 
HETATM   30  C21 UNL     1     -17.090  61.039   5.622  1.00  0.00     0.001 A 
HETATM   31  C25 UNL     1     -15.211  62.048   6.749  1.00  0.00     0.030 A 
HETATM   32  C22 UNL     1     -16.306  59.940   5.354  1.00  0.00     0.014 A 
HETATM   33  C23 UNL     1     -14.997  59.903   5.778  1.00  0.00     0.001 A 
HETATM   34  C24 UNL     1     -14.426  60.950   6.480  1.00  0.00     0.002 A 
ENDBRANCH   1  25
TORSDOF 1
ENDMDL
MODEL 3
REMARK VINA RESULT: -2.038928312      2.013      6.084
REMARK  1 active torsions:
REMARK  status: ('A' for Active; 'I' for Inactive)
REMARK    1  A    between atoms: C3_4  and  C4_5 
ROOT
HETATM    1  C4  UNL     1     -18.604  60.042   4.382  1.00  0.00     0.156 C 
HETATM    2  N2  UNL     1     -18.230  60.047   3.035  1.00  0.00    -0.346 N 
ATOM      3  H2  UNL     1     -17.373  59.557   2.776  1.00  0.00     0.163 HD
HETATM    4  C5  UNL     1     -18.886  60.621   2.116  1.00  0.00     0.221 A 
HETATM    5  N3  UNL     1     -19.506  61.213   0.978  1.00  0.00    -0.257 N 
ATOM      6  H3  UNL     1     -19.488  61.593   0.032  1.00  0.00     0.191 HD
HETATM    7  N4  UNL     1     -20.195  60.848   2.235  1.00  0.00    -0.184 N 
HETATM    8  C6  UNL     1     -21.295  60.653   3.119  1.00  0.00     0.280 C 
HETATM    9  O1  UNL     1     -21.813  61.632   3.694  1.00  0.00    -0.265 OA
HETATM   10  C7  UNL     1     -21.925  59.343   3.429  1.00  0.00     0.045 A 
HETATM   11  C8  UNL     1     -23.181  59.249   2.749  1.00  0.00     0.018 A 
HETATM   12  C9  UNL     1     -23.859  58.075   2.613  1.00  0.00     0.001 A 
HETATM   13  C10 UNL     1     -23.298  56.947   3.157  1.00  0.00     0.001 A 
HETATM   14  C11 UNL     1     -22.103  57.032   3.816  1.00  0.00     0.013 A 
HETATM   15  C12 UNL     1     -21.374  58.235   3.991  1.00  0.00    -0.007 A 
HETATM   16  C13 UNL     1     -20.266  58.162   4.993  1.00  0.00     0.012 A 
HETATM   17  C14 UNL     1     -19.114  58.845   5.059  1.00  0.00    -0.002 A 
HETATM   18  C15 UNL     1     -18.400  58.312   6.168  1.00  0.00     0.107 A 
HETATM   19  N5  UNL     1     -19.098  57.354   6.760  1.00  0.00    -0.331 N 
HETATM   20  C16 UNL     1     -18.823  56.614   7.877  1.00  0.00     0.096 A 
HETATM   21  C17 UNL     1     -19.735  55.708   8.348  1.00  0.00     0.018 A 
HETATM   22  C18 UNL     1     -20.926  55.546   7.700  1.00  0.00     0.004 A 
HETATM   23  C19 UNL     1     -21.173  56.307   6.575  1.00  0.00     0.031 A 
HETATM   24  C20 UNL     1     -20.250  57.224   6.086  1.00  0.00     0.050 A 
ENDROOT
BRANCH   1  25
HETATM   25  C3  UNL     1     -17.357  60.635   5.071  1.00  0.00    -0.003 A 
HETATM   26  C2  UNL     1     -16.083  60.119   5.083  1.00  0.00     0.101 A 
HETATM   27  N1  UNL     1     -15.266  60.928   5.800  1.00  0.00    -0.360 N 
HETATM   28  C1  UNL     1     -13.851  60.699   6.027  1.00  0.00     0.155 C 
HETATM   29  C26 UNL     1     -15.983  61.972   6.263  1.00  0.00     0.044 A 
HETATM   30  C21 UNL     1     -17.289  61.792   5.810  1.00  0.00     0.001 A 
HETATM   31  C25 UNL     1     -15.635  63.057   7.029  1.00  0.00     0.030 A 
HETATM   32  C22 UNL     1     -18.228  62.738   6.153  1.00  0.00     0.014 A 
HETATM   33  C23 UNL     1     -17.870  63.823   6.922  1.00  0.00     0.001 A 
HETATM   34  C24 UNL     1     -16.575  64.003   7.373  1.00  0.00     0.002 A 
ENDBRANCH   1  25
TORSDOF 1
ENDMDL
MODEL 4
REMARK VINA RESULT: -0.995478737      2.166      5.917
REMARK  1 active torsions:
REMARK  status: ('A' for Active; 'I' for Inactive)
REMARK    1  A    between atoms: C3_4  and  C4_5 
ROOT
HETATM    1  C4  UNL     1     -18.516  58.268   5.218  1.00  0.00     0.156 C 
HETATM    2  N2  UNL     1     -17.191  58.255   4.770  1.00  0.00    -0.346 N 
ATOM      3  H2  UNL     1     -16.822  57.380   4.398  1.00  0.00     0.163 HD
HETATM    4  C5  UNL     1     -16.420  59.260   4.798  1.00  0.00     0.221 A 
HETATM    5  N3  UNL     1     -15.437  60.291   4.764  1.00  0.00    -0.257 N 
ATOM      6  H3  UNL     1     -14.473  60.623   4.741  1.00  0.00     0.191 HD
HETATM    7  N4  UNL     1     -16.900  60.504   4.791  1.00  0.00    -0.184 N 
HETATM    8  C6  UNL     1     -18.121  61.239   4.743  1.00  0.00     0.280 C 
HETATM    9  O1  UNL     1     -18.503  61.876   5.746  1.00  0.00    -0.265 OA
HETATM   10  C7  UNL     1     -19.016  61.339   3.562  1.00  0.00     0.045 A 
HETATM   11  C8  UNL     1     -18.870  62.631   2.964  1.00  0.00     0.018 A 
HETATM   12  C9  UNL     1     -19.344  62.927   1.722  1.00  0.00     0.001 A 
HETATM   13  C10 UNL     1     -19.986  61.930   1.030  1.00  0.00     0.001 A 
HETATM   14  C11 UNL     1     -20.138  60.696   1.599  1.00  0.00     0.013 A 
HETATM   15  C12 UNL     1     -19.671  60.353   2.894  1.00  0.00    -0.007 A 
HETATM   16  C13 UNL     1     -20.207  59.067   3.438  1.00  0.00     0.012 A 
HETATM   17  C14 UNL     1     -19.661  58.202   4.305  1.00  0.00    -0.002 A 
HETATM   18  C15 UNL     1     -20.569  57.111   4.399  1.00  0.00     0.107 A 
HETATM   19  N5  UNL     1     -21.629  57.313   3.632  1.00  0.00    -0.331 N 
HETATM   20  C16 UNL     1     -22.756  56.558   3.455  1.00  0.00     0.096 A 
HETATM   21  C17 UNL     1     -23.766  57.002   2.644  1.00  0.00     0.018 A 
HETATM   22  C18 UNL     1     -23.646  58.206   2.011  1.00  0.00     0.004 A 
HETATM   23  C19 UNL     1     -22.496  58.943   2.208  1.00  0.00     0.031 A 
HETATM   24  C20 UNL     1     -21.463  58.496   3.024  1.00  0.00     0.050 A 
ENDROOT
BRANCH   1  25
HETATM   25  C3  UNL     1     -18.518  57.135   6.266  1.00  0.00    -0.003 A 
HETATM   26  C2  UNL     1     -18.048  55.853   6.114  1.00  0.00     0.101 A 
HETATM   27  N1  UNL     1     -18.234  55.156   7.261  1.00  0.00    -0.360 N 
HETATM   28  C1  UNL     1     -17.857  53.769   7.467  1.00  0.00     0.155 C 
HETATM   29  C26 UNL     1     -18.821  55.960   8.170  1.00  0.00     0.044 A 
HETATM   30  C21 UNL     1     -19.000  57.197   7.552  1.00  0.00     0.001 A 
HETATM   31  C25 UNL     1     -19.215  55.745   9.467  1.00  0.00     0.030 A 
HETATM   32  C22 UNL     1     -19.588  58.205   8.283  1.00  0.00     0.014 A 
HETATM   33  C23 UNL     1     -19.982  57.979   9.583  1.00  0.00     0.001 A 
HETATM   34  C24 UNL     1     -19.804  56.752  10.198  1.00  0.00     0.002 A 
ENDBRANCH   1  25
TORSDOF 1
ENDMDL
MODEL 5
REMARK VINA RESULT: -0.982177276      1.095      2.064
REMARK  1 active torsions:
REMARK  status: ('A' for Active; 'I' for Inactive)
REMARK    1  A    between atoms: C3_4  and  C4_5 
ROOT
HETATM    1  C4  UNL     1     -19.751  60.562   4.714  1.00  0.00     0.156 C 
HETATM    2  N2  UNL     1     -19.840  61.894   5.132  1.00  0.00    -0.346 N 
ATOM      3  H2  UNL     1     -20.560  62.134   5.813  1.00  0.00     0.163 HD
HETATM    4  C5  UNL     1     -19.083  62.822   4.717  1.00  0.00     0.221 A 
HETATM    5  N3  UNL     1     -18.319  63.967   4.350  1.00  0.00    -0.257 N 
ATOM      6  H3  UNL     1     -18.189  64.973   4.244  1.00  0.00     0.191 HD
HETATM    7  N4  UNL     1     -17.863  62.565   4.243  1.00  0.00    -0.184 N 
HETATM    8  C6  UNL     1     -16.951  61.496   4.004  1.00  0.00     0.280 C 
HETATM    9  O1  UNL     1     -16.684  61.157   2.833  1.00  0.00    -0.265 OA
HETATM   10  C7  UNL     1     -16.246  60.718   5.055  1.00  0.00     0.045 A 
HETATM   11  C8  UNL     1     -14.875  61.128   5.108  1.00  0.00     0.018 A 
HETATM   12  C9  UNL     1     -14.047  60.802   6.139  1.00  0.00     0.001 A 
HETATM   13  C10 UNL     1     -14.568  60.050   7.163  1.00  0.00     0.001 A 
HETATM   14  C11 UNL     1     -15.874  59.647   7.114  1.00  0.00     0.013 A 
HETATM   15  C12 UNL     1     -16.763  59.954   6.052  1.00  0.00    -0.007 A 
HETATM   16  C13 UNL     1     -18.035  59.167   6.048  1.00  0.00     0.012 A 
HETATM   17  C14 UNL     1     -19.250  59.492   5.582  1.00  0.00    -0.002 A 
HETATM   18  C15 UNL     1     -20.106  58.406   5.917  1.00  0.00     0.107 A 
HETATM   19  N5  UNL     1     -19.434  57.455   6.547  1.00  0.00    -0.331 N 
HETATM   20  C16 UNL     1     -19.840  56.230   7.001  1.00  0.00     0.096 A 
HETATM   21  C17 UNL     1     -18.942  55.373   7.578  1.00  0.00     0.018 A 
HETATM   22  C18 UNL     1     -17.633  55.743   7.697  1.00  0.00     0.004 A 
HETATM   23  C19 UNL     1     -17.255  56.986   7.230  1.00  0.00     0.031 A 
HETATM   24  C20 UNL     1     -18.162  57.865   6.650  1.00  0.00     0.050 A 
ENDROOT
BRANCH   1  25
HETATM   25  C3  UNL     1     -21.174  60.289   4.185  1.00  0.00    -0.003 A 
HETATM   26  C2  UNL     1     -22.270  61.114   4.268  1.00  0.00     0.101 A 
HETATM   27  N1  UNL     1     -23.341  60.516   3.690  1.00  0.00    -0.360 N 
HETATM   28  C1  UNL     1     -24.669  61.093   3.592  1.00  0.00     0.155 C 
HETATM   29  C26 UNL     1     -22.966  59.307   3.227  1.00  0.00     0.044 A 
HETATM   30  C21 UNL     1     -21.614  59.161   3.534  1.00  0.00     0.001 A 
HETATM   31  C25 UNL     1     -23.660  58.320   2.571  1.00  0.00     0.030 A 
HETATM   32  C22 UNL     1     -20.988  57.994   3.159  1.00  0.00     0.014 A 
HETATM   33  C23 UNL     1     -21.693  57.010   2.502  1.00  0.00     0.001 A 
HETATM   34  C24 UNL     1     -23.035  57.152   2.196  1.00  0.00     0.002 A 
ENDBRANCH   1  25
TORSDOF 1
ENDMDL
