MODEL 1
REMARK VINA RESULT: -8.603615647      0.000      0.000
REMARK  13 active torsions:
REMARK  status: ('A' for Active; 'I' for Inactive)
REMARK    1  A    between atoms: C2_2  and  C3_3 
REMARK    2  A    between atoms: C3_3  and  N1_4 
REMARK       I    between atoms: N1_4  and  C4_6 
REMARK       I    between atoms: C4_6  and  N3_10 
REMARK    3  A    between atoms: N3_10  and  C5_12 
REMARK    4  A    between atoms: C5_12  and  C6_13 
REMARK    5  A    between atoms: C6_13  and  O1_14 
REMARK    6  A    between atoms: C6_13  and  C7_16 
REMARK    7  A    between atoms: C17_29  and  C18_30 
REMARK    8  A    between atoms: C18_30  and  C19_31 
REMARK    9  A    between atoms: C19_31  and  C20_32 
REMARK   10  A    between atoms: C20_32  and  C21_33 
REMARK   11  A    between atoms: C21_33  and  C22_34 
REMARK   12  A    between atoms: C22_34  and  C23_35 
REMARK   13  A    between atoms: C23_35  and  N5_36 
ROOT
HETATM    1  C7  UNL     1      37.695  35.564  54.269  1.00  0.00     0.040 C 
HETATM    2  C8  UNL     1      37.940  36.563  55.375  1.00  0.00     0.009 C 
HETATM    3  C9  UNL     1      39.232  36.376  56.085  1.00  0.00     0.001 C 
HETATM    4  C10 UNL     1      39.950  37.603  56.517  1.00  0.00     0.000 C 
HETATM    5  C11 UNL     1      39.111  38.815  56.762  1.00  0.00     0.000 C 
HETATM    6  C12 UNL     1      40.092  39.923  57.182  1.00  0.00     0.000 C 
HETATM    7  C13 UNL     1      39.504  41.288  57.069  1.00  0.00     0.000 C 
HETATM    8  C14 UNL     1      39.703  41.878  55.692  1.00  0.00     0.009 C 
HETATM    9  C15 UNL     1      40.340  43.250  55.721  1.00  0.00     0.103 C 
HETATM   10  C16 UNL     1      41.769  43.198  55.329  1.00  0.00     0.218 C 
HETATM   11  O2  UNL     1      42.605  43.341  56.292  1.00  0.00    -0.274 OA
HETATM   12  N4  UNL     1      42.288  43.011  54.044  1.00  0.00    -0.348 N 
ATOM     13  H4  UNL     1      43.000  42.286  53.965  1.00  0.00     0.163 HD
HETATM   14  C17 UNL     1      41.968  43.683  52.826  1.00  0.00     0.176 C 
HETATM   15  C26 UNL     1      40.868  43.100  52.039  1.00  0.00     0.240 C 
HETATM   16  O3  UNL     1      39.685  43.448  52.287  1.00  0.00    -0.271 OA
HETATM   17  N6  UNL     1      41.036  42.144  50.986  1.00  0.00    -0.359 N 
ATOM     18  H6  UNL     1      40.399  42.182  50.191  1.00  0.00     0.162 HD
HETATM   19  C27 UNL     1      42.051  41.142  50.995  1.00  0.00     0.122 C 
HETATM   20  C28 UNL     1      41.680  39.838  50.362  1.00  0.00     0.021 C 
HETATM   21  C29 UNL     1      40.265  39.411  50.536  1.00  0.00     0.012 C 
HETATM   22  C30 UNL     1      39.945  38.666  51.784  1.00  0.00    -0.026 C 
HETATM   23  C31 UNL     1      41.140  38.383  52.670  1.00  0.00     0.017 C 
HETATM   24  C32 UNL     1      38.900  39.462  52.550  1.00  0.00     0.017 C 
HETATM   25  C33 UNL     1      39.316  37.288  51.518  1.00  0.00     0.176 C 
HETATM   26  O4  UNL     1      38.493  36.984  52.589  1.00  0.00    -0.390 OA
HETATM   27  C34 UNL     1      38.653  35.726  53.113  1.00  0.00     0.174 C 
ENDROOT
BRANCH   1  28
HETATM   28  C6  UNL     1      37.597  34.170  54.787  1.00  0.00     0.142 C 
BRANCH  28  29
HETATM   29  C5  UNL     1      36.371  33.445  54.249  1.00  0.00     0.170 C 
BRANCH  29  30
HETATM   30  N3  UNL     1      35.256  33.792  55.100  1.00  0.00    -0.224 N 
HETATM   31  C4  UNL     1      34.329  34.824  54.713  1.00  0.00     0.667 C 
HETATM   32  N1  UNL     1      33.832  35.749  55.650  1.00  0.00    -0.227 N 
HETATM   33  N2  UNL     1      33.982  34.854  53.472  1.00  0.00    -0.235 N 
ATOM     34  H1  UNL     1      33.093  35.436  56.278  1.00  0.00     0.177 HD
ATOM     35  H22 UNL     1      33.325  35.585  53.197  1.00  0.00     0.174 HD
ATOM     36  H21 UNL     1      34.342  34.184  52.792  1.00  0.00     0.174 HD
ATOM     37  H3  UNL     1      35.125  33.301  55.985  1.00  0.00     0.177 HD
BRANCH  32  38
HETATM   38  C3  UNL     1      34.297  37.109  55.782  1.00  0.00     0.137 C 
BRANCH  38  39
HETATM   39  C2  UNL     1      34.551  37.439  57.221  1.00  0.00     0.016 C 
HETATM   40  C1  UNL     1      35.399  38.690  57.310  1.00  0.00     0.006 C 
ENDBRANCH  38  39
ENDBRANCH  32  38
ENDBRANCH  29  30
ENDBRANCH  28  29
BRANCH  28  41
HETATM   41  O1  UNL     1      38.678  33.355  54.498  1.00  0.00    -0.393 OA
ATOM     42  H1  UNL     1      38.668  33.231  53.556  1.00  0.00     0.210 HD
ENDBRANCH  28  41
ENDBRANCH   1  28
BRANCH  14  43
HETATM   43  C18 UNL     1      41.782  45.197  52.990  1.00  0.00     0.035 C 
BRANCH  43  44
HETATM   44  C19 UNL     1      42.053  45.906  51.667  1.00  0.00     0.002 C 
BRANCH  44  45
HETATM   45  C20 UNL     1      40.881  46.709  51.220  1.00  0.00     0.000 C 
BRANCH  45  46
HETATM   46  C21 UNL     1      40.120  46.166  50.062  1.00  0.00     0.002 C 
BRANCH  46  47
HETATM   47  C22 UNL     1      38.628  46.221  50.221  1.00  0.00     0.030 C 
BRANCH  47  48
HETATM   48  C23 UNL     1      38.232  47.295  51.222  1.00  0.00     0.271 C 
BRANCH  48  49
HETATM   49  N5  UNL     1      37.070  46.810  51.972  1.00  0.00     0.080 N 
HETATM   50  C24 UNL     1      37.494  46.104  53.168  1.00  0.00     0.309 C 
HETATM   51  C25 UNL     1      36.233  47.956  52.346  1.00  0.00     0.309 C 
ENDBRANCH  48  49
ENDBRANCH  47  48
ENDBRANCH  46  47
ENDBRANCH  45  46
ENDBRANCH  44  45
ENDBRANCH  43  44
ENDBRANCH  14  43
TORSDOF 13
ENDMDL
MODEL 2
REMARK VINA RESULT: -8.384667960      3.845      6.395
REMARK  13 active torsions:
REMARK  status: ('A' for Active; 'I' for Inactive)
REMARK    1  A    between atoms: C2_2  and  C3_3 
REMARK    2  A    between atoms: C3_3  and  N1_4 
REMARK       I    between atoms: N1_4  and  C4_6 
REMARK       I    between atoms: C4_6  and  N3_10 
REMARK    3  A    between atoms: N3_10  and  C5_12 
REMARK    4  A    between atoms: C5_12  and  C6_13 
REMARK    5  A    between atoms: C6_13  and  O1_14 
REMARK    6  A    between atoms: C6_13  and  C7_16 
REMARK    7  A    between atoms: C17_29  and  C18_30 
REMARK    8  A    between atoms: C18_30  and  C19_31 
REMARK    9  A    between atoms: C19_31  and  C20_32 
REMARK   10  A    between atoms: C20_32  and  C21_33 
REMARK   11  A    between atoms: C21_33  and  C22_34 
REMARK   12  A    between atoms: C22_34  and  C23_35 
REMARK   13  A    between atoms: C23_35  and  N5_36 
ROOT
HETATM    1  C7  UNL     1      41.710  38.543  50.697  1.00  0.00     0.040 C 
HETATM    2  C8  UNL     1      40.483  38.409  51.568  1.00  0.00     0.009 C 
HETATM    3  C9  UNL     1      40.752  37.833  52.910  1.00  0.00     0.001 C 
HETATM    4  C10 UNL     1      39.968  38.377  54.050  1.00  0.00     0.000 C 
HETATM    5  C11 UNL     1      38.633  38.961  53.722  1.00  0.00     0.000 C 
HETATM    6  C12 UNL     1      38.051  39.450  55.059  1.00  0.00     0.000 C 
HETATM    7  C13 UNL     1      36.929  40.415  54.883  1.00  0.00     0.000 C 
HETATM    8  C14 UNL     1      37.421  41.840  54.778  1.00  0.00     0.009 C 
HETATM    9  C15 UNL     1      36.739  42.775  55.752  1.00  0.00     0.103 C 
HETATM   10  C16 UNL     1      37.622  43.113  56.895  1.00  0.00     0.218 C 
HETATM   11  O2  UNL     1      37.320  42.545  58.005  1.00  0.00    -0.274 OA
HETATM   12  N4  UNL     1      38.729  43.968  56.885  1.00  0.00    -0.348 N 
ATOM     13  H4  UNL     1      39.580  43.581  57.293  1.00  0.00     0.163 HD
HETATM   14  C17 UNL     1      38.846  45.301  56.389  1.00  0.00     0.176 C 
HETATM   15  C26 UNL     1      39.232  45.428  54.972  1.00  0.00     0.240 C 
HETATM   16  O3  UNL     1      38.337  45.410  54.089  1.00  0.00    -0.271 OA
HETATM   17  N6  UNL     1      40.577  45.575  54.504  1.00  0.00    -0.359 N 
ATOM     18  H6  UNL     1      40.743  46.152  53.680  1.00  0.00     0.162 HD
HETATM   19  C27 UNL     1      41.697  44.956  55.135  1.00  0.00     0.122 C 
HETATM   20  C28 UNL     1      42.800  44.528  54.220  1.00  0.00     0.021 C 
HETATM   21  C29 UNL     1      42.379  44.031  52.882  1.00  0.00     0.012 C 
HETATM   22  C30 UNL     1      42.018  42.590  52.791  1.00  0.00    -0.026 C 
HETATM   23  C31 UNL     1      42.208  41.814  54.078  1.00  0.00     0.017 C 
HETATM   24  C32 UNL     1      40.572  42.497  52.331  1.00  0.00     0.017 C 
HETATM   25  C33 UNL     1      42.846  41.827  51.744  1.00  0.00     0.176 C 
HETATM   26  O4  UNL     1      42.069  40.783  51.269  1.00  0.00    -0.390 OA
HETATM   27  C34 UNL     1      42.691  39.561  51.226  1.00  0.00     0.174 C 
ENDROOT
BRANCH   1  28
HETATM   28  C6  UNL     1      42.318  37.219  50.382  1.00  0.00     0.142 C 
BRANCH  28  29
HETATM   29  C5  UNL     1      42.067  36.805  48.938  1.00  0.00     0.170 C 
BRANCH  29  30
HETATM   30  N3  UNL     1      41.264  35.604  48.967  1.00  0.00    -0.224 N 
HETATM   31  C4  UNL     1      39.848  35.673  49.221  1.00  0.00     0.667 C 
HETATM   32  N1  UNL     1      39.207  34.729  50.043  1.00  0.00    -0.227 N 
HETATM   33  N2  UNL     1      39.205  36.639  48.658  1.00  0.00    -0.235 N 
ATOM     34  H1  UNL     1      39.007  33.811  49.646  1.00  0.00     0.177 HD
ATOM     35  H22 UNL     1      38.202  36.687  48.838  1.00  0.00     0.174 HD
ATOM     36  H21 UNL     1      39.669  37.323  48.062  1.00  0.00     0.174 HD
ATOM     37  H3  UNL     1      41.705  34.698  48.805  1.00  0.00     0.177 HD
BRANCH  32  38
HETATM   38  C3  UNL     1      38.814  34.969  51.411  1.00  0.00     0.137 C 
BRANCH  38  39
HETATM   39  C2  UNL     1      37.620  35.874  51.462  1.00  0.00     0.016 C 
HETATM   40  C1  UNL     1      36.930  35.723  52.801  1.00  0.00     0.006 C 
ENDBRANCH  38  39
ENDBRANCH  32  38
ENDBRANCH  29  30
ENDBRANCH  28  29
BRANCH  28  41
HETATM   41  O1  UNL     1      43.687  37.137  50.569  1.00  0.00    -0.393 OA
ATOM     42  H1  UNL     1      43.999  36.498  49.938  1.00  0.00     0.210 HD
ENDBRANCH  28  41
ENDBRANCH   1  28
BRANCH  14  43
HETATM   43  C18 UNL     1      37.633  46.185  56.708  1.00  0.00     0.035 C 
BRANCH  43  44
HETATM   44  C19 UNL     1      37.712  46.686  58.146  1.00  0.00     0.002 C 
BRANCH  44  45
HETATM   45  C20 UNL     1      36.373  46.709  58.797  1.00  0.00     0.000 C 
BRANCH  45  46
HETATM   46  C21 UNL     1      35.965  45.461  59.498  1.00  0.00     0.002 C 
BRANCH  46  47
HETATM   47  C22 UNL     1      34.733  44.810  58.936  1.00  0.00     0.030 C 
BRANCH  47  48
HETATM   48  C23 UNL     1      34.337  43.601  59.766  1.00  0.00     0.271 C 
BRANCH  48  49
HETATM   49  N5  UNL     1      33.213  42.940  59.098  1.00  0.00     0.080 N 
HETATM   50  C24 UNL     1      33.190  41.523  59.418  1.00  0.00     0.309 C 
HETATM   51  C25 UNL     1      31.961  43.565  59.540  1.00  0.00     0.309 C 
ENDBRANCH  48  49
ENDBRANCH  47  48
ENDBRANCH  46  47
ENDBRANCH  45  46
ENDBRANCH  44  45
ENDBRANCH  43  44
ENDBRANCH  14  43
TORSDOF 13
ENDMDL
MODEL 3
REMARK VINA RESULT: -8.382163853      4.745      7.957
REMARK  13 active torsions:
REMARK  status: ('A' for Active; 'I' for Inactive)
REMARK    1  A    between atoms: C2_2  and  C3_3 
REMARK    2  A    between atoms: C3_3  and  N1_4 
REMARK       I    between atoms: N1_4  and  C4_6 
REMARK       I    between atoms: C4_6  and  N3_10 
REMARK    3  A    between atoms: N3_10  and  C5_12 
REMARK    4  A    between atoms: C5_12  and  C6_13 
REMARK    5  A    between atoms: C6_13  and  O1_14 
REMARK    6  A    between atoms: C6_13  and  C7_16 
REMARK    7  A    between atoms: C17_29  and  C18_30 
REMARK    8  A    between atoms: C18_30  and  C19_31 
REMARK    9  A    between atoms: C19_31  and  C20_32 
REMARK   10  A    between atoms: C20_32  and  C21_33 
REMARK   11  A    between atoms: C21_33  and  C22_34 
REMARK   12  A    between atoms: C22_34  and  C23_35 
REMARK   13  A    between atoms: C23_35  and  N5_36 
ROOT
HETATM    1  C7  UNL     1      41.534  36.859  50.075  1.00  0.00     0.040 C 
HETATM    2  C8  UNL     1      42.174  37.911  50.948  1.00  0.00     0.009 C 
HETATM    3  C9  UNL     1      41.943  39.304  50.487  1.00  0.00     0.001 C 
HETATM    4  C10 UNL     1      41.748  40.340  51.536  1.00  0.00     0.000 C 
HETATM    5  C11 UNL     1      42.372  40.067  52.866  1.00  0.00     0.000 C 
HETATM    6  C12 UNL     1      42.013  41.275  53.749  1.00  0.00     0.000 C 
HETATM    7  C13 UNL     1      42.191  40.999  55.204  1.00  0.00     0.000 C 
HETATM    8  C14 UNL     1      40.949  40.401  55.822  1.00  0.00     0.009 C 
HETATM    9  C15 UNL     1      40.480  41.149  57.050  1.00  0.00     0.103 C 
HETATM   10  C16 UNL     1      39.291  41.987  56.758  1.00  0.00     0.218 C 
HETATM   11  O2  UNL     1      39.516  43.248  56.692  1.00  0.00    -0.274 OA
HETATM   12  N4  UNL     1      37.978  41.551  56.550  1.00  0.00    -0.348 N 
ATOM     13  H4  UNL     1      37.527  41.917  55.712  1.00  0.00     0.163 HD
HETATM   14  C17 UNL     1      37.176  40.671  57.337  1.00  0.00     0.176 C 
HETATM   15  C26 UNL     1      37.285  39.238  57.010  1.00  0.00     0.240 C 
HETATM   16  O3  UNL     1      38.186  38.551  57.556  1.00  0.00    -0.271 OA
HETATM   17  N6  UNL     1      36.426  38.542  56.101  1.00  0.00    -0.359 N 
ATOM     18  H6  UNL     1      36.197  37.569  56.299  1.00  0.00     0.162 HD
HETATM   19  C27 UNL     1      35.875  39.144  54.930  1.00  0.00     0.122 C 
HETATM   20  C28 UNL     1      35.704  38.235  53.754  1.00  0.00     0.021 C 
HETATM   21  C29 UNL     1      36.747  37.187  53.585  1.00  0.00     0.012 C 
HETATM   22  C30 UNL     1      37.974  37.585  52.843  1.00  0.00    -0.026 C 
HETATM   23  C31 UNL     1      37.947  38.997  52.297  1.00  0.00     0.017 C 
HETATM   24  C32 UNL     1      39.164  37.406  53.773  1.00  0.00     0.017 C 
HETATM   25  C33 UNL     1      38.255  36.694  51.621  1.00  0.00     0.176 C 
HETATM   26  O4  UNL     1      39.624  36.678  51.415  1.00  0.00    -0.390 OA
HETATM   27  C34 UNL     1      40.025  36.901  50.122  1.00  0.00     0.174 C 
ENDROOT
BRANCH   1  28
HETATM   28  C6  UNL     1      42.099  36.857  48.696  1.00  0.00     0.142 C 
BRANCH  28  29
HETATM   29  C5  UNL     1      41.688  35.619  47.911  1.00  0.00     0.170 C 
BRANCH  29  30
HETATM   30  N3  UNL     1      42.857  34.780  47.785  1.00  0.00    -0.224 N 
HETATM   31  C4  UNL     1      43.114  34.056  46.566  1.00  0.00     0.667 C 
HETATM   32  N1  UNL     1      43.599  32.736  46.590  1.00  0.00    -0.227 N 
HETATM   33  N2  UNL     1      42.878  34.679  45.462  1.00  0.00    -0.235 N 
ATOM     34  H1  UNL     1      44.590  32.597  46.783  1.00  0.00     0.177 HD
ATOM     35  H22 UNL     1      43.061  34.166  44.599  1.00  0.00     0.174 HD
ATOM     36  H21 UNL     1      42.527  35.636  45.445  1.00  0.00     0.174 HD
ATOM     37  H3  UNL     1      43.507  34.699  48.567  1.00  0.00     0.177 HD
BRANCH  32  38
HETATM   38  C3  UNL     1      42.789  31.563  46.359  1.00  0.00     0.137 C 
BRANCH  38  39
HETATM   39  C2  UNL     1      43.138  30.935  45.044  1.00  0.00     0.016 C 
HETATM   40  C1  UNL     1      43.216  29.432  45.206  1.00  0.00     0.006 C 
ENDBRANCH  38  39
ENDBRANCH  32  38
ENDBRANCH  29  30
ENDBRANCH  28  29
BRANCH  28  41
HETATM   41  O1  UNL     1      41.745  37.941  47.910  1.00  0.00    -0.393 OA
ATOM     42  H1  UNL     1      42.048  38.711  48.376  1.00  0.00     0.210 HD
ENDBRANCH  28  41
ENDBRANCH   1  28
BRANCH  14  43
HETATM   43  C18 UNL     1      37.311  40.900  58.848  1.00  0.00     0.035 C 
BRANCH  43  44
HETATM   44  C19 UNL     1      36.626  42.204  59.244  1.00  0.00     0.002 C 
BRANCH  44  45
HETATM   45  C20 UNL     1      37.589  43.179  59.827  1.00  0.00     0.000 C 
BRANCH  45  46
HETATM   46  C21 UNL     1      37.149  44.601  59.846  1.00  0.00     0.002 C 
BRANCH  46  47
HETATM   47  C22 UNL     1      38.040  45.535  59.079  1.00  0.00     0.030 C 
BRANCH  47  48
HETATM   48  C23 UNL     1      37.222  46.619  58.396  1.00  0.00     0.271 C 
BRANCH  48  49
HETATM   49  N5  UNL     1      37.929  47.020  57.176  1.00  0.00     0.080 N 
HETATM   50  C24 UNL     1      39.366  46.927  57.367  1.00  0.00     0.309 C 
HETATM   51  C25 UNL     1      37.521  46.139  56.076  1.00  0.00     0.309 C 
ENDBRANCH  48  49
ENDBRANCH  47  48
ENDBRANCH  46  47
ENDBRANCH  45  46
ENDBRANCH  44  45
ENDBRANCH  43  44
ENDBRANCH  14  43
TORSDOF 13
ENDMDL
MODEL 4
REMARK VINA RESULT: -8.380151330      4.679      8.250
REMARK  13 active torsions:
REMARK  status: ('A' for Active; 'I' for Inactive)
REMARK    1  A    between atoms: C2_2  and  C3_3 
REMARK    2  A    between atoms: C3_3  and  N1_4 
REMARK       I    between atoms: N1_4  and  C4_6 
REMARK       I    between atoms: C4_6  and  N3_10 
REMARK    3  A    between atoms: N3_10  and  C5_12 
REMARK    4  A    between atoms: C5_12  and  C6_13 
REMARK    5  A    between atoms: C6_13  and  O1_14 
REMARK    6  A    between atoms: C6_13  and  C7_16 
REMARK    7  A    between atoms: C17_29  and  C18_30 
REMARK    8  A    between atoms: C18_30  and  C19_31 
REMARK    9  A    between atoms: C19_31  and  C20_32 
REMARK   10  A    between atoms: C20_32  and  C21_33 
REMARK   11  A    between atoms: C21_33  and  C22_34 
REMARK   12  A    between atoms: C22_34  and  C23_35 
REMARK   13  A    between atoms: C23_35  and  N5_36 
ROOT
HETATM    1  C7  UNL     1      40.333  36.021  49.476  1.00  0.00     0.040 C 
HETATM    2  C8  UNL     1      41.139  37.231  49.884  1.00  0.00     0.009 C 
HETATM    3  C9  UNL     1      40.597  38.519  49.380  1.00  0.00     0.001 C 
HETATM    4  C10 UNL     1      40.706  39.697  50.280  1.00  0.00     0.000 C 
HETATM    5  C11 UNL     1      41.818  39.673  51.278  1.00  0.00     0.000 C 
HETATM    6  C12 UNL     1      41.696  40.986  52.070  1.00  0.00     0.000 C 
HETATM    7  C13 UNL     1      42.446  40.955  53.358  1.00  0.00     0.000 C 
HETATM    8  C14 UNL     1      41.609  40.399  54.487  1.00  0.00     0.009 C 
HETATM    9  C15 UNL     1      41.567  41.309  55.695  1.00  0.00     0.103 C 
HETATM   10  C16 UNL     1      40.273  42.028  55.794  1.00  0.00     0.218 C 
HETATM   11  O2  UNL     1      40.315  43.272  55.485  1.00  0.00    -0.274 OA
HETATM   12  N4  UNL     1      39.038  41.497  56.179  1.00  0.00    -0.348 N 
ATOM     13  H4  UNL     1      38.263  41.700  55.549  1.00  0.00     0.163 HD
HETATM   14  C17 UNL     1      38.700  40.713  57.323  1.00  0.00     0.176 C 
HETATM   15  C26 UNL     1      38.832  39.254  57.164  1.00  0.00     0.240 C 
HETATM   16  O3  UNL     1      39.944  38.711  57.391  1.00  0.00    -0.271 OA
HETATM   17  N6  UNL     1      37.773  38.379  56.764  1.00  0.00    -0.359 N 
ATOM     18  H6  UNL     1      37.745  37.439  57.158  1.00  0.00     0.162 HD
HETATM   19  C27 UNL     1      36.753  38.757  55.840  1.00  0.00     0.122 C 
HETATM   20  C28 UNL     1      36.245  37.665  54.953  1.00  0.00     0.021 C 
HETATM   21  C29 UNL     1      37.252  36.658  54.520  1.00  0.00     0.012 C 
HETATM   22  C30 UNL     1      38.049  36.996  53.309  1.00  0.00    -0.026 C 
HETATM   23  C31 UNL     1      37.660  38.299  52.644  1.00  0.00     0.017 C 
HETATM   24  C32 UNL     1      39.516  37.028  53.708  1.00  0.00     0.017 C 
HETATM   25  C33 UNL     1      37.936  35.937  52.200  1.00  0.00     0.176 C 
HETATM   26  O4  UNL     1      39.115  35.958  51.472  1.00  0.00    -0.390 OA
HETATM   27  C34 UNL     1      38.963  35.993  50.109  1.00  0.00     0.174 C 
ENDROOT
BRANCH   1  28
HETATM   28  C6  UNL     1      40.323  35.829  47.998  1.00  0.00     0.142 C 
BRANCH  28  29
HETATM   29  C5  UNL     1      41.489  34.972  47.524  1.00  0.00     0.170 C 
BRANCH  29  30
HETATM   30  N3  UNL     1      42.048  35.610  46.356  1.00  0.00    -0.224 N 
HETATM   31  C4  UNL     1      41.945  34.991  45.060  1.00  0.00     0.667 C 
HETATM   32  N1  UNL     1      43.022  35.009  44.154  1.00  0.00    -0.227 N 
HETATM   33  N2  UNL     1      40.822  34.424  44.777  1.00  0.00    -0.235 N 
ATOM     34  H1  UNL     1      43.192  35.870  43.637  1.00  0.00     0.177 HD
ATOM     35  H22 UNL     1      40.749  33.985  43.858  1.00  0.00     0.174 HD
ATOM     36  H21 UNL     1      40.042  34.411  45.432  1.00  0.00     0.174 HD
ATOM     37  H3  UNL     1      42.521  36.510  46.450  1.00  0.00     0.177 HD
BRANCH  32  38
HETATM   38  C3  UNL     1      43.901  33.891  43.907  1.00  0.00     0.137 C 
BRANCH  38  39
HETATM   39  C2  UNL     1      44.885  34.226  42.827  1.00  0.00     0.016 C 
HETATM   40  C1  UNL     1      44.357  35.383  42.005  1.00  0.00     0.006 C 
ENDBRANCH  38  39
ENDBRANCH  32  38
ENDBRANCH  29  30
ENDBRANCH  28  29
BRANCH  28  41
HETATM   41  O1  UNL     1      39.181  35.235  47.485  1.00  0.00    -0.393 OA
ATOM     42  H1  UNL     1      38.463  35.816  47.708  1.00  0.00     0.210 HD
ENDBRANCH  28  41
ENDBRANCH   1  28
BRANCH  14  43
HETATM   43  C18 UNL     1      39.378  41.187  58.616  1.00  0.00     0.035 C 
BRANCH  43  44
HETATM   44  C19 UNL     1      38.346  41.321  59.731  1.00  0.00     0.002 C 
BRANCH  44  45
HETATM   45  C20 UNL     1      37.056  41.867  59.227  1.00  0.00     0.000 C 
BRANCH  45  46
HETATM   46  C21 UNL     1      36.600  43.142  59.846  1.00  0.00     0.002 C 
BRANCH  46  47
HETATM   47  C22 UNL     1      37.596  44.263  59.760  1.00  0.00     0.030 C 
BRANCH  47  48
HETATM   48  C23 UNL     1      37.710  44.774  58.333  1.00  0.00     0.271 C 
BRANCH  48  49
HETATM   49  N5  UNL     1      38.047  46.198  58.387  1.00  0.00     0.080 N 
HETATM   50  C24 UNL     1      38.971  46.544  57.321  1.00  0.00     0.309 C 
HETATM   51  C25 UNL     1      36.817  46.986  58.247  1.00  0.00     0.309 C 
ENDBRANCH  48  49
ENDBRANCH  47  48
ENDBRANCH  46  47
ENDBRANCH  45  46
ENDBRANCH  44  45
ENDBRANCH  43  44
ENDBRANCH  14  43
TORSDOF 13
ENDMDL
MODEL 5
REMARK VINA RESULT: -8.346959877      4.724      7.858
REMARK  13 active torsions:
REMARK  status: ('A' for Active; 'I' for Inactive)
REMARK    1  A    between atoms: C2_2  and  C3_3 
REMARK    2  A    between atoms: C3_3  and  N1_4 
REMARK       I    between atoms: N1_4  and  C4_6 
REMARK       I    between atoms: C4_6  and  N3_10 
REMARK    3  A    between atoms: N3_10  and  C5_12 
REMARK    4  A    between atoms: C5_12  and  C6_13 
REMARK    5  A    between atoms: C6_13  and  O1_14 
REMARK    6  A    between atoms: C6_13  and  C7_16 
REMARK    7  A    between atoms: C17_29  and  C18_30 
REMARK    8  A    between atoms: C18_30  and  C19_31 
REMARK    9  A    between atoms: C19_31  and  C20_32 
REMARK   10  A    between atoms: C20_32  and  C21_33 
REMARK   11  A    between atoms: C21_33  and  C22_34 
REMARK   12  A    between atoms: C22_34  and  C23_35 
REMARK   13  A    between atoms: C23_35  and  N5_36 
ROOT
HETATM    1  C7  UNL     1      40.878  36.128  49.470  1.00  0.00     0.040 C 
HETATM    2  C8  UNL     1      41.655  37.316  49.987  1.00  0.00     0.009 C 
HETATM    3  C9  UNL     1      41.258  38.612  49.379  1.00  0.00     0.001 C 
HETATM    4  C10 UNL     1      41.264  39.805  50.265  1.00  0.00     0.000 C 
HETATM    5  C11 UNL     1      42.193  39.761  51.435  1.00  0.00     0.000 C 
HETATM    6  C12 UNL     1      41.995  41.095  52.175  1.00  0.00     0.000 C 
HETATM    7  C13 UNL     1      42.520  41.066  53.570  1.00  0.00     0.000 C 
HETATM    8  C14 UNL     1      41.485  40.569  54.553  1.00  0.00     0.009 C 
HETATM    9  C15 UNL     1      41.280  41.507  55.722  1.00  0.00     0.103 C 
HETATM   10  C16 UNL     1      40.019  42.276  55.591  1.00  0.00     0.218 C 
HETATM   11  O2  UNL     1      40.163  43.510  55.274  1.00  0.00    -0.274 OA
HETATM   12  N4  UNL     1      38.716  41.802  55.774  1.00  0.00    -0.348 N 
ATOM     13  H4  UNL     1      38.065  42.020  55.020  1.00  0.00     0.163 HD
HETATM   14  C17 UNL     1      38.160  41.058  56.858  1.00  0.00     0.176 C 
HETATM   15  C26 UNL     1      38.257  39.592  56.747  1.00  0.00     0.240 C 
HETATM   16  O3  UNL     1      39.291  39.011  57.165  1.00  0.00    -0.271 OA
HETATM   17  N6  UNL     1      37.243  38.749  56.190  1.00  0.00    -0.359 N 
ATOM     18  H6  UNL     1      37.111  37.820  56.590  1.00  0.00     0.162 HD
HETATM   19  C27 UNL     1      36.407  39.144  55.103  1.00  0.00     0.122 C 
HETATM   20  C28 UNL     1      36.009  38.051  54.162  1.00  0.00     0.021 C 
HETATM   21  C29 UNL     1      37.031  36.998  53.919  1.00  0.00     0.012 C 
HETATM   22  C30 UNL     1      38.032  37.277  52.853  1.00  0.00    -0.026 C 
HETATM   23  C31 UNL     1      37.813  38.579  52.111  1.00  0.00     0.017 C 
HETATM   24  C32 UNL     1      39.412  37.263  53.490  1.00  0.00     0.017 C 
HETATM   25  C33 UNL     1      38.061  36.198  51.757  1.00  0.00     0.176 C 
HETATM   26  O4  UNL     1      39.344  36.158  51.236  1.00  0.00    -0.390 OA
HETATM   27  C34 UNL     1      39.422  36.167  49.867  1.00  0.00     0.174 C 
ENDROOT
BRANCH   1  28
HETATM   28  C6  UNL     1      41.105  35.903  48.015  1.00  0.00     0.142 C 
BRANCH  28  29
HETATM   29  C5  UNL     1      42.395  35.139  47.749  1.00  0.00     0.170 C 
BRANCH  29  30
HETATM   30  N3  UNL     1      42.034  33.877  47.145  1.00  0.00    -0.224 N 
HETATM   31  C4  UNL     1      42.755  33.375  46.004  1.00  0.00     0.667 C 
HETATM   32  N1  UNL     1      42.086  32.754  44.934  1.00  0.00    -0.227 N 
HETATM   33  N2  UNL     1      44.035  33.524  46.017  1.00  0.00    -0.235 N 
ATOM     34  H1  UNL     1      41.781  31.790  45.061  1.00  0.00     0.177 HD
ATOM     35  H22 UNL     1      44.546  33.169  45.209  1.00  0.00     0.174 HD
ATOM     36  H21 UNL     1      44.520  33.974  46.793  1.00  0.00     0.174 HD
ATOM     37  H3  UNL     1      41.259  33.337  47.532  1.00  0.00     0.177 HD
BRANCH  32  38
HETATM   38  C3  UNL     1      41.803  33.388  43.668  1.00  0.00     0.137 C 
BRANCH  38  39
HETATM   39  C2  UNL     1      40.711  34.402  43.822  1.00  0.00     0.016 C 
HETATM   40  C1  UNL     1      40.169  34.771  42.457  1.00  0.00     0.006 C 
ENDBRANCH  38  39
ENDBRANCH  32  38
ENDBRANCH  29  30
ENDBRANCH  28  29
BRANCH  28  41
HETATM   41  O1  UNL     1      40.106  35.202  47.361  1.00  0.00    -0.393 OA
ATOM     42  H1  UNL     1      39.290  35.625  47.602  1.00  0.00     0.210 HD
ENDBRANCH  28  41
ENDBRANCH   1  28
BRANCH  14  43
HETATM   43  C18 UNL     1      38.633  41.535  58.238  1.00  0.00     0.035 C 
BRANCH  43  44
HETATM   44  C19 UNL     1      37.437  41.729  59.164  1.00  0.00     0.002 C 
BRANCH  44  45
HETATM   45  C20 UNL     1      36.933  43.130  59.130  1.00  0.00     0.000 C 
BRANCH  45  46
HETATM   46  C21 UNL     1      37.760  44.140  59.846  1.00  0.00     0.002 C 
BRANCH  46  47
HETATM   47  C22 UNL     1      37.869  45.462  59.141  1.00  0.00     0.030 C 
BRANCH  47  48
HETATM   48  C23 UNL     1      37.955  45.266  57.637  1.00  0.00     0.271 C 
BRANCH  48  49
HETATM   49  N5  UNL     1      38.268  46.561  57.027  1.00  0.00     0.080 N 
HETATM   50  C24 UNL     1      37.360  47.585  57.512  1.00  0.00     0.309 C 
HETATM   51  C25 UNL     1      39.648  46.926  57.366  1.00  0.00     0.309 C 
ENDBRANCH  48  49
ENDBRANCH  47  48
ENDBRANCH  46  47
ENDBRANCH  45  46
ENDBRANCH  44  45
ENDBRANCH  43  44
ENDBRANCH  14  43
TORSDOF 13
ENDMDL
