MODEL 1
REMARK VINA RESULT: -8.544157787      0.000      0.000
REMARK  18 active torsions:
REMARK  status: ('A' for Active; 'I' for Inactive)
REMARK    1  A    between atoms: C2_2  and  O1_3 
REMARK    2  A    between atoms: C2_2  and  C3_5 
REMARK    3  A    between atoms: C2_2  and  C14_19 
REMARK    4  A    between atoms: C3_5  and  N1_6 
REMARK    5  A    between atoms: N1_6  and  C6_9 
REMARK    6  A    between atoms: C7_10  and  C8_11 
REMARK    7  A    between atoms: C8_11  and  C9_12 
REMARK    8  A    between atoms: C9_12  and  C10_13 
REMARK    9  A    between atoms: C10_13  and  C11_14 
REMARK   10  A    between atoms: C11_14  and  C12_15 
REMARK   11  A    between atoms: C12_15  and  C13_16 
REMARK   12  A    between atoms: C19_24  and  O4_25 
REMARK   13  A    between atoms: C23_30  and  C24_31 
REMARK   14  A    between atoms: C25_32  and  C26_33 
REMARK   15  A    between atoms: C26_33  and  O5_34 
REMARK   16  A    between atoms: C26_33  and  C27_36 
REMARK   17  A    between atoms: C27_36  and  O6_37 
REMARK   18  A    between atoms: C28_39  and  O7_40 
ROOT
HETATM    1  C14 UNL     1      38.617  44.418  53.747  1.00  0.00     0.030 C 
HETATM    2  C15 UNL     1      39.387  45.410  54.704  1.00  0.00     0.009 C 
HETATM    3  C16 UNL     1      39.609  44.590  55.938  1.00  0.00     0.006 C 
HETATM    4  C17 UNL     1      39.209  43.191  55.543  1.00  0.00     0.001 C 
HETATM    5  C18 UNL     1      39.923  42.124  56.258  1.00  0.00     0.024 C 
HETATM    6  C19 UNL     1      39.027  41.710  57.434  1.00  0.00     0.123 C 
HETATM    7  C20 UNL     1      38.285  40.431  57.144  1.00  0.00     0.037 C 
HETATM    8  C21 UNL     1      39.300  39.320  57.050  1.00  0.00    -0.002 C 
HETATM    9  C22 UNL     1      38.615  38.030  56.645  1.00  0.00     0.025 C 
HETATM   10  C23 UNL     1      39.565  36.888  56.497  1.00  0.00     0.094 C 
HETATM   11  C28 UNL     1      40.956  37.286  56.095  1.00  0.00     0.134 C 
HETATM   12  C29 UNL     1      40.811  38.559  55.256  1.00  0.00     0.042 C 
HETATM   13  C30 UNL     1      40.502  39.663  56.261  1.00  0.00    -0.034 C 
HETATM   14  C31 UNL     1      41.751  39.769  57.149  1.00  0.00     0.016 C 
HETATM   15  C32 UNL     1      40.406  40.965  55.472  1.00  0.00     0.001 C 
HETATM   16  C33 UNL     1      39.680  40.737  54.186  1.00  0.00     0.007 C 
HETATM   17  C34 UNL     1      39.059  41.919  53.546  1.00  0.00     0.010 C 
HETATM   18  C35 UNL     1      39.511  43.259  54.012  1.00  0.00    -0.034 C 
HETATM   19  C36 UNL     1      40.976  43.476  53.932  1.00  0.00     0.016 C 
ENDROOT
BRANCH   1  20
HETATM   20  C2  UNL     1      38.527  45.044  52.415  1.00  0.00     0.083 C 
HETATM   21  C1  UNL     1      37.026  45.312  52.113  1.00  0.00     0.048 C 
BRANCH  20  22
HETATM   22  O1  UNL     1      39.064  46.332  52.533  1.00  0.00    -0.388 OA
ATOM     23  H1  UNL     1      39.056  46.654  51.639  1.00  0.00     0.210 HD
ENDBRANCH  20  22
BRANCH  20  24
HETATM   24  C3  UNL     1      39.190  44.461  51.246  1.00  0.00     0.279 C 
BRANCH  24  25
HETATM   25  N1  UNL     1      40.346  44.956  50.617  1.00  0.00    -0.052 N 
HETATM   26  C4  UNL     1      39.902  46.125  49.776  1.00  0.00     0.278 C 
HETATM   27  C5  UNL     1      41.433  45.462  51.341  1.00  0.00     0.278 C 
BRANCH  25  28
HETATM   28  C6  UNL     1      40.810  44.032  49.608  1.00  0.00     0.197 C 
HETATM   29  C7  UNL     1      41.898  43.101  49.810  1.00  0.00    -0.002 C 
BRANCH  29  30
HETATM   30  C8  UNL     1      41.836  41.963  50.741  1.00  0.00     0.028 C 
BRANCH  30  31
HETATM   31  C9  UNL     1      43.104  41.797  51.573  1.00  0.00     0.004 C 
BRANCH  31  32
HETATM   32  C10 UNL     1      43.077  40.455  52.243  1.00  0.00     0.001 C 
BRANCH  32  33
HETATM   33  C11 UNL     1      42.100  39.508  51.616  1.00  0.00     0.010 C 
BRANCH  33  34
HETATM   34  C12 UNL     1      42.754  38.236  51.175  1.00  0.00     0.113 C 
BRANCH  34  35
HETATM   35  C13 UNL     1      42.139  37.606  49.990  1.00  0.00     0.172 C 
HETATM   36  O2  UNL     1      41.577  36.496  50.121  1.00  0.00    -0.648 OA
HETATM   37  O3  UNL     1      42.139  38.165  48.726  1.00  0.00    -0.648 OA
ENDBRANCH  34  35
ENDBRANCH  33  34
ENDBRANCH  32  33
ENDBRANCH  31  32
ENDBRANCH  30  31
ENDBRANCH  29  30
ENDBRANCH  25  28
ENDBRANCH  24  25
ENDBRANCH  20  24
ENDBRANCH   1  20
BRANCH   6  38
HETATM   38  O4  UNL     1      39.724  41.600  58.616  1.00  0.00    -0.395 OA
ATOM     39  H4  UNL     1      39.528  42.304  59.222  1.00  0.00     0.210 HD
ENDBRANCH   6  38
BRANCH  11  40
HETATM   40  O7  UNL     1      41.558  36.331  55.266  1.00  0.00    -0.394 OA
ATOM     41  H7  UNL     1      41.031  36.137  54.500  1.00  0.00     0.210 HD
ENDBRANCH  11  40
BRANCH  10  42
HETATM   42  C24 UNL     1      38.969  35.961  55.507  1.00  0.00    -0.096 C 
HETATM   43  C25 UNL     1      38.488  35.186  54.709  1.00  0.00    -0.072 C 
BRANCH  43  44
HETATM   44  C26 UNL     1      37.914  34.234  53.768  1.00  0.00     0.220 C 
BRANCH  44  45
HETATM   45  O5  UNL     1      38.607  33.014  53.851  1.00  0.00    -0.381 OA
ATOM     46  H5  UNL     1      38.002  32.320  54.087  1.00  0.00     0.211 HD
ENDBRANCH  44  45
BRANCH  44  47
HETATM   47  C27 UNL     1      36.460  33.921  54.095  1.00  0.00     0.208 C 
BRANCH  47  48
HETATM   48  O6  UNL     1      36.309  33.438  55.383  1.00  0.00    -0.397 OA
ATOM     49  H6  UNL     1      36.023  32.533  55.393  1.00  0.00     0.209 HD
ENDBRANCH  47  48
ENDBRANCH  44  47
ENDBRANCH  43  44
ENDBRANCH  10  42
TORSDOF 18
ENDMDL
MODEL 2
REMARK VINA RESULT: -8.474432311      2.452      7.453
REMARK  18 active torsions:
REMARK  status: ('A' for Active; 'I' for Inactive)
REMARK    1  A    between atoms: C2_2  and  O1_3 
REMARK    2  A    between atoms: C2_2  and  C3_5 
REMARK    3  A    between atoms: C2_2  and  C14_19 
REMARK    4  A    between atoms: C3_5  and  N1_6 
REMARK    5  A    between atoms: N1_6  and  C6_9 
REMARK    6  A    between atoms: C7_10  and  C8_11 
REMARK    7  A    between atoms: C8_11  and  C9_12 
REMARK    8  A    between atoms: C9_12  and  C10_13 
REMARK    9  A    between atoms: C10_13  and  C11_14 
REMARK   10  A    between atoms: C11_14  and  C12_15 
REMARK   11  A    between atoms: C12_15  and  C13_16 
REMARK   12  A    between atoms: C19_24  and  O4_25 
REMARK   13  A    between atoms: C23_30  and  C24_31 
REMARK   14  A    between atoms: C25_32  and  C26_33 
REMARK   15  A    between atoms: C26_33  and  O5_34 
REMARK   16  A    between atoms: C26_33  and  C27_36 
REMARK   17  A    between atoms: C27_36  and  O6_37 
REMARK   18  A    between atoms: C28_39  and  O7_40 
ROOT
HETATM    1  C14 UNL     1      39.198  36.843  53.518  1.00  0.00     0.030 C 
HETATM    2  C15 UNL     1      39.163  36.112  54.917  1.00  0.00     0.009 C 
HETATM    3  C16 UNL     1      39.925  37.045  55.809  1.00  0.00     0.006 C 
HETATM    4  C17 UNL     1      40.113  38.292  54.983  1.00  0.00     0.001 C 
HETATM    5  C18 UNL     1      40.194  39.536  55.760  1.00  0.00     0.024 C 
HETATM    6  C19 UNL     1      41.688  39.826  55.966  1.00  0.00     0.123 C 
HETATM    7  C20 UNL     1      42.183  40.890  55.021  1.00  0.00     0.037 C 
HETATM    8  C21 UNL     1      41.505  42.186  55.387  1.00  0.00    -0.002 C 
HETATM    9  C22 UNL     1      41.883  43.264  54.392  1.00  0.00     0.025 C 
HETATM   10  C23 UNL     1      41.221  44.572  54.671  1.00  0.00     0.094 C 
HETATM   11  C28 UNL     1      39.887  44.460  55.351  1.00  0.00     0.134 C 
HETATM   12  C29 UNL     1      39.283  43.130  54.891  1.00  0.00     0.042 C 
HETATM   13  C30 UNL     1      40.057  42.058  55.650  1.00  0.00    -0.034 C 
HETATM   14  C31 UNL     1      39.727  42.289  57.133  1.00  0.00     0.016 C 
HETATM   15  C32 UNL     1      39.447  40.715  55.264  1.00  0.00     0.001 C 
HETATM   16  C33 UNL     1      39.139  40.688  53.802  1.00  0.00     0.007 C 
HETATM   17  C34 UNL     1      39.027  39.358  53.162  1.00  0.00     0.010 C 
HETATM   18  C35 UNL     1      38.856  38.184  54.062  1.00  0.00    -0.034 C 
HETATM   19  C36 UNL     1      37.705  38.287  54.993  1.00  0.00     0.016 C 
ENDROOT
BRANCH   1  20
HETATM   20  C2  UNL     1      38.296  36.121  52.602  1.00  0.00     0.083 C 
HETATM   21  C1  UNL     1      37.629  34.966  53.400  1.00  0.00     0.048 C 
BRANCH  20  22
HETATM   22  O1  UNL     1      37.224  36.980  52.326  1.00  0.00    -0.388 OA
ATOM     23  H1  UNL     1      37.126  37.471  53.133  1.00  0.00     0.210 HD
ENDBRANCH  20  22
BRANCH  20  24
HETATM   24  C3  UNL     1      38.750  35.646  51.294  1.00  0.00     0.279 C 
BRANCH  24  25
HETATM   25  N1  UNL     1      39.268  36.442  50.257  1.00  0.00    -0.052 N 
HETATM   26  C4  UNL     1      38.729  35.867  48.972  1.00  0.00     0.278 C 
HETATM   27  C5  UNL     1      38.985  37.810  50.152  1.00  0.00     0.278 C 
BRANCH  25  28
HETATM   28  C6  UNL     1      40.686  36.217  50.103  1.00  0.00     0.197 C 
HETATM   29  C7  UNL     1      41.685  37.253  50.250  1.00  0.00    -0.002 C 
BRANCH  29  30
HETATM   30  C8  UNL     1      41.988  37.919  51.527  1.00  0.00     0.028 C 
BRANCH  30  31
HETATM   31  C9  UNL     1      43.364  38.578  51.549  1.00  0.00     0.004 C 
BRANCH  31  32
HETATM   32  C10 UNL     1      43.204  40.031  51.887  1.00  0.00     0.001 C 
BRANCH  32  33
HETATM   33  C11 UNL     1      41.934  40.618  51.356  1.00  0.00     0.010 C 
BRANCH  33  34
HETATM   34  C12 UNL     1      42.118  42.028  50.887  1.00  0.00     0.113 C 
BRANCH  34  35
HETATM   35  C13 UNL     1      40.898  42.665  50.354  1.00  0.00     0.172 C 
HETATM   36  O2  UNL     1      40.925  43.144  49.199  1.00  0.00    -0.648 OA
HETATM   37  O3  UNL     1      39.709  42.768  51.050  1.00  0.00    -0.648 OA
ENDBRANCH  34  35
ENDBRANCH  33  34
ENDBRANCH  32  33
ENDBRANCH  31  32
ENDBRANCH  30  31
ENDBRANCH  29  30
ENDBRANCH  25  28
ENDBRANCH  24  25
ENDBRANCH  20  24
ENDBRANCH   1  20
BRANCH   6  38
HETATM   38  O4  UNL     1      41.985  40.168  57.267  1.00  0.00    -0.395 OA
ATOM     39  H4  UNL     1      41.922  41.104  57.421  1.00  0.00     0.210 HD
ENDBRANCH   6  38
BRANCH  11  40
HETATM   40  O7  UNL     1      38.999  45.462  54.941  1.00  0.00    -0.394 OA
ATOM     41  H7  UNL     1      39.399  46.323  54.959  1.00  0.00     0.210 HD
ENDBRANCH  11  40
BRANCH  10  42
HETATM   42  C24 UNL     1      41.098  45.275  53.373  1.00  0.00    -0.096 C 
HETATM   43  C25 UNL     1      40.977  45.844  52.309  1.00  0.00    -0.072 C 
BRANCH  43  44
HETATM   44  C26 UNL     1      40.805  46.524  51.033  1.00  0.00     0.220 C 
BRANCH  44  45
HETATM   45  O5  UNL     1      41.569  45.873  50.047  1.00  0.00    -0.381 OA
ATOM     46  H5  UNL     1      42.310  46.417  49.808  1.00  0.00     0.211 HD
ENDBRANCH  44  45
BRANCH  44  47
HETATM   47  C27 UNL     1      39.361  46.474  50.554  1.00  0.00     0.208 C 
BRANCH  47  48
HETATM   48  O6  UNL     1      39.130  45.404  49.708  1.00  0.00    -0.397 OA
ATOM     49  H6  UNL     1      38.692  45.670  48.908  1.00  0.00     0.209 HD
ENDBRANCH  47  48
ENDBRANCH  44  47
ENDBRANCH  43  44
ENDBRANCH  10  42
TORSDOF 18
ENDMDL
MODEL 3
REMARK VINA RESULT: -8.456554253      2.591      6.784
REMARK  18 active torsions:
REMARK  status: ('A' for Active; 'I' for Inactive)
REMARK    1  A    between atoms: C2_2  and  O1_3 
REMARK    2  A    between atoms: C2_2  and  C3_5 
REMARK    3  A    between atoms: C2_2  and  C14_19 
REMARK    4  A    between atoms: C3_5  and  N1_6 
REMARK    5  A    between atoms: N1_6  and  C6_9 
REMARK    6  A    between atoms: C7_10  and  C8_11 
REMARK    7  A    between atoms: C8_11  and  C9_12 
REMARK    8  A    between atoms: C9_12  and  C10_13 
REMARK    9  A    between atoms: C10_13  and  C11_14 
REMARK   10  A    between atoms: C11_14  and  C12_15 
REMARK   11  A    between atoms: C12_15  and  C13_16 
REMARK   12  A    between atoms: C19_24  and  O4_25 
REMARK   13  A    between atoms: C23_30  and  C24_31 
REMARK   14  A    between atoms: C25_32  and  C26_33 
REMARK   15  A    between atoms: C26_33  and  O5_34 
REMARK   16  A    between atoms: C26_33  and  C27_36 
REMARK   17  A    between atoms: C27_36  and  O6_37 
REMARK   18  A    between atoms: C28_39  and  O7_40 
ROOT
HETATM    1  C14 UNL     1      37.865  44.626  57.007  1.00  0.00     0.030 C 
HETATM    2  C15 UNL     1      38.156  46.142  57.339  1.00  0.00     0.009 C 
HETATM    3  C16 UNL     1      39.477  46.389  56.677  1.00  0.00     0.006 C 
HETATM    4  C17 UNL     1      39.721  45.156  55.844  1.00  0.00     0.001 C 
HETATM    5  C18 UNL     1      40.521  45.384  54.633  1.00  0.00     0.024 C 
HETATM    6  C19 UNL     1      41.973  45.041  54.998  1.00  0.00     0.123 C 
HETATM    7  C20 UNL     1      42.368  43.680  54.485  1.00  0.00     0.037 C 
HETATM    8  C21 UNL     1      42.375  43.738  52.978  1.00  0.00    -0.002 C 
HETATM    9  C22 UNL     1      42.655  42.361  52.412  1.00  0.00     0.025 C 
HETATM   10  C23 UNL     1      42.642  42.332  50.919  1.00  0.00     0.094 C 
HETATM   11  C28 UNL     1      41.745  43.356  50.286  1.00  0.00     0.134 C 
HETATM   12  C29 UNL     1      40.599  43.590  51.274  1.00  0.00     0.042 C 
HETATM   13  C30 UNL     1      41.206  44.428  52.394  1.00  0.00    -0.034 C 
HETATM   14  C31 UNL     1      41.602  45.760  51.740  1.00  0.00     0.016 C 
HETATM   15  C32 UNL     1      40.080  44.734  53.377  1.00  0.00     0.001 C 
HETATM   16  C33 UNL     1      39.218  43.528  53.567  1.00  0.00     0.007 C 
HETATM   17  C34 UNL     1      38.418  43.463  54.811  1.00  0.00     0.010 C 
HETATM   18  C35 UNL     1      38.242  44.731  55.573  1.00  0.00    -0.034 C 
HETATM   19  C36 UNL     1      37.674  45.850  54.781  1.00  0.00     0.016 C 
ENDROOT
BRANCH   1  20
HETATM   20  C2  UNL     1      36.484  44.322  57.428  1.00  0.00     0.083 C 
HETATM   21  C1  UNL     1      35.827  45.649  57.906  1.00  0.00     0.048 C 
BRANCH  20  22
HETATM   22  O1  UNL     1      35.764  44.010  56.267  1.00  0.00    -0.388 OA
ATOM     23  H1  UNL     1      35.096  44.685  56.238  1.00  0.00     0.210 HD
ENDBRANCH  20  22
BRANCH  20  24
HETATM   24  C3  UNL     1      36.188  43.236  58.364  1.00  0.00     0.279 C 
BRANCH  24  25
HETATM   25  N1  UNL     1      36.148  41.865  58.055  1.00  0.00    -0.052 N 
HETATM   26  C4  UNL     1      34.865  41.336  58.645  1.00  0.00     0.278 C 
HETATM   27  C5  UNL     1      36.124  41.396  56.735  1.00  0.00     0.278 C 
BRANCH  25  28
HETATM   28  C6  UNL     1      37.137  41.143  58.820  1.00  0.00     0.197 C 
HETATM   29  C7  UNL     1      38.389  40.669  58.271  1.00  0.00    -0.002 C 
BRANCH  29  30
HETATM   30  C8  UNL     1      39.471  41.559  57.820  1.00  0.00     0.028 C 
BRANCH  30  31
HETATM   31  C9  UNL     1      40.387  40.914  56.784  1.00  0.00     0.004 C 
BRANCH  31  32
HETATM   32  C10 UNL     1      41.582  40.335  57.482  1.00  0.00     0.001 C 
BRANCH  32  33
HETATM   33  C11 UNL     1      41.507  38.847  57.633  1.00  0.00     0.010 C 
BRANCH  33  34
HETATM   34  C12 UNL     1      41.116  38.171  56.356  1.00  0.00     0.113 C 
BRANCH  34  35
HETATM   35  C13 UNL     1      39.970  37.248  56.473  1.00  0.00     0.172 C 
HETATM   36  O2  UNL     1      39.910  36.262  55.706  1.00  0.00    -0.648 OA
HETATM   37  O3  UNL     1      38.943  37.397  57.385  1.00  0.00    -0.648 OA
ENDBRANCH  34  35
ENDBRANCH  33  34
ENDBRANCH  32  33
ENDBRANCH  31  32
ENDBRANCH  30  31
ENDBRANCH  29  30
ENDBRANCH  25  28
ENDBRANCH  24  25
ENDBRANCH  20  24
ENDBRANCH   1  20
BRANCH   6  38
HETATM   38  O4  UNL     1      42.867  45.993  54.561  1.00  0.00    -0.395 OA
ATOM     39  H4  UNL     1      43.260  45.768  53.726  1.00  0.00     0.210 HD
ENDBRANCH   6  38
BRANCH  11  40
HETATM   40  O7  UNL     1      41.160  42.886  49.104  1.00  0.00    -0.394 OA
ATOM     41  H7  UNL     1      40.943  43.591  48.507  1.00  0.00     0.210 HD
ENDBRANCH  11  40
BRANCH  10  42
HETATM   42  C24 UNL     1      42.249  40.961  50.521  1.00  0.00    -0.096 C 
HETATM   43  C25 UNL     1      41.947  39.832  50.197  1.00  0.00    -0.072 C 
BRANCH  43  44
HETATM   44  C26 UNL     1      41.609  38.467  49.817  1.00  0.00     0.220 C 
BRANCH  44  45
HETATM   45  O5  UNL     1      41.848  38.289  48.442  1.00  0.00    -0.381 OA
ATOM     46  H5  UNL     1      42.758  38.485  48.250  1.00  0.00     0.211 HD
ENDBRANCH  44  45
BRANCH  44  47
HETATM   47  C27 UNL     1      42.479  37.447  50.536  1.00  0.00     0.208 C 
BRANCH  47  48
HETATM   48  O6  UNL     1      42.896  37.900  51.775  1.00  0.00    -0.397 OA
ATOM     49  H6  UNL     1      43.697  38.408  51.719  1.00  0.00     0.209 HD
ENDBRANCH  47  48
ENDBRANCH  44  47
ENDBRANCH  43  44
ENDBRANCH  10  42
TORSDOF 18
ENDMDL
MODEL 4
REMARK VINA RESULT: -8.328013762      3.239      7.036
REMARK  18 active torsions:
REMARK  status: ('A' for Active; 'I' for Inactive)
REMARK    1  A    between atoms: C2_2  and  O1_3 
REMARK    2  A    between atoms: C2_2  and  C3_5 
REMARK    3  A    between atoms: C2_2  and  C14_19 
REMARK    4  A    between atoms: C3_5  and  N1_6 
REMARK    5  A    between atoms: N1_6  and  C6_9 
REMARK    6  A    between atoms: C7_10  and  C8_11 
REMARK    7  A    between atoms: C8_11  and  C9_12 
REMARK    8  A    between atoms: C9_12  and  C10_13 
REMARK    9  A    between atoms: C10_13  and  C11_14 
REMARK   10  A    between atoms: C11_14  and  C12_15 
REMARK   11  A    between atoms: C12_15  and  C13_16 
REMARK   12  A    between atoms: C19_24  and  O4_25 
REMARK   13  A    between atoms: C23_30  and  C24_31 
REMARK   14  A    between atoms: C25_32  and  C26_33 
REMARK   15  A    between atoms: C26_33  and  O5_34 
REMARK   16  A    between atoms: C26_33  and  C27_36 
REMARK   17  A    between atoms: C27_36  and  O6_37 
REMARK   18  A    between atoms: C28_39  and  O7_40 
ROOT
HETATM    1  C14 UNL     1      38.166  44.788  56.927  1.00  0.00     0.030 C 
HETATM    2  C15 UNL     1      38.522  46.295  57.232  1.00  0.00     0.009 C 
HETATM    3  C16 UNL     1      39.806  46.500  56.488  1.00  0.00     0.006 C 
HETATM    4  C17 UNL     1      39.962  45.257  55.648  1.00  0.00     0.001 C 
HETATM    5  C18 UNL     1      40.691  45.456  54.388  1.00  0.00     0.024 C 
HETATM    6  C19 UNL     1      42.153  45.071  54.664  1.00  0.00     0.123 C 
HETATM    7  C20 UNL     1      42.475  43.698  54.135  1.00  0.00     0.037 C 
HETATM    8  C21 UNL     1      42.389  43.750  52.631  1.00  0.00    -0.002 C 
HETATM    9  C22 UNL     1      42.592  42.363  52.056  1.00  0.00     0.025 C 
HETATM   10  C23 UNL     1      42.486  42.329  50.567  1.00  0.00     0.094 C 
HETATM   11  C28 UNL     1      41.582  43.377  49.985  1.00  0.00     0.134 C 
HETATM   12  C29 UNL     1      40.507  43.649  51.041  1.00  0.00     0.042 C 
HETATM   13  C30 UNL     1      41.207  44.472  52.117  1.00  0.00    -0.034 C 
HETATM   14  C31 UNL     1      41.601  45.789  51.432  1.00  0.00     0.016 C 
HETATM   15  C32 UNL     1      40.153  44.816  53.166  1.00  0.00     0.001 C 
HETATM   16  C33 UNL     1      39.270  43.637  53.416  1.00  0.00     0.007 C 
HETATM   17  C34 UNL     1      38.547  43.600  54.708  1.00  0.00     0.010 C 
HETATM   18  C35 UNL     1      38.457  44.876  55.472  1.00  0.00    -0.034 C 
HETATM   19  C36 UNL     1      37.874  46.008  54.710  1.00  0.00     0.016 C 
ENDROOT
BRANCH   1  20
HETATM   20  C2  UNL     1      36.806  44.527  57.435  1.00  0.00     0.083 C 
HETATM   21  C1  UNL     1      36.235  45.866  57.979  1.00  0.00     0.048 C 
BRANCH  20  22
HETATM   22  O1  UNL     1      35.999  44.265  56.320  1.00  0.00    -0.388 OA
ATOM     23  H1  UNL     1      35.448  43.548  56.614  1.00  0.00     0.210 HD
ENDBRANCH  20  22
BRANCH  20  24
HETATM   24  C3  UNL     1      36.532  43.434  58.369  1.00  0.00     0.279 C 
BRANCH  24  25
HETATM   25  N1  UNL     1      37.073  42.137  58.309  1.00  0.00    -0.052 N 
HETATM   26  C4  UNL     1      36.132  41.250  59.084  1.00  0.00     0.278 C 
HETATM   27  C5  UNL     1      37.248  41.455  57.097  1.00  0.00     0.278 C 
BRANCH  25  28
HETATM   28  C6  UNL     1      38.275  42.050  59.104  1.00  0.00     0.197 C 
HETATM   29  C7  UNL     1      38.665  40.871  59.846  1.00  0.00    -0.002 C 
BRANCH  29  30
HETATM   30  C8  UNL     1      39.062  39.603  59.213  1.00  0.00     0.028 C 
BRANCH  30  31
HETATM   31  C9  UNL     1      40.561  39.332  59.299  1.00  0.00     0.004 C 
BRANCH  31  32
HETATM   32  C10 UNL     1      41.021  38.718  58.009  1.00  0.00     0.001 C 
BRANCH  32  33
HETATM   33  C11 UNL     1      40.094  38.996  56.867  1.00  0.00     0.010 C 
BRANCH  33  34
HETATM   34  C12 UNL     1      40.703  39.921  55.860  1.00  0.00     0.113 C 
BRANCH  34  35
HETATM   35  C13 UNL     1      41.497  41.023  56.437  1.00  0.00     0.172 C 
HETATM   36  O2  UNL     1      40.899  42.033  56.870  1.00  0.00    -0.648 OA
HETATM   37  O3  UNL     1      42.875  41.018  56.537  1.00  0.00    -0.648 OA
ENDBRANCH  34  35
ENDBRANCH  33  34
ENDBRANCH  32  33
ENDBRANCH  31  32
ENDBRANCH  30  31
ENDBRANCH  29  30
ENDBRANCH  25  28
ENDBRANCH  24  25
ENDBRANCH  20  24
ENDBRANCH   1  20
BRANCH   6  38
HETATM   38  O4  UNL     1      43.045  45.995  54.167  1.00  0.00    -0.395 OA
ATOM     39  H4  UNL     1      42.634  46.621  53.582  1.00  0.00     0.210 HD
ENDBRANCH   6  38
BRANCH  11  40
HETATM   40  O7  UNL     1      40.910  42.920  48.844  1.00  0.00    -0.394 OA
ATOM     41  H7  UNL     1      41.450  42.976  48.065  1.00  0.00     0.210 HD
ENDBRANCH  11  40
BRANCH  10  42
HETATM   42  C24 UNL     1      42.028  40.969  50.201  1.00  0.00    -0.096 C 
HETATM   43  C25 UNL     1      41.650  39.862  49.882  1.00  0.00    -0.072 C 
BRANCH  43  44
HETATM   44  C26 UNL     1      41.199  38.539  49.471  1.00  0.00     0.220 C 
BRANCH  44  45
HETATM   45  O5  UNL     1      41.656  38.270  48.169  1.00  0.00    -0.381 OA
ATOM     46  H5  UNL     1      41.271  38.891  47.562  1.00  0.00     0.211 HD
ENDBRANCH  44  45
BRANCH  44  47
HETATM   47  C27 UNL     1      41.772  37.444  50.359  1.00  0.00     0.208 C 
BRANCH  47  48
HETATM   48  O6  UNL     1      43.061  37.098  49.991  1.00  0.00    -0.397 OA
ATOM     49  H6  UNL     1      43.086  36.656  49.151  1.00  0.00     0.209 HD
ENDBRANCH  47  48
ENDBRANCH  44  47
ENDBRANCH  43  44
ENDBRANCH  10  42
TORSDOF 18
ENDMDL
MODEL 5
REMARK VINA RESULT: -8.274754521      4.008      8.268
REMARK  18 active torsions:
REMARK  status: ('A' for Active; 'I' for Inactive)
REMARK    1  A    between atoms: C2_2  and  O1_3 
REMARK    2  A    between atoms: C2_2  and  C3_5 
REMARK    3  A    between atoms: C2_2  and  C14_19 
REMARK    4  A    between atoms: C3_5  and  N1_6 
REMARK    5  A    between atoms: N1_6  and  C6_9 
REMARK    6  A    between atoms: C7_10  and  C8_11 
REMARK    7  A    between atoms: C8_11  and  C9_12 
REMARK    8  A    between atoms: C9_12  and  C10_13 
REMARK    9  A    between atoms: C10_13  and  C11_14 
REMARK   10  A    between atoms: C11_14  and  C12_15 
REMARK   11  A    between atoms: C12_15  and  C13_16 
REMARK   12  A    between atoms: C19_24  and  O4_25 
REMARK   13  A    between atoms: C23_30  and  C24_31 
REMARK   14  A    between atoms: C25_32  and  C26_33 
REMARK   15  A    between atoms: C26_33  and  O5_34 
REMARK   16  A    between atoms: C26_33  and  C27_36 
REMARK   17  A    between atoms: C27_36  and  O6_37 
REMARK   18  A    between atoms: C28_39  and  O7_40 
ROOT
HETATM    1  C14 UNL     1      35.927  37.517  54.246  1.00  0.00     0.030 C 
HETATM    2  C15 UNL     1      35.832  38.897  55.007  1.00  0.00     0.009 C 
HETATM    3  C16 UNL     1      37.205  39.473  54.840  1.00  0.00     0.006 C 
HETATM    4  C17 UNL     1      37.880  38.566  53.842  1.00  0.00     0.001 C 
HETATM    5  C18 UNL     1      38.899  39.221  53.011  1.00  0.00     0.024 C 
HETATM    6  C19 UNL     1      40.251  38.957  53.690  1.00  0.00     0.123 C 
HETATM    7  C20 UNL     1      41.014  37.855  53.002  1.00  0.00     0.037 C 
HETATM    8  C21 UNL     1      41.386  38.341  51.623  1.00  0.00    -0.002 C 
HETATM    9  C22 UNL     1      42.055  37.225  50.847  1.00  0.00     0.025 C 
HETATM   10  C23 UNL     1      42.423  37.623  49.456  1.00  0.00     0.094 C 
HETATM   11  C28 UNL     1      41.535  38.675  48.856  1.00  0.00     0.134 C 
HETATM   12  C29 UNL     1      40.155  38.483  49.492  1.00  0.00     0.042 C 
HETATM   13  C30 UNL     1      40.291  39.030  50.909  1.00  0.00    -0.034 C 
HETATM   14  C31 UNL     1      40.578  40.530  50.742  1.00  0.00     0.016 C 
HETATM   15  C32 UNL     1      38.918  38.912  51.563  1.00  0.00     0.001 C 
HETATM   16  C33 UNL     1      38.281  37.610  51.194  1.00  0.00     0.007 C 
HETATM   17  C34 UNL     1      37.222  37.101  52.095  1.00  0.00     0.010 C 
HETATM   18  C35 UNL     1      36.625  38.069  53.056  1.00  0.00    -0.034 C 
HETATM   19  C36 UNL     1      36.071  39.294  52.428  1.00  0.00     0.016 C 
ENDROOT
BRANCH   1  20
HETATM   20  C2  UNL     1      34.568  36.948  54.158  1.00  0.00     0.083 C 
HETATM   21  C1  UNL     1      33.788  37.376  55.433  1.00  0.00     0.048 C 
BRANCH  20  22
HETATM   22  O1  UNL     1      33.905  37.634  53.132  1.00  0.00    -0.388 OA
ATOM     23  H1  UNL     1      33.376  36.958  52.725  1.00  0.00     0.210 HD
ENDBRANCH  20  22
BRANCH  20  24
HETATM   24  C3  UNL     1      34.347  35.529  53.873  1.00  0.00     0.279 C 
BRANCH  24  25
HETATM   25  N1  UNL     1      35.301  34.502  53.988  1.00  0.00    -0.052 N 
HETATM   26  C4  UNL     1      34.592  33.223  53.621  1.00  0.00     0.278 C 
HETATM   27  C5  UNL     1      36.464  34.472  53.208  1.00  0.00     0.278 C 
BRANCH  25  28
HETATM   28  C6  UNL     1      35.627  34.265  55.375  1.00  0.00     0.197 C 
HETATM   29  C7  UNL     1      36.965  34.374  55.916  1.00  0.00    -0.002 C 
BRANCH  29  30
HETATM   30  C8  UNL     1      37.702  35.644  56.019  1.00  0.00     0.028 C 
BRANCH  30  31
HETATM   31  C9  UNL     1      39.082  35.592  55.371  1.00  0.00     0.004 C 
BRANCH  31  32
HETATM   32  C10 UNL     1      39.977  36.588  56.047  1.00  0.00     0.001 C 
BRANCH  32  33
HETATM   33  C11 UNL     1      39.264  37.413  57.072  1.00  0.00     0.010 C 
BRANCH  33  34
HETATM   34  C12 UNL     1      40.073  38.596  57.505  1.00  0.00     0.113 C 
BRANCH  34  35
HETATM   35  C13 UNL     1      39.791  39.067  58.875  1.00  0.00     0.172 C 
HETATM   36  O2  UNL     1      40.384  40.085  59.295  1.00  0.00    -0.648 OA
HETATM   37  O3  UNL     1      38.904  38.456  59.740  1.00  0.00    -0.648 OA
ENDBRANCH  34  35
ENDBRANCH  33  34
ENDBRANCH  32  33
ENDBRANCH  31  32
ENDBRANCH  30  31
ENDBRANCH  29  30
ENDBRANCH  25  28
ENDBRANCH  24  25
ENDBRANCH  20  24
ENDBRANCH   1  20
BRANCH   6  38
HETATM   38  O4  UNL     1      41.028  40.091  53.778  1.00  0.00    -0.395 OA
ATOM     39  H4  UNL     1      41.433  40.190  54.632  1.00  0.00     0.210 HD
ENDBRANCH   6  38
BRANCH  11  40
HETATM   40  O7  UNL     1      41.364  38.498  47.478  1.00  0.00    -0.394 OA
ATOM     41  H7  UNL     1      41.949  39.049  46.971  1.00  0.00     0.210 HD
ENDBRANCH  11  40
BRANCH  10  42
HETATM   42  C24 UNL     1      42.409  36.387  48.640  1.00  0.00    -0.096 C 
HETATM   43  C25 UNL     1      42.406  35.387  47.955  1.00  0.00    -0.072 C 
BRANCH  43  44
HETATM   44  C26 UNL     1      42.419  34.198  47.114  1.00  0.00     0.220 C 
BRANCH  44  45
HETATM   45  O5  UNL     1      41.613  33.202  47.696  1.00  0.00    -0.381 OA
ATOM     46  H5  UNL     1      41.650  32.414  47.167  1.00  0.00     0.211 HD
ENDBRANCH  44  45
BRANCH  44  47
HETATM   47  C27 UNL     1      41.829  34.471  45.738  1.00  0.00     0.208 C 
BRANCH  47  48
HETATM   48  O6  UNL     1      40.506  34.868  45.809  1.00  0.00    -0.397 OA
ATOM     49  H6  UNL     1      40.046  34.726  44.990  1.00  0.00     0.209 HD
ENDBRANCH  47  48
ENDBRANCH  44  47
ENDBRANCH  43  44
ENDBRANCH  10  42
TORSDOF 18
ENDMDL
