MODEL 1
REMARK VINA RESULT: -9.963326211      0.000      0.000
REMARK  16 active torsions:
REMARK  status: ('A' for Active; 'I' for Inactive)
REMARK    1  A    between atoms: C2_2  and  C4_4 
REMARK    2  A    between atoms: C4_4  and  C5_5 
REMARK    3  A    between atoms: C5_5  and  C7_7 
REMARK    4  A    between atoms: C7_7  and  C8_8 
REMARK    5  A    between atoms: C8_8  and  C9_9 
REMARK    6  A    between atoms: C9_9  and  C12_12 
REMARK    7  A    between atoms: C18_18  and  O1_19 
REMARK    8  A    between atoms: C22_24  and  C23_25 
REMARK    9  A    between atoms: C26_28  and  O2_29 
REMARK   10  A    between atoms: C28_32  and  O3_33 
REMARK   11  A    between atoms: C28_32  and  C29_35 
REMARK   12  A    between atoms: C29_35  and  C30_37 
REMARK   13  A    between atoms: C30_37  and  O5_38 
REMARK   14  A    between atoms: C30_37  and  N1_40 
REMARK   15  A    between atoms: N1_40  and  C31_42 
REMARK   16  A    between atoms: C31_42  and  C33_44 
ROOT
HETATM    1  C23 UNL     1      38.918  35.896  50.784  1.00  0.00     0.013 C 
HETATM    2  C24 UNL     1      39.876  36.186  49.899  1.00  0.00     0.012 C 
HETATM    3  C25 UNL     1      41.125  36.778  50.426  1.00  0.00     0.076 C 
HETATM    4  C26 UNL     1      42.061  37.059  49.285  1.00  0.00     0.127 C 
HETATM    5  C27 UNL     1      42.482  35.735  48.684  1.00  0.00     0.101 C 
HETATM    6  C28 UNL     1      41.826  35.512  47.336  1.00  0.00     0.203 C 
HETATM    7  N2  UNL     1      40.406  35.475  47.417  1.00  0.00    -0.319 N 
ATOM      8  H2  UNL     1      39.923  35.121  46.591  1.00  0.00     0.166 HD
HETATM    9  C36 UNL     1      39.563  35.871  48.514  1.00  0.00     0.250 C 
HETATM   10  O6  UNL     1      38.329  35.952  48.194  1.00  0.00    -0.268 OA
ENDROOT
BRANCH   1  11
HETATM   11  C22 UNL     1      39.081  36.146  52.202  1.00  0.00     0.005 C 
HETATM   12  C21 UNL     1      38.393  37.018  52.940  1.00  0.00    -0.066 C 
HETATM   13  C12 UNL     1      38.711  37.134  54.406  1.00  0.00    -0.013 C 
HETATM   14  C20 UNL     1      37.337  37.738  52.240  1.00  0.00     0.022 C 
HETATM   15  C13 UNL     1      38.992  35.641  54.803  1.00  0.00     0.021 C 
HETATM   16  C14 UNL     1      37.435  37.378  55.129  1.00  0.00     0.015 C 
HETATM   17  C15 UNL     1      36.315  38.077  54.523  1.00  0.00     0.006 C 
HETATM   18  C16 UNL     1      36.194  38.213  53.066  1.00  0.00    -0.004 C 
HETATM   19  C17 UNL     1      36.030  39.719  52.758  1.00  0.00     0.037 C 
HETATM   20  C18 UNL     1      36.695  39.891  51.410  1.00  0.00     0.119 C 
HETATM   21  C19 UNL     1      37.867  38.912  51.463  1.00  0.00     0.041 C 
BRANCH  13  22
HETATM   22  C9  UNL     1      39.895  37.840  54.830  1.00  0.00    -0.036 C 
HETATM   23  C10 UNL     1      39.606  38.623  56.137  1.00  0.00     0.016 C 
HETATM   24  C11 UNL     1      40.968  36.832  55.390  1.00  0.00     0.016 C 
BRANCH  22  25
HETATM   25  C8  UNL     1      40.713  38.739  54.004  1.00  0.00     0.010 C 
BRANCH  25  26
HETATM   26  C7  UNL     1      40.247  40.206  53.947  1.00  0.00     0.005 C 
BRANCH  26  27
HETATM   27  C5  UNL     1      41.505  41.005  53.721  1.00  0.00    -0.018 C 
HETATM   28  C6  UNL     1      42.128  41.420  55.054  1.00  0.00     0.010 C 
BRANCH  27  29
HETATM   29  C4  UNL     1      42.563  40.411  52.896  1.00  0.00     0.008 C 
BRANCH  29  30
HETATM   30  C2  UNL     1      42.777  40.894  51.524  1.00  0.00    -0.023 C 
HETATM   31  C1  UNL     1      41.782  40.577  50.476  1.00  0.00     0.009 C 
HETATM   32  C3  UNL     1      42.968  42.415  51.498  1.00  0.00     0.009 C 
ENDBRANCH  29  30
ENDBRANCH  27  29
ENDBRANCH  26  27
ENDBRANCH  25  26
ENDBRANCH  22  25
ENDBRANCH  13  22
BRANCH  20  33
HETATM   33  O1  UNL     1      37.214  41.154  51.219  1.00  0.00    -0.396 OA
ATOM     34  H1  UNL     1      37.570  41.283  50.348  1.00  0.00     0.210 HD
ENDBRANCH  20  33
ENDBRANCH   1  11
BRANCH   4  35
HETATM   35  O2  UNL     1      41.391  37.821  48.324  1.00  0.00    -0.395 OA
ATOM     36  H2  UNL     1      42.016  38.390  47.891  1.00  0.00     0.210 HD
ENDBRANCH   4  35
BRANCH   6  37
HETATM   37  O3  UNL     1      42.267  36.562  46.522  1.00  0.00    -0.364 OA
ATOM     38  H3  UNL     1      41.515  37.130  46.406  1.00  0.00     0.213 HD
ENDBRANCH   6  37
BRANCH   6  39
HETATM   39  C29 UNL     1      42.328  34.226  46.794  1.00  0.00     0.229 C 
HETATM   40  O4  UNL     1      42.857  33.460  47.592  1.00  0.00    -0.288 OA
BRANCH  39  41
HETATM   41  C30 UNL     1      42.192  33.899  45.362  1.00  0.00     0.290 C 
BRANCH  41  42
HETATM   42  O5  UNL     1      42.023  32.524  45.146  1.00  0.00    -0.370 OA
ATOM     43  H5  UNL     1      41.205  32.328  44.704  1.00  0.00     0.212 HD
ENDBRANCH  41  42
BRANCH  41  44
HETATM   44  N1  UNL     1      43.304  34.312  44.588  1.00  0.00    -0.387 N 
ATOM     45  H1  UNL     1      44.255  34.058  44.856  1.00  0.00     0.156 HD
BRANCH  44  46
HETATM   46  C31 UNL     1      43.055  35.091  43.428  1.00  0.00     0.078 C 
HETATM   47  C32 UNL     1      41.717  34.759  42.784  1.00  0.00     0.032 C 
BRANCH  46  48
HETATM   48  C33 UNL     1      44.093  34.637  42.382  1.00  0.00    -0.001 C 
HETATM   49  C34 UNL     1      45.181  33.915  43.131  1.00  0.00     0.011 C 
HETATM   50  C35 UNL     1      44.602  35.805  41.579  1.00  0.00     0.011 C 
ENDBRANCH  46  48
ENDBRANCH  44  46
ENDBRANCH  41  44
ENDBRANCH  39  41
ENDBRANCH   6  39
TORSDOF 16
ENDMDL
MODEL 2
REMARK VINA RESULT: -9.921724965      1.569      2.477
REMARK  16 active torsions:
REMARK  status: ('A' for Active; 'I' for Inactive)
REMARK    1  A    between atoms: C2_2  and  C4_4 
REMARK    2  A    between atoms: C4_4  and  C5_5 
REMARK    3  A    between atoms: C5_5  and  C7_7 
REMARK    4  A    between atoms: C7_7  and  C8_8 
REMARK    5  A    between atoms: C8_8  and  C9_9 
REMARK    6  A    between atoms: C9_9  and  C12_12 
REMARK    7  A    between atoms: C18_18  and  O1_19 
REMARK    8  A    between atoms: C22_24  and  C23_25 
REMARK    9  A    between atoms: C26_28  and  O2_29 
REMARK   10  A    between atoms: C28_32  and  O3_33 
REMARK   11  A    between atoms: C28_32  and  C29_35 
REMARK   12  A    between atoms: C29_35  and  C30_37 
REMARK   13  A    between atoms: C30_37  and  O5_38 
REMARK   14  A    between atoms: C30_37  and  N1_40 
REMARK   15  A    between atoms: N1_40  and  C31_42 
REMARK   16  A    between atoms: C31_42  and  C33_44 
ROOT
HETATM    1  C23 UNL     1      39.123  36.289  50.835  1.00  0.00     0.013 C 
HETATM    2  C24 UNL     1      40.037  36.509  49.885  1.00  0.00     0.012 C 
HETATM    3  C25 UNL     1      41.287  37.185  50.294  1.00  0.00     0.076 C 
HETATM    4  C26 UNL     1      42.169  37.367  49.093  1.00  0.00     0.127 C 
HETATM    5  C27 UNL     1      42.606  35.998  48.615  1.00  0.00     0.101 C 
HETATM    6  C28 UNL     1      41.905  35.618  47.327  1.00  0.00     0.203 C 
HETATM    7  N2  UNL     1      40.491  35.553  47.471  1.00  0.00    -0.319 N 
ATOM      8  H2  UNL     1      39.986  35.102  46.708  1.00  0.00     0.166 HD
HETATM    9  C36 UNL     1      39.680  36.041  48.555  1.00  0.00     0.250 C 
HETATM   10  O6  UNL     1      38.432  36.056  48.280  1.00  0.00    -0.268 OA
ENDROOT
BRANCH   1  11
HETATM   11  C22 UNL     1      39.333  36.692  52.211  1.00  0.00     0.005 C 
HETATM   12  C21 UNL     1      38.666  36.253  53.279  1.00  0.00    -0.066 C 
HETATM   13  C12 UNL     1      39.033  36.795  54.634  1.00  0.00    -0.013 C 
HETATM   14  C20 UNL     1      37.670  35.222  53.018  1.00  0.00     0.022 C 
HETATM   15  C13 UNL     1      40.595  36.911  54.532  1.00  0.00     0.021 C 
HETATM   16  C14 UNL     1      38.900  35.688  55.616  1.00  0.00     0.015 C 
HETATM   17  C15 UNL     1      37.946  34.605  55.449  1.00  0.00     0.006 C 
HETATM   18  C16 UNL     1      37.363  34.293  54.138  1.00  0.00    -0.004 C 
HETATM   19  C17 UNL     1      35.825  34.307  54.306  1.00  0.00     0.037 C 
HETATM   20  C18 UNL     1      35.315  34.785  52.965  1.00  0.00     0.119 C 
HETATM   21  C19 UNL     1      36.371  35.798  52.522  1.00  0.00     0.041 C 
BRANCH  13  22
HETATM   22  C9  UNL     1      38.605  38.118  55.017  1.00  0.00    -0.036 C 
HETATM   23  C10 UNL     1      37.176  38.390  54.479  1.00  0.00     0.016 C 
HETATM   24  C11 UNL     1      38.290  38.170  56.560  1.00  0.00     0.016 C 
BRANCH  22  25
HETATM   25  C8  UNL     1      39.350  39.367  54.808  1.00  0.00     0.010 C 
BRANCH  25  26
HETATM   26  C7  UNL     1      38.996  40.154  53.533  1.00  0.00     0.005 C 
BRANCH  26  27
HETATM   27  C5  UNL     1      40.149  39.912  52.593  1.00  0.00    -0.018 C 
HETATM   28  C6  UNL     1      39.841  40.475  51.205  1.00  0.00     0.010 C 
BRANCH  27  29
HETATM   29  C4  UNL     1      41.477  40.393  52.990  1.00  0.00     0.008 C 
BRANCH  29  30
HETATM   30  C2  UNL     1      42.499  40.645  51.964  1.00  0.00    -0.023 C 
HETATM   31  C1  UNL     1      43.229  41.931  51.963  1.00  0.00     0.009 C 
HETATM   32  C3  UNL     1      43.562  39.540  51.962  1.00  0.00     0.009 C 
ENDBRANCH  29  30
ENDBRANCH  27  29
ENDBRANCH  26  27
ENDBRANCH  25  26
ENDBRANCH  22  25
ENDBRANCH  13  22
BRANCH  20  33
HETATM   33  O1  UNL     1      34.110  35.449  53.049  1.00  0.00    -0.396 OA
ATOM     34  H1  UNL     1      33.705  35.596  52.202  1.00  0.00     0.210 HD
ENDBRANCH  20  33
ENDBRANCH   1  11
BRANCH   4  35
HETATM   35  O2  UNL     1      41.440  38.006  48.087  1.00  0.00    -0.395 OA
ATOM     36  H2  UNL     1      41.573  37.545  47.267  1.00  0.00     0.210 HD
ENDBRANCH   4  35
BRANCH   6  37
HETATM   37  O3  UNL     1      42.282  36.587  46.391  1.00  0.00    -0.364 OA
ATOM     38  H3  UNL     1      42.172  37.423  46.827  1.00  0.00     0.213 HD
ENDBRANCH   6  37
BRANCH   6  39
HETATM   39  C29 UNL     1      42.423  34.294  46.902  1.00  0.00     0.229 C 
HETATM   40  O4  UNL     1      42.895  33.579  47.779  1.00  0.00    -0.288 OA
BRANCH  39  41
HETATM   41  C30 UNL     1      42.368  33.874  45.489  1.00  0.00     0.290 C 
BRANCH  41  42
HETATM   42  O5  UNL     1      42.104  32.505  45.354  1.00  0.00    -0.370 OA
ATOM     43  H5  UNL     1      42.265  32.194  44.470  1.00  0.00     0.212 HD
ENDBRANCH  41  42
BRANCH  41  44
HETATM   44  N1  UNL     1      43.565  34.143  44.781  1.00  0.00    -0.387 N 
ATOM     45  H1  UNL     1      44.404  34.458  45.267  1.00  0.00     0.156 HD
BRANCH  44  46
HETATM   46  C31 UNL     1      43.561  33.959  43.373  1.00  0.00     0.078 C 
HETATM   47  C32 UNL     1      44.965  33.890  42.793  1.00  0.00     0.032 C 
BRANCH  46  48
HETATM   48  C33 UNL     1      42.976  35.256  42.779  1.00  0.00    -0.001 C 
HETATM   49  C34 UNL     1      41.686  34.883  42.100  1.00  0.00     0.011 C 
HETATM   50  C35 UNL     1      43.961  35.922  41.854  1.00  0.00     0.011 C 
ENDBRANCH  46  48
ENDBRANCH  44  46
ENDBRANCH  41  44
ENDBRANCH  39  41
ENDBRANCH   6  39
TORSDOF 16
ENDMDL
MODEL 3
REMARK VINA RESULT: -9.855401504      1.072      1.279
REMARK  16 active torsions:
REMARK  status: ('A' for Active; 'I' for Inactive)
REMARK    1  A    between atoms: C2_2  and  C4_4 
REMARK    2  A    between atoms: C4_4  and  C5_5 
REMARK    3  A    between atoms: C5_5  and  C7_7 
REMARK    4  A    between atoms: C7_7  and  C8_8 
REMARK    5  A    between atoms: C8_8  and  C9_9 
REMARK    6  A    between atoms: C9_9  and  C12_12 
REMARK    7  A    between atoms: C18_18  and  O1_19 
REMARK    8  A    between atoms: C22_24  and  C23_25 
REMARK    9  A    between atoms: C26_28  and  O2_29 
REMARK   10  A    between atoms: C28_32  and  O3_33 
REMARK   11  A    between atoms: C28_32  and  C29_35 
REMARK   12  A    between atoms: C29_35  and  C30_37 
REMARK   13  A    between atoms: C30_37  and  O5_38 
REMARK   14  A    between atoms: C30_37  and  N1_40 
REMARK   15  A    between atoms: N1_40  and  C31_42 
REMARK   16  A    between atoms: C31_42  and  C33_44 
ROOT
HETATM    1  C23 UNL     1      38.900  35.904  50.807  1.00  0.00     0.013 C 
HETATM    2  C24 UNL     1      39.862  36.195  49.926  1.00  0.00     0.012 C 
HETATM    3  C25 UNL     1      41.108  36.787  50.457  1.00  0.00     0.076 C 
HETATM    4  C26 UNL     1      42.048  37.068  49.321  1.00  0.00     0.127 C 
HETATM    5  C27 UNL     1      42.473  35.744  48.721  1.00  0.00     0.101 C 
HETATM    6  C28 UNL     1      41.823  35.521  47.371  1.00  0.00     0.203 C 
HETATM    7  N2  UNL     1      40.403  35.483  47.446  1.00  0.00    -0.319 N 
ATOM      8  H2  UNL     1      39.923  35.129  46.618  1.00  0.00     0.166 HD
HETATM    9  C36 UNL     1      39.555  35.879  48.539  1.00  0.00     0.250 C 
HETATM   10  O6  UNL     1      38.322  35.959  48.214  1.00  0.00    -0.268 OA
ENDROOT
BRANCH   1  11
HETATM   11  C22 UNL     1      39.056  36.154  52.225  1.00  0.00     0.005 C 
HETATM   12  C21 UNL     1      38.370  37.032  52.959  1.00  0.00    -0.066 C 
HETATM   13  C12 UNL     1      38.680  37.146  54.426  1.00  0.00    -0.013 C 
HETATM   14  C20 UNL     1      37.323  37.758  52.252  1.00  0.00     0.022 C 
HETATM   15  C13 UNL     1      38.949  35.652  54.826  1.00  0.00     0.021 C 
HETATM   16  C14 UNL     1      37.403  37.399  55.142  1.00  0.00     0.015 C 
HETATM   17  C15 UNL     1      36.291  38.106  54.529  1.00  0.00     0.006 C 
HETATM   18  C16 UNL     1      36.179  38.241  53.071  1.00  0.00    -0.004 C 
HETATM   19  C17 UNL     1      36.027  39.748  52.761  1.00  0.00     0.037 C 
HETATM   20  C18 UNL     1      36.700  39.914  51.417  1.00  0.00     0.119 C 
HETATM   21  C19 UNL     1      37.865  38.928  51.477  1.00  0.00     0.041 C 
BRANCH  13  22
HETATM   22  C9  UNL     1      39.867  37.845  54.856  1.00  0.00    -0.036 C 
HETATM   23  C10 UNL     1      39.582  38.614  56.173  1.00  0.00     0.016 C 
HETATM   24  C11 UNL     1      40.938  36.829  55.403  1.00  0.00     0.016 C 
BRANCH  22  25
HETATM   25  C8  UNL     1      40.685  38.752  54.039  1.00  0.00     0.010 C 
BRANCH  25  26
HETATM   26  C7  UNL     1      40.220  40.219  53.995  1.00  0.00     0.005 C 
BRANCH  26  27
HETATM   27  C5  UNL     1      41.479  41.020  53.782  1.00  0.00    -0.018 C 
HETATM   28  C6  UNL     1      42.088  41.435  55.121  1.00  0.00     0.010 C 
BRANCH  27  29
HETATM   29  C4  UNL     1      42.545  40.429  52.967  1.00  0.00     0.008 C 
BRANCH  29  30
HETATM   30  C2  UNL     1      42.766  40.907  51.594  1.00  0.00    -0.023 C 
HETATM   31  C1  UNL     1      41.782  40.578  50.540  1.00  0.00     0.009 C 
HETATM   32  C3  UNL     1      42.947  42.429  51.563  1.00  0.00     0.009 C 
ENDBRANCH  29  30
ENDBRANCH  27  29
ENDBRANCH  26  27
ENDBRANCH  25  26
ENDBRANCH  22  25
ENDBRANCH  13  22
BRANCH  20  33
HETATM   33  O1  UNL     1      37.229  41.173  51.227  1.00  0.00    -0.396 OA
ATOM     34  H1  UNL     1      36.585  41.808  50.936  1.00  0.00     0.210 HD
ENDBRANCH  20  33
ENDBRANCH   1  11
BRANCH   4  35
HETATM   35  O2  UNL     1      41.382  37.830  48.357  1.00  0.00    -0.395 OA
ATOM     36  H2  UNL     1      42.009  38.396  47.924  1.00  0.00     0.210 HD
ENDBRANCH   4  35
BRANCH   6  37
HETATM   37  O3  UNL     1      42.267  36.571  46.559  1.00  0.00    -0.364 OA
ATOM     38  H3  UNL     1      42.445  36.182  45.711  1.00  0.00     0.213 HD
ENDBRANCH   6  37
BRANCH   6  39
HETATM   39  C29 UNL     1      42.328  34.234  46.832  1.00  0.00     0.229 C 
HETATM   40  O4  UNL     1      42.865  33.474  47.630  1.00  0.00    -0.288 OA
BRANCH  39  41
HETATM   41  C30 UNL     1      42.186  33.901  45.402  1.00  0.00     0.290 C 
BRANCH  41  42
HETATM   42  O5  UNL     1      40.927  34.255  44.898  1.00  0.00    -0.370 OA
ATOM     43  H5  UNL     1      40.934  35.110  44.482  1.00  0.00     0.212 HD
ENDBRANCH  41  42
BRANCH  41  44
HETATM   44  N1  UNL     1      42.375  32.524  45.129  1.00  0.00    -0.387 N 
ATOM     45  H1  UNL     1      41.698  31.829  45.441  1.00  0.00     0.156 HD
BRANCH  44  46
HETATM   46  C31 UNL     1      43.536  32.142  44.407  1.00  0.00     0.078 C 
HETATM   47  C32 UNL     1      44.423  33.331  44.065  1.00  0.00     0.032 C 
BRANCH  46  48
HETATM   48  C33 UNL     1      43.037  31.645  43.035  1.00  0.00    -0.001 C 
HETATM   49  C34 UNL     1      43.103  30.141  43.066  1.00  0.00     0.011 C 
HETATM   50  C35 UNL     1      43.840  32.249  41.913  1.00  0.00     0.011 C 
ENDBRANCH  46  48
ENDBRANCH  44  46
ENDBRANCH  41  44
ENDBRANCH  39  41
ENDBRANCH   6  39
TORSDOF 16
ENDMDL
MODEL 4
REMARK VINA RESULT: -9.770137351      1.914      2.696
REMARK  16 active torsions:
REMARK  status: ('A' for Active; 'I' for Inactive)
REMARK    1  A    between atoms: C2_2  and  C4_4 
REMARK    2  A    between atoms: C4_4  and  C5_5 
REMARK    3  A    between atoms: C5_5  and  C7_7 
REMARK    4  A    between atoms: C7_7  and  C8_8 
REMARK    5  A    between atoms: C8_8  and  C9_9 
REMARK    6  A    between atoms: C9_9  and  C12_12 
REMARK    7  A    between atoms: C18_18  and  O1_19 
REMARK    8  A    between atoms: C22_24  and  C23_25 
REMARK    9  A    between atoms: C26_28  and  O2_29 
REMARK   10  A    between atoms: C28_32  and  O3_33 
REMARK   11  A    between atoms: C28_32  and  C29_35 
REMARK   12  A    between atoms: C29_35  and  C30_37 
REMARK   13  A    between atoms: C30_37  and  O5_38 
REMARK   14  A    between atoms: C30_37  and  N1_40 
REMARK   15  A    between atoms: N1_40  and  C31_42 
REMARK   16  A    between atoms: C31_42  and  C33_44 
ROOT
HETATM    1  C23 UNL     1      39.032  36.306  50.869  1.00  0.00     0.013 C 
HETATM    2  C24 UNL     1      39.949  36.537  49.925  1.00  0.00     0.012 C 
HETATM    3  C25 UNL     1      41.183  37.239  50.341  1.00  0.00     0.076 C 
HETATM    4  C26 UNL     1      42.071  37.430  49.145  1.00  0.00     0.127 C 
HETATM    5  C27 UNL     1      42.538  36.068  48.681  1.00  0.00     0.101 C 
HETATM    6  C28 UNL     1      41.856  35.666  47.388  1.00  0.00     0.203 C 
HETATM    7  N2  UNL     1      40.442  35.575  47.521  1.00  0.00    -0.319 N 
ATOM      8  H2  UNL     1      39.953  35.110  46.756  1.00  0.00     0.166 HD
HETATM    9  C36 UNL     1      39.612  36.054  48.595  1.00  0.00     0.250 C 
HETATM   10  O6  UNL     1      38.367  36.044  48.309  1.00  0.00    -0.268 OA
ENDROOT
BRANCH   1  11
HETATM   11  C22 UNL     1      39.222  36.720  52.244  1.00  0.00     0.005 C 
HETATM   12  C21 UNL     1      38.576  36.252  53.313  1.00  0.00    -0.066 C 
HETATM   13  C12 UNL     1      38.917  36.814  54.666  1.00  0.00    -0.013 C 
HETATM   14  C20 UNL     1      37.631  35.174  53.053  1.00  0.00     0.022 C 
HETATM   15  C13 UNL     1      40.471  37.005  54.564  1.00  0.00     0.021 C 
HETATM   16  C14 UNL     1      38.837  35.704  55.651  1.00  0.00     0.015 C 
HETATM   17  C15 UNL     1      37.936  34.576  55.486  1.00  0.00     0.006 C 
HETATM   18  C16 UNL     1      37.369  34.234  54.176  1.00  0.00    -0.004 C 
HETATM   19  C17 UNL     1      35.832  34.174  54.344  1.00  0.00     0.037 C 
HETATM   20  C18 UNL     1      35.300  34.624  53.001  1.00  0.00     0.119 C 
HETATM   21  C19 UNL     1      36.306  35.686  52.557  1.00  0.00     0.041 C 
BRANCH  13  22
HETATM   22  C9  UNL     1      38.426  38.115  55.047  1.00  0.00    -0.036 C 
HETATM   23  C10 UNL     1      37.055  37.978  55.760  1.00  0.00     0.016 C 
HETATM   24  C11 UNL     1      39.262  38.690  56.252  1.00  0.00     0.016 C 
BRANCH  22  25
HETATM   25  C8  UNL     1      38.298  39.287  54.169  1.00  0.00     0.010 C 
BRANCH  25  26
HETATM   26  C7  UNL     1      39.402  40.352  54.306  1.00  0.00     0.005 C 
BRANCH  26  27
HETATM   27  C5  UNL     1      40.314  40.121  53.129  1.00  0.00    -0.018 C 
HETATM   28  C6  UNL     1      39.616  40.501  51.823  1.00  0.00     0.010 C 
BRANCH  27  29
HETATM   29  C4  UNL     1      41.632  40.765  53.138  1.00  0.00     0.008 C 
BRANCH  29  30
HETATM   30  C2  UNL     1      42.441  40.792  51.911  1.00  0.00    -0.023 C 
HETATM   31  C1  UNL     1      43.098  42.052  51.498  1.00  0.00     0.009 C 
HETATM   32  C3  UNL     1      43.538  39.722  51.951  1.00  0.00     0.009 C 
ENDBRANCH  29  30
ENDBRANCH  27  29
ENDBRANCH  26  27
ENDBRANCH  25  26
ENDBRANCH  22  25
ENDBRANCH  13  22
BRANCH  20  33
HETATM   33  O1  UNL     1      34.064  35.229  53.084  1.00  0.00    -0.396 OA
ATOM     34  H1  UNL     1      34.037  36.081  52.664  1.00  0.00     0.210 HD
ENDBRANCH  20  33
ENDBRANCH   1  11
BRANCH   4  35
HETATM   35  O2  UNL     1      41.339  38.050  48.129  1.00  0.00    -0.395 OA
ATOM     36  H2  UNL     1      41.751  37.863  47.294  1.00  0.00     0.210 HD
ENDBRANCH   4  35
BRANCH   6  37
HETATM   37  O3  UNL     1      42.223  36.636  46.449  1.00  0.00    -0.364 OA
ATOM     38  H3  UNL     1      41.726  36.436  45.665  1.00  0.00     0.213 HD
ENDBRANCH   6  37
BRANCH   6  39
HETATM   39  C29 UNL     1      42.403  34.350  46.977  1.00  0.00     0.229 C 
HETATM   40  O4  UNL     1      42.975  33.695  47.841  1.00  0.00    -0.288 OA
BRANCH  39  41
HETATM   41  C30 UNL     1      42.260  33.868  45.590  1.00  0.00     0.290 C 
BRANCH  41  42
HETATM   42  O5  UNL     1      40.993  34.147  45.060  1.00  0.00    -0.370 OA
ATOM     43  H5  UNL     1      40.323  34.185  45.733  1.00  0.00     0.212 HD
ENDBRANCH  41  42
BRANCH  41  44
HETATM   44  N1  UNL     1      42.472  32.473  45.460  1.00  0.00    -0.387 N 
ATOM     45  H1  UNL     1      41.856  31.803  45.919  1.00  0.00     0.156 HD
BRANCH  44  46
HETATM   46  C31 UNL     1      43.569  32.037  44.671  1.00  0.00     0.078 C 
HETATM   47  C32 UNL     1      44.385  33.198  44.122  1.00  0.00     0.032 C 
BRANCH  46  48
HETATM   48  C33 UNL     1      42.954  31.388  43.415  1.00  0.00    -0.001 C 
HETATM   49  C34 UNL     1      43.140  29.900  43.557  1.00  0.00     0.011 C 
HETATM   50  C35 UNL     1      43.572  31.944  42.159  1.00  0.00     0.011 C 
ENDBRANCH  46  48
ENDBRANCH  44  46
ENDBRANCH  41  44
ENDBRANCH  39  41
ENDBRANCH   6  39
TORSDOF 16
ENDMDL
MODEL 5
REMARK VINA RESULT: -9.760439290      1.788      3.269
REMARK  16 active torsions:
REMARK  status: ('A' for Active; 'I' for Inactive)
REMARK    1  A    between atoms: C2_2  and  C4_4 
REMARK    2  A    between atoms: C4_4  and  C5_5 
REMARK    3  A    between atoms: C5_5  and  C7_7 
REMARK    4  A    between atoms: C7_7  and  C8_8 
REMARK    5  A    between atoms: C8_8  and  C9_9 
REMARK    6  A    between atoms: C9_9  and  C12_12 
REMARK    7  A    between atoms: C18_18  and  O1_19 
REMARK    8  A    between atoms: C22_24  and  C23_25 
REMARK    9  A    between atoms: C26_28  and  O2_29 
REMARK   10  A    between atoms: C28_32  and  O3_33 
REMARK   11  A    between atoms: C28_32  and  C29_35 
REMARK   12  A    between atoms: C29_35  and  C30_37 
REMARK   13  A    between atoms: C30_37  and  O5_38 
REMARK   14  A    between atoms: C30_37  and  N1_40 
REMARK   15  A    between atoms: N1_40  and  C31_42 
REMARK   16  A    between atoms: C31_42  and  C33_44 
ROOT
HETATM    1  C23 UNL     1      39.069  36.380  50.814  1.00  0.00     0.013 C 
HETATM    2  C24 UNL     1      39.994  36.578  49.870  1.00  0.00     0.012 C 
HETATM    3  C25 UNL     1      41.240  37.263  50.279  1.00  0.00     0.076 C 
HETATM    4  C26 UNL     1      42.136  37.417  49.084  1.00  0.00     0.127 C 
HETATM    5  C27 UNL     1      42.579  36.037  48.644  1.00  0.00     0.101 C 
HETATM    6  C28 UNL     1      41.893  35.627  47.357  1.00  0.00     0.203 C 
HETATM    7  N2  UNL     1      40.478  35.565  47.485  1.00  0.00    -0.319 N 
ATOM      8  H2  UNL     1      39.983  35.097  46.726  1.00  0.00     0.166 HD
HETATM    9  C36 UNL     1      39.653  36.079  48.547  1.00  0.00     0.250 C 
HETATM   10  O6  UNL     1      38.409  36.087  48.257  1.00  0.00    -0.268 OA
ENDROOT
BRANCH   1  11
HETATM   11  C22 UNL     1      39.262  36.815  52.182  1.00  0.00     0.005 C 
HETATM   12  C21 UNL     1      38.635  36.346  53.262  1.00  0.00    -0.066 C 
HETATM   13  C12 UNL     1      38.975  36.930  54.606  1.00  0.00    -0.013 C 
HETATM   14  C20 UNL     1      37.710  35.247  53.023  1.00  0.00     0.022 C 
HETATM   15  C13 UNL     1      40.525  37.152  54.489  1.00  0.00     0.021 C 
HETATM   16  C14 UNL     1      38.926  35.830  55.604  1.00  0.00     0.015 C 
HETATM   17  C15 UNL     1      38.047  34.683  55.460  1.00  0.00     0.006 C 
HETATM   18  C16 UNL     1      37.476  34.314  54.158  1.00  0.00    -0.004 C 
HETATM   19  C17 UNL     1      35.943  34.225  54.340  1.00  0.00     0.037 C 
HETATM   20  C18 UNL     1      35.390  34.649  52.997  1.00  0.00     0.119 C 
HETATM   21  C19 UNL     1      36.370  35.725  52.532  1.00  0.00     0.041 C 
BRANCH  13  22
HETATM   22  C9  UNL     1      38.460  38.226  54.976  1.00  0.00    -0.036 C 
HETATM   23  C10 UNL     1      36.910  38.200  54.983  1.00  0.00     0.016 C 
HETATM   24  C11 UNL     1      38.699  38.497  56.509  1.00  0.00     0.016 C 
BRANCH  22  25
HETATM   25  C8  UNL     1      38.830  39.513  54.370  1.00  0.00     0.010 C 
BRANCH  25  26
HETATM   26  C7  UNL     1      37.657  40.430  53.976  1.00  0.00     0.005 C 
BRANCH  26  27
HETATM   27  C5  UNL     1      37.809  40.639  52.491  1.00  0.00    -0.018 C 
HETATM   28  C6  UNL     1      39.252  40.388  52.054  1.00  0.00     0.010 C 
BRANCH  27  29
HETATM   29  C4  UNL     1      36.929  39.882  51.594  1.00  0.00     0.008 C 
BRANCH  29  30
HETATM   30  C2  UNL     1      35.596  40.407  51.262  1.00  0.00    -0.023 C 
HETATM   31  C1  UNL     1      34.422  39.965  52.046  1.00  0.00     0.009 C 
HETATM   32  C3  UNL     1      35.586  41.940  51.289  1.00  0.00     0.009 C 
ENDBRANCH  29  30
ENDBRANCH  27  29
ENDBRANCH  26  27
ENDBRANCH  25  26
ENDBRANCH  22  25
ENDBRANCH  13  22
BRANCH  20  33
HETATM   33  O1  UNL     1      34.143  35.230  53.083  1.00  0.00    -0.396 OA
ATOM     34  H1  UNL     1      34.109  36.099  52.703  1.00  0.00     0.210 HD
ENDBRANCH  20  33
ENDBRANCH   1  11
BRANCH   4  35
HETATM   35  O2  UNL     1      41.420  38.033  48.054  1.00  0.00    -0.395 OA
ATOM     36  H2  UNL     1      41.902  38.794  47.754  1.00  0.00     0.210 HD
ENDBRANCH   4  35
BRANCH   6  37
HETATM   37  O3  UNL     1      42.282  36.574  46.403  1.00  0.00    -0.364 OA
ATOM     38  H3  UNL     1      41.791  36.364  45.617  1.00  0.00     0.213 HD
ENDBRANCH   6  37
BRANCH   6  39
HETATM   39  C29 UNL     1      42.417  34.294  46.970  1.00  0.00     0.229 C 
HETATM   40  O4  UNL     1      42.902  33.611  47.864  1.00  0.00    -0.288 OA
BRANCH  39  41
HETATM   41  C30 UNL     1      42.351  33.828  45.571  1.00  0.00     0.290 C 
BRANCH  41  42
HETATM   42  O5  UNL     1      42.176  32.440  45.483  1.00  0.00    -0.370 OA
ATOM     43  H5  UNL     1      42.756  32.046  44.842  1.00  0.00     0.212 HD
ENDBRANCH  41  42
BRANCH  41  44
HETATM   44  N1  UNL     1      43.506  34.155  44.820  1.00  0.00    -0.387 N 
ATOM     45  H1  UNL     1      44.333  34.545  45.271  1.00  0.00     0.156 HD
BRANCH  44  46
HETATM   46  C31 UNL     1      43.478  33.920  43.420  1.00  0.00     0.078 C 
HETATM   47  C32 UNL     1      44.870  33.735  42.835  1.00  0.00     0.032 C 
BRANCH  46  48
HETATM   48  C33 UNL     1      42.978  35.231  42.782  1.00  0.00    -0.001 C 
HETATM   49  C34 UNL     1      41.674  34.916  42.100  1.00  0.00     0.011 C 
HETATM   50  C35 UNL     1      44.009  35.809  41.848  1.00  0.00     0.011 C 
ENDBRANCH  46  48
ENDBRANCH  44  46
ENDBRANCH  41  44
ENDBRANCH  39  41
ENDBRANCH   6  39
TORSDOF 16
ENDMDL
