MODEL 1
REMARK VINA RESULT: -9.747020387      0.000      0.000
REMARK  13 active torsions:
REMARK  status: ('A' for Active; 'I' for Inactive)
REMARK    1  A    between atoms: C2_2  and  C4_4 
REMARK       I    between atoms: C4_4  and  N1_6 
REMARK    2  A    between atoms: N1_6  and  C5_8 
REMARK    3  A    between atoms: C5_8  and  C6_9 
REMARK    4  A    between atoms: C6_9  and  N2_10 
REMARK    5  A    between atoms: N2_10  and  C7_12 
REMARK    6  A    between atoms: C16_21  and  C17_22 
REMARK    7  A    between atoms: C17_22  and  C19_24 
REMARK    8  A    between atoms: C22_27  and  C23_28 
REMARK       I    between atoms: C23_28  and  N3_30 
REMARK    9  A    between atoms: N3_30  and  C24_32 
REMARK   10  A    between atoms: C24_32  and  C26_35 
REMARK   11  A    between atoms: C26_35  and  C27_36 
REMARK   12  A    between atoms: C27_36  and  C28_37 
REMARK   13  A    between atoms: C28_37  and  N5_38 
REMARK       I    between atoms: N5_38  and  C29_40 
ROOT
HETATM    1  C24 UNL     1      42.052  42.367  54.675  1.00  0.00     0.192 C 
HETATM    2  C25 UNL     1      42.065  43.745  55.275  1.00  0.00     0.084 C 
HETATM    3  N4  UNL     1      42.074  44.809  55.731  1.00  0.00    -0.195 NA
ENDROOT
BRANCH   1   4
HETATM    4  N3  UNL     1      41.201  41.523  55.493  1.00  0.00    -0.342 N 
HETATM    5  C23 UNL     1      41.751  40.561  56.397  1.00  0.00     0.247 C 
HETATM    6  O2  UNL     1      43.001  40.493  56.468  1.00  0.00    -0.271 OA
ATOM      7  H3  UNL     1      40.188  41.618  55.422  1.00  0.00     0.163 HD
BRANCH   5   8
HETATM    8  C22 UNL     1      40.912  39.671  57.227  1.00  0.00     0.214 C 
HETATM    9  C21 UNL     1      41.065  38.222  56.925  1.00  0.00     0.044 C 
HETATM   10  C20 UNL     1      39.717  37.870  56.311  1.00  0.00     0.035 C 
HETATM   11  C19 UNL     1      38.825  38.856  57.057  1.00  0.00     0.126 C 
HETATM   12  O3  UNL     1      39.560  40.005  57.185  1.00  0.00    -0.371 OA
BRANCH  11  13
HETATM   13  C17 UNL     1      37.507  39.052  56.324  1.00  0.00     0.015 C 
HETATM   14  C18 UNL     1      36.419  38.920  57.300  1.00  0.00     0.013 C 
BRANCH  13  15
HETATM   15  C16 UNL     1      37.484  38.331  55.050  1.00  0.00     0.000 C 
HETATM   16  C14 UNL     1      37.226  38.995  53.781  1.00  0.00    -0.036 C 
HETATM   17  C13 UNL     1      38.277  39.969  53.322  1.00  0.00     0.010 C 
HETATM   18  C15 UNL     1      35.879  39.574  53.514  1.00  0.00     0.016 C 
HETATM   19  C32 UNL     1      37.275  37.807  52.798  1.00  0.00    -0.002 C 
HETATM   20  C12 UNL     1      39.676  39.360  53.293  1.00  0.00     0.006 C 
HETATM   21  C11 UNL     1      39.636  38.388  52.164  1.00  0.00    -0.010 C 
HETATM   22  C10 UNL     1      40.888  37.675  51.828  1.00  0.00     0.007 C 
HETATM   23  C33 UNL     1      38.625  37.313  52.500  1.00  0.00    -0.006 C 
HETATM   24  C9  UNL     1      41.189  37.639  50.374  1.00  0.00     0.030 C 
HETATM   25  C7  UNL     1      40.071  37.329  49.436  1.00  0.00     0.022 C 
HETATM   26  C8  UNL     1      39.965  38.600  48.556  1.00  0.00     0.038 C 
HETATM   27  C35 UNL     1      38.735  37.123  49.987  1.00  0.00     0.030 C 
HETATM   28  C34 UNL     1      38.598  36.403  51.289  1.00  0.00     0.008 C 
HETATM   29  C31 UNL     1      36.416  36.826  53.522  1.00  0.00     0.006 C 
HETATM   30  C30 UNL     1      36.566  37.118  55.014  1.00  0.00     0.006 C 
BRANCH  25  31
HETATM   31  N2  UNL     1      40.536  36.339  48.484  1.00  0.00    -0.411 N 
ATOM     32  H2  UNL     1      39.908  35.637  48.094  1.00  0.00     0.154 HD
BRANCH  31  33
HETATM   33  C6  UNL     1      41.902  36.394  48.122  1.00  0.00     0.134 C 
BRANCH  33  34
HETATM   34  C5  UNL     1      42.424  34.993  47.832  1.00  0.00     0.141 C 
BRANCH  34  35
HETATM   35  N1  UNL     1      42.539  34.688  46.443  1.00  0.00    -0.359 N 
HETATM   36  C4  UNL     1      41.446  34.629  45.538  1.00  0.00     0.221 C 
HETATM   37  O1  UNL     1      40.258  34.828  45.827  1.00  0.00    -0.273 OA
ATOM     38  H1  UNL     1      43.471  34.499  46.074  1.00  0.00     0.162 HD
BRANCH  36  39
HETATM   39  C2  UNL     1      41.749  34.300  44.111  1.00  0.00     0.070 C 
HETATM   40  C1  UNL     1      42.879  35.174  43.596  1.00  0.00     0.019 C 
HETATM   41  C3  UNL     1      40.577  34.447  43.203  1.00  0.00     0.019 C 
ENDBRANCH  36  39
ENDBRANCH  34  35
ENDBRANCH  33  34
ENDBRANCH  31  33
ENDBRANCH  25  31
ENDBRANCH  13  15
ENDBRANCH  11  13
ENDBRANCH   5   8
ENDBRANCH   1   4
BRANCH   1  42
HETATM   42  C26 UNL     1      41.596  42.485  53.260  1.00  0.00     0.042 C 
BRANCH  42  43
HETATM   43  C27 UNL     1      42.783  42.764  52.369  1.00  0.00     0.023 C 
BRANCH  43  44
HETATM   44  C28 UNL     1      42.448  42.405  50.932  1.00  0.00     0.122 C 
BRANCH  44  45
HETATM   45  N5  UNL     1      41.279  43.149  50.533  1.00  0.00    -0.365 N 
HETATM   46  C29 UNL     1      41.327  44.090  49.446  1.00  0.00     0.181 C 
HETATM   47  N6  UNL     1      41.345  43.586  48.240  1.00  0.00    -0.374 N 
HETATM   48  N7  UNL     1      41.351  45.470  49.671  1.00  0.00    -0.064 NA
ATOM     49  H62 UNL     1      41.328  42.580  48.075  1.00  0.00     0.158 HD
ATOM     50  H61 UNL     1      41.379  44.253  47.468  1.00  0.00     0.158 HD
ATOM     51  H5  UNL     1      40.401  43.005  51.032  1.00  0.00     0.162 HD
ENDBRANCH  44  45
ENDBRANCH  43  44
ENDBRANCH  42  43
ENDBRANCH   1  42
TORSDOF 13
ENDMDL
MODEL 2
REMARK VINA RESULT: -9.621073204      2.989     10.137
REMARK  13 active torsions:
REMARK  status: ('A' for Active; 'I' for Inactive)
REMARK    1  A    between atoms: C2_2  and  C4_4 
REMARK       I    between atoms: C4_4  and  N1_6 
REMARK    2  A    between atoms: N1_6  and  C5_8 
REMARK    3  A    between atoms: C5_8  and  C6_9 
REMARK    4  A    between atoms: C6_9  and  N2_10 
REMARK    5  A    between atoms: N2_10  and  C7_12 
REMARK    6  A    between atoms: C16_21  and  C17_22 
REMARK    7  A    between atoms: C17_22  and  C19_24 
REMARK    8  A    between atoms: C22_27  and  C23_28 
REMARK       I    between atoms: C23_28  and  N3_30 
REMARK    9  A    between atoms: N3_30  and  C24_32 
REMARK   10  A    between atoms: C24_32  and  C26_35 
REMARK   11  A    between atoms: C26_35  and  C27_36 
REMARK   12  A    between atoms: C27_36  and  C28_37 
REMARK   13  A    between atoms: C28_37  and  N5_38 
REMARK       I    between atoms: N5_38  and  C29_40 
ROOT
HETATM    1  C24 UNL     1      42.403  32.633  45.206  1.00  0.00     0.192 C 
HETATM    2  C25 UNL     1      42.423  31.394  46.057  1.00  0.00     0.084 C 
HETATM    3  N4  UNL     1      42.443  30.436  46.707  1.00  0.00    -0.195 NA
ENDROOT
BRANCH   1   4
HETATM    4  N3  UNL     1      42.672  33.775  46.061  1.00  0.00    -0.342 N 
HETATM    5  C23 UNL     1      41.696  34.799  46.268  1.00  0.00     0.247 C 
HETATM    6  O2  UNL     1      40.590  34.657  45.696  1.00  0.00    -0.271 OA
ATOM      7  H3  UNL     1      43.578  33.848  46.524  1.00  0.00     0.163 HD
BRANCH   5   8
HETATM    8  C22 UNL     1      41.948  35.986  47.113  1.00  0.00     0.214 C 
HETATM    9  C21 UNL     1      43.115  35.856  48.025  1.00  0.00     0.044 C 
HETATM   10  C20 UNL     1      42.456  35.806  49.397  1.00  0.00     0.035 C 
HETATM   11  C19 UNL     1      41.229  36.670  49.128  1.00  0.00     0.126 C 
HETATM   12  O3  UNL     1      40.831  36.371  47.852  1.00  0.00    -0.371 OA
BRANCH  11  13
HETATM   13  C17 UNL     1      40.155  36.423  50.177  1.00  0.00     0.015 C 
HETATM   14  C18 UNL     1      39.158  35.512  49.602  1.00  0.00     0.013 C 
BRANCH  13  15
HETATM   15  C16 UNL     1      39.761  37.662  50.850  1.00  0.00     0.000 C 
HETATM   16  C14 UNL     1      39.976  37.879  52.273  1.00  0.00    -0.036 C 
HETATM   17  C13 UNL     1      41.410  37.980  52.716  1.00  0.00     0.010 C 
HETATM   18  C15 UNL     1      39.220  37.062  53.265  1.00  0.00     0.016 C 
HETATM   19  C32 UNL     1      39.361  39.281  52.465  1.00  0.00    -0.002 C 
HETATM   20  C12 UNL     1      42.201  39.020  51.926  1.00  0.00     0.006 C 
HETATM   21  C11 UNL     1      41.643  40.329  52.370  1.00  0.00    -0.010 C 
HETATM   22  C10 UNL     1      42.264  41.558  51.829  1.00  0.00     0.007 C 
HETATM   23  C33 UNL     1      40.187  40.386  51.963  1.00  0.00    -0.006 C 
HETATM   24  C9  UNL     1      42.536  42.598  52.853  1.00  0.00     0.030 C 
HETATM   25  C7  UNL     1      41.475  42.876  53.865  1.00  0.00     0.022 C 
HETATM   26  C8  UNL     1      42.151  42.524  55.215  1.00  0.00     0.038 C 
HETATM   27  C35 UNL     1      40.248  42.085  53.825  1.00  0.00     0.030 C 
HETATM   28  C34 UNL     1      39.678  41.710  52.497  1.00  0.00     0.008 C 
HETATM   29  C31 UNL     1      38.070  39.109  51.738  1.00  0.00     0.006 C 
HETATM   30  C30 UNL     1      38.314  38.077  50.637  1.00  0.00     0.006 C 
BRANCH  25  31
HETATM   31  N2  UNL     1      41.314  44.313  53.973  1.00  0.00    -0.411 N 
ATOM     32  H2  UNL     1      42.051  44.956  53.686  1.00  0.00     0.154 HD
BRANCH  31  33
HETATM   33  C6  UNL     1      40.085  44.781  54.493  1.00  0.00     0.134 C 
BRANCH  33  34
HETATM   34  C5  UNL     1      39.381  45.659  53.468  1.00  0.00     0.141 C 
BRANCH  34  35
HETATM   35  N1  UNL     1      40.039  45.723  52.204  1.00  0.00    -0.359 N 
HETATM   36  C4  UNL     1      39.525  45.174  50.999  1.00  0.00     0.221 C 
HETATM   37  O1  UNL     1      38.451  44.570  50.882  1.00  0.00    -0.273 OA
ATOM     38  H1  UNL     1      40.942  46.195  52.163  1.00  0.00     0.162 HD
BRANCH  36  39
HETATM   39  C2  UNL     1      40.348  45.338  49.761  1.00  0.00     0.070 C 
HETATM   40  C1  UNL     1      40.896  43.996  49.309  1.00  0.00     0.019 C 
HETATM   41  C3  UNL     1      41.483  46.291  49.920  1.00  0.00     0.019 C 
ENDBRANCH  36  39
ENDBRANCH  34  35
ENDBRANCH  33  34
ENDBRANCH  31  33
ENDBRANCH  25  31
ENDBRANCH  13  15
ENDBRANCH  11  13
ENDBRANCH   5   8
ENDBRANCH   1   4
BRANCH   1  42
HETATM   42  C26 UNL     1      43.399  32.457  44.111  1.00  0.00     0.042 C 
BRANCH  42  43
HETATM   43  C27 UNL     1      44.563  33.393  44.332  1.00  0.00     0.023 C 
BRANCH  43  44
HETATM   44  C28 UNL     1      44.830  34.195  43.070  1.00  0.00     0.122 C 
BRANCH  44  45
HETATM   45  N5  UNL     1      46.114  33.808  42.542  1.00  0.00    -0.365 N 
HETATM   46  C29 UNL     1      46.436  33.990  41.151  1.00  0.00     0.181 C 
HETATM   47  N6  UNL     1      46.714  35.210  40.773  1.00  0.00    -0.374 N 
HETATM   48  N7  UNL     1      46.450  32.916  40.256  1.00  0.00    -0.064 NA
ATOM     49  H62 UNL     1      46.703  35.993  41.425  1.00  0.00     0.158 HD
ATOM     50  H61 UNL     1      46.942  35.339  39.786  1.00  0.00     0.158 HD
ATOM     51  H5  UNL     1      46.808  33.396  43.167  1.00  0.00     0.162 HD
ENDBRANCH  44  45
ENDBRANCH  43  44
ENDBRANCH  42  43
ENDBRANCH   1  42
TORSDOF 13
ENDMDL
MODEL 3
REMARK VINA RESULT: -9.584656051      4.867     14.687
REMARK  13 active torsions:
REMARK  status: ('A' for Active; 'I' for Inactive)
REMARK    1  A    between atoms: C2_2  and  C4_4 
REMARK       I    between atoms: C4_4  and  N1_6 
REMARK    2  A    between atoms: N1_6  and  C5_8 
REMARK    3  A    between atoms: C5_8  and  C6_9 
REMARK    4  A    between atoms: C6_9  and  N2_10 
REMARK    5  A    between atoms: N2_10  and  C7_12 
REMARK    6  A    between atoms: C16_21  and  C17_22 
REMARK    7  A    between atoms: C17_22  and  C19_24 
REMARK    8  A    between atoms: C22_27  and  C23_28 
REMARK       I    between atoms: C23_28  and  N3_30 
REMARK    9  A    between atoms: N3_30  and  C24_32 
REMARK   10  A    between atoms: C24_32  and  C26_35 
REMARK   11  A    between atoms: C26_35  and  C27_36 
REMARK   12  A    between atoms: C27_36  and  C28_37 
REMARK   13  A    between atoms: C28_37  and  N5_38 
REMARK       I    between atoms: N5_38  and  C29_40 
ROOT
HETATM    1  C24 UNL     1      40.991  28.827  42.309  1.00  0.00     0.192 C 
HETATM    2  C25 UNL     1      39.670  29.544  42.294  1.00  0.00     0.084 C 
HETATM    3  N4  UNL     1      38.652  30.096  42.290  1.00  0.00    -0.195 NA
ENDROOT
BRANCH   1   4
HETATM    4  N3  UNL     1      41.907  29.544  41.442  1.00  0.00    -0.342 N 
HETATM    5  C23 UNL     1      42.426  28.950  40.249  1.00  0.00     0.247 C 
HETATM    6  O2  UNL     1      42.038  27.790  39.974  1.00  0.00    -0.271 OA
ATOM      7  H3  UNL     1      42.187  30.493  41.689  1.00  0.00     0.163 HD
BRANCH   5   8
HETATM    8  C22 UNL     1      43.378  29.645  39.357  1.00  0.00     0.214 C 
HETATM    9  C21 UNL     1      44.683  29.977  39.988  1.00  0.00     0.044 C 
HETATM   10  C20 UNL     1      44.632  31.497  40.069  1.00  0.00     0.035 C 
HETATM   11  C19 UNL     1      43.779  31.794  38.841  1.00  0.00     0.126 C 
HETATM   12  O3  UNL     1      42.843  30.796  38.783  1.00  0.00    -0.371 OA
BRANCH  11  13
HETATM   13  C17 UNL     1      43.179  33.189  38.926  1.00  0.00     0.015 C 
HETATM   14  C18 UNL     1      43.444  33.877  37.656  1.00  0.00     0.013 C 
BRANCH  13  15
HETATM   15  C16 UNL     1      43.466  33.824  40.214  1.00  0.00     0.000 C 
HETATM   16  C14 UNL     1      42.497  34.661  40.906  1.00  0.00    -0.036 C 
HETATM   17  C13 UNL     1      41.265  33.962  41.414  1.00  0.00     0.010 C 
HETATM   18  C15 UNL     1      42.100  35.970  40.313  1.00  0.00     0.016 C 
HETATM   19  C32 UNL     1      43.298  35.092  42.151  1.00  0.00    -0.002 C 
HETATM   20  C12 UNL     1      41.590  32.750  42.283  1.00  0.00     0.006 C 
HETATM   21  C11 UNL     1      42.159  33.329  43.533  1.00  0.00    -0.010 C 
HETATM   22  C10 UNL     1      42.511  32.394  44.624  1.00  0.00     0.007 C 
HETATM   23  C33 UNL     1      43.440  34.054  43.179  1.00  0.00    -0.006 C 
HETATM   24  C9  UNL     1      42.046  32.831  45.965  1.00  0.00     0.030 C 
HETATM   25  C7  UNL     1      42.237  34.262  46.339  1.00  0.00     0.022 C 
HETATM   26  C8  UNL     1      40.793  34.780  46.566  1.00  0.00     0.038 C 
HETATM   27  C35 UNL     1      42.825  35.168  45.356  1.00  0.00     0.030 C 
HETATM   28  C34 UNL     1      43.923  34.661  44.480  1.00  0.00     0.008 C 
HETATM   29  C31 UNL     1      44.585  35.497  41.515  1.00  0.00     0.006 C 
HETATM   30  C30 UNL     1      44.745  34.645  40.256  1.00  0.00     0.006 C 
BRANCH  25  31
HETATM   31  N2  UNL     1      42.791  34.314  47.678  1.00  0.00    -0.411 N 
ATOM     32  H2  UNL     1      43.653  33.826  47.918  1.00  0.00     0.154 HD
BRANCH  31  33
HETATM   33  C6  UNL     1      42.079  35.073  48.635  1.00  0.00     0.134 C 
BRANCH  33  34
HETATM   34  C5  UNL     1      42.903  36.280  49.065  1.00  0.00     0.141 C 
BRANCH  34  35
HETATM   35  N1  UNL     1      42.127  37.375  49.548  1.00  0.00    -0.359 N 
HETATM   36  C4  UNL     1      42.391  38.081  50.751  1.00  0.00     0.221 C 
HETATM   37  O1  UNL     1      43.318  37.846  51.538  1.00  0.00    -0.273 OA
ATOM     38  H1  UNL     1      41.325  37.670  48.990  1.00  0.00     0.162 HD
BRANCH  36  39
HETATM   39  C2  UNL     1      41.475  39.210  51.104  1.00  0.00     0.070 C 
HETATM   40  C1  UNL     1      41.939  40.494  50.440  1.00  0.00     0.019 C 
HETATM   41  C3  UNL     1      41.355  39.445  52.571  1.00  0.00     0.019 C 
ENDBRANCH  36  39
ENDBRANCH  34  35
ENDBRANCH  33  34
ENDBRANCH  31  33
ENDBRANCH  25  31
ENDBRANCH  13  15
ENDBRANCH  11  13
ENDBRANCH   5   8
ENDBRANCH   1   4
BRANCH   1  42
HETATM   42  C26 UNL     1      41.451  28.739  43.725  1.00  0.00     0.042 C 
BRANCH  42  43
HETATM   43  C27 UNL     1      42.959  28.811  43.770  1.00  0.00     0.023 C 
BRANCH  43  44
HETATM   44  C28 UNL     1      43.436  28.786  45.212  1.00  0.00     0.122 C 
BRANCH  44  45
HETATM   45  N5  UNL     1      43.498  27.415  45.653  1.00  0.00    -0.365 N 
HETATM   46  C29 UNL     1      43.786  27.083  47.023  1.00  0.00     0.181 C 
HETATM   47  N6  UNL     1      42.813  27.252  47.880  1.00  0.00    -0.374 N 
HETATM   48  N7  UNL     1      45.040  26.603  47.413  1.00  0.00    -0.064 NA
ATOM     49  H62 UNL     1      41.898  27.602  47.595  1.00  0.00     0.158 HD
ATOM     50  H61 UNL     1      43.016  27.016  48.852  1.00  0.00     0.158 HD
ATOM     51  H5  UNL     1      43.335  26.665  44.980  1.00  0.00     0.162 HD
ENDBRANCH  44  45
ENDBRANCH  43  44
ENDBRANCH  42  43
ENDBRANCH   1  42
TORSDOF 13
ENDMDL
MODEL 4
REMARK VINA RESULT: -9.412065409      3.128      7.399
REMARK  13 active torsions:
REMARK  status: ('A' for Active; 'I' for Inactive)
REMARK    1  A    between atoms: C2_2  and  C4_4 
REMARK       I    between atoms: C4_4  and  N1_6 
REMARK    2  A    between atoms: N1_6  and  C5_8 
REMARK    3  A    between atoms: C5_8  and  C6_9 
REMARK    4  A    between atoms: C6_9  and  N2_10 
REMARK    5  A    between atoms: N2_10  and  C7_12 
REMARK    6  A    between atoms: C16_21  and  C17_22 
REMARK    7  A    between atoms: C17_22  and  C19_24 
REMARK    8  A    between atoms: C22_27  and  C23_28 
REMARK       I    between atoms: C23_28  and  N3_30 
REMARK    9  A    between atoms: N3_30  and  C24_32 
REMARK   10  A    between atoms: C24_32  and  C26_35 
REMARK   11  A    between atoms: C26_35  and  C27_36 
REMARK   12  A    between atoms: C27_36  and  C28_37 
REMARK   13  A    between atoms: C28_37  and  N5_38 
REMARK       I    between atoms: N5_38  and  C29_40 
ROOT
HETATM    1  C24 UNL     1      37.591  35.804  53.192  1.00  0.00     0.192 C 
HETATM    2  C25 UNL     1      37.954  34.370  53.458  1.00  0.00     0.084 C 
HETATM    3  N4  UNL     1      38.239  33.266  53.658  1.00  0.00    -0.195 NA
ENDROOT
BRANCH   1   4
HETATM    4  N3  UNL     1      37.291  36.439  54.462  1.00  0.00    -0.342 N 
HETATM    5  C23 UNL     1      36.391  37.547  54.549  1.00  0.00     0.247 C 
HETATM    6  O2  UNL     1      35.855  37.931  53.483  1.00  0.00    -0.271 OA
ATOM      7  H3  UNL     1      37.732  36.088  55.312  1.00  0.00     0.163 HD
BRANCH   5   8
HETATM    8  C22 UNL     1      36.082  38.230  55.823  1.00  0.00     0.214 C 
HETATM    9  C21 UNL     1      35.972  39.710  55.717  1.00  0.00     0.044 C 
HETATM   10  C20 UNL     1      37.193  40.186  56.491  1.00  0.00     0.035 C 
HETATM   11  C19 UNL     1      37.312  39.058  57.510  1.00  0.00     0.126 C 
HETATM   12  O3  UNL     1      36.977  37.911  56.841  1.00  0.00    -0.371 OA
BRANCH  11  13
HETATM   13  C17 UNL     1      38.706  39.026  58.119  1.00  0.00     0.015 C 
HETATM   14  C18 UNL     1      38.572  39.186  59.572  1.00  0.00     0.013 C 
BRANCH  13  15
HETATM   15  C16 UNL     1      39.653  39.830  57.344  1.00  0.00     0.000 C 
HETATM   16  C14 UNL     1      40.825  39.253  56.702  1.00  0.00    -0.036 C 
HETATM   17  C13 UNL     1      40.555  38.302  55.568  1.00  0.00     0.010 C 
HETATM   18  C15 UNL     1      41.928  38.704  57.541  1.00  0.00     0.016 C 
HETATM   19  C32 UNL     1      41.478  40.503  56.077  1.00  0.00    -0.002 C 
HETATM   20  C12 UNL     1      39.643  38.900  54.500  1.00  0.00     0.006 C 
HETATM   21  C11 UNL     1      40.476  39.945  53.841  1.00  0.00    -0.010 C 
HETATM   22  C10 UNL     1      39.888  40.668  52.692  1.00  0.00     0.007 C 
HETATM   23  C33 UNL     1      40.810  41.004  54.869  1.00  0.00    -0.006 C 
HETATM   24  C9  UNL     1      40.802  40.798  51.529  1.00  0.00     0.030 C 
HETATM   25  C7  UNL     1      42.220  41.178  51.793  1.00  0.00     0.022 C 
HETATM   26  C8  UNL     1      43.032  39.968  51.264  1.00  0.00     0.038 C 
HETATM   27  C35 UNL     1      42.647  41.359  53.178  1.00  0.00     0.030 C 
HETATM   28  C34 UNL     1      41.701  41.992  54.145  1.00  0.00     0.008 C 
HETATM   29  C31 UNL     1      41.423  41.441  57.234  1.00  0.00     0.006 C 
HETATM   30  C30 UNL     1      40.203  41.050  58.067  1.00  0.00     0.006 C 
BRANCH  25  31
HETATM   31  N2  UNL     1      42.593  42.224  50.861  1.00  0.00    -0.411 N 
ATOM     32  H2  UNL     1      43.510  42.669  50.896  1.00  0.00     0.154 HD
BRANCH  31  33
HETATM   33  C6  UNL     1      41.624  42.599  49.902  1.00  0.00     0.134 C 
BRANCH  33  34
HETATM   34  C5  UNL     1      41.325  44.089  50.012  1.00  0.00     0.141 C 
BRANCH  34  35
HETATM   35  N1  UNL     1      40.791  44.485  51.274  1.00  0.00    -0.359 N 
HETATM   36  C4  UNL     1      39.425  44.365  51.644  1.00  0.00     0.221 C 
HETATM   37  O1  UNL     1      38.521  43.909  50.930  1.00  0.00    -0.273 OA
ATOM     38  H1  UNL     1      41.434  44.882  51.958  1.00  0.00     0.162 HD
BRANCH  36  39
HETATM   39  C2  UNL     1      39.038  44.826  53.013  1.00  0.00     0.070 C 
HETATM   40  C1  UNL     1      40.239  45.417  53.730  1.00  0.00     0.019 C 
HETATM   41  C3  UNL     1      38.453  43.750  53.862  1.00  0.00     0.019 C 
ENDBRANCH  36  39
ENDBRANCH  34  35
ENDBRANCH  33  34
ENDBRANCH  31  33
ENDBRANCH  25  31
ENDBRANCH  13  15
ENDBRANCH  11  13
ENDBRANCH   5   8
ENDBRANCH   1   4
BRANCH   1  42
HETATM   42  C26 UNL     1      38.724  36.438  52.459  1.00  0.00     0.042 C 
BRANCH  42  43
HETATM   43  C27 UNL     1      38.241  36.937  51.118  1.00  0.00     0.023 C 
BRANCH  43  44
HETATM   44  C28 UNL     1      39.224  36.538  50.031  1.00  0.00     0.122 C 
BRANCH  44  45
HETATM   45  N5  UNL     1      40.363  37.420  50.096  1.00  0.00    -0.365 N 
HETATM   46  C29 UNL     1      40.906  38.026  48.909  1.00  0.00     0.181 C 
HETATM   47  N6  UNL     1      40.234  39.028  48.406  1.00  0.00    -0.374 N 
HETATM   48  N7  UNL     1      42.093  37.566  48.329  1.00  0.00    -0.064 NA
ATOM     49  H62 UNL     1      39.369  39.363  48.829  1.00  0.00     0.158 HD
ATOM     50  H61 UNL     1      40.619  39.458  47.565  1.00  0.00     0.158 HD
ATOM     51  H5  UNL     1      40.792  37.618  51.000  1.00  0.00     0.162 HD
ENDBRANCH  44  45
ENDBRANCH  43  44
ENDBRANCH  42  43
ENDBRANCH   1  42
TORSDOF 13
ENDMDL
MODEL 5
REMARK VINA RESULT: -9.382616235      2.837      7.858
REMARK  13 active torsions:
REMARK  status: ('A' for Active; 'I' for Inactive)
REMARK    1  A    between atoms: C2_2  and  C4_4 
REMARK       I    between atoms: C4_4  and  N1_6 
REMARK    2  A    between atoms: N1_6  and  C5_8 
REMARK    3  A    between atoms: C5_8  and  C6_9 
REMARK    4  A    between atoms: C6_9  and  N2_10 
REMARK    5  A    between atoms: N2_10  and  C7_12 
REMARK    6  A    between atoms: C16_21  and  C17_22 
REMARK    7  A    between atoms: C17_22  and  C19_24 
REMARK    8  A    between atoms: C22_27  and  C23_28 
REMARK       I    between atoms: C23_28  and  N3_30 
REMARK    9  A    between atoms: N3_30  and  C24_32 
REMARK   10  A    between atoms: C24_32  and  C26_35 
REMARK   11  A    between atoms: C26_35  and  C27_36 
REMARK   12  A    between atoms: C27_36  and  C28_37 
REMARK   13  A    between atoms: C28_37  and  N5_38 
REMARK       I    between atoms: N5_38  and  C29_40 
ROOT
HETATM    1  C24 UNL     1      37.694  35.842  53.002  1.00  0.00     0.192 C 
HETATM    2  C25 UNL     1      38.036  34.395  53.219  1.00  0.00     0.084 C 
HETATM    3  N4  UNL     1      38.306  33.280  53.382  1.00  0.00    -0.195 NA
ENDROOT
BRANCH   1   4
HETATM    4  N3  UNL     1      37.346  36.424  54.286  1.00  0.00    -0.342 N 
HETATM    5  C23 UNL     1      36.509  37.579  54.380  1.00  0.00     0.247 C 
HETATM    6  O2  UNL     1      36.072  38.055  53.305  1.00  0.00    -0.271 OA
ATOM      7  H3  UNL     1      37.706  35.999  55.140  1.00  0.00     0.163 HD
BRANCH   5   8
HETATM    8  C22 UNL     1      36.155  38.209  55.669  1.00  0.00     0.214 C 
HETATM    9  C21 UNL     1      36.001  39.687  55.610  1.00  0.00     0.044 C 
HETATM   10  C20 UNL     1      37.192  40.175  56.425  1.00  0.00     0.035 C 
HETATM   11  C19 UNL     1      37.327  39.017  57.407  1.00  0.00     0.126 C 
HETATM   12  O3  UNL     1      37.041  37.883  56.694  1.00  0.00    -0.371 OA
BRANCH  11  13
HETATM   13  C17 UNL     1      38.709  39.007  58.042  1.00  0.00     0.015 C 
HETATM   14  C18 UNL     1      38.545  39.161  59.493  1.00  0.00     0.013 C 
BRANCH  13  15
HETATM   15  C16 UNL     1      39.657  39.828  57.287  1.00  0.00     0.000 C 
HETATM   16  C14 UNL     1      40.790  39.257  56.574  1.00  0.00    -0.036 C 
HETATM   17  C13 UNL     1      40.454  38.387  55.394  1.00  0.00     0.010 C 
HETATM   18  C15 UNL     1      41.900  38.624  57.341  1.00  0.00     0.016 C 
HETATM   19  C32 UNL     1      41.463  40.523  56.004  1.00  0.00    -0.002 C 
HETATM   20  C12 UNL     1      39.530  39.076  54.394  1.00  0.00     0.006 C 
HETATM   21  C11 UNL     1      40.376  40.135  53.773  1.00  0.00    -0.010 C 
HETATM   22  C10 UNL     1      39.776  40.944  52.689  1.00  0.00     0.007 C 
HETATM   23  C33 UNL     1      40.775  41.117  54.852  1.00  0.00    -0.006 C 
HETATM   24  C9  UNL     1      40.657  41.118  51.507  1.00  0.00     0.030 C 
HETATM   25  C7  UNL     1      42.094  41.439  51.748  1.00  0.00     0.022 C 
HETATM   26  C8  UNL     1      42.850  40.240  51.120  1.00  0.00     0.038 C 
HETATM   27  C35 UNL     1      42.569  41.520  53.126  1.00  0.00     0.030 C 
HETATM   28  C34 UNL     1      41.674  42.121  54.160  1.00  0.00     0.008 C 
HETATM   29  C31 UNL     1      41.474  41.389  57.218  1.00  0.00     0.006 C 
HETATM   30  C30 UNL     1      40.268  40.984  58.065  1.00  0.00     0.006 C 
BRANCH  25  31
HETATM   31  N2  UNL     1      42.471  42.529  50.870  1.00  0.00    -0.411 N 
ATOM     32  H2  UNL     1      43.224  42.430  50.189  1.00  0.00     0.154 HD
BRANCH  31  33
HETATM   33  C6  UNL     1      41.745  43.735  51.001  1.00  0.00     0.134 C 
BRANCH  33  34
HETATM   34  C5  UNL     1      41.393  44.288  49.626  1.00  0.00     0.141 C 
BRANCH  34  35
HETATM   35  N1  UNL     1      40.414  45.324  49.647  1.00  0.00    -0.359 N 
HETATM   36  C4  UNL     1      40.680  46.679  49.980  1.00  0.00     0.221 C 
HETATM   37  O1  UNL     1      41.784  47.140  50.297  1.00  0.00    -0.273 OA
ATOM     38  H1  UNL     1      39.454  45.075  49.406  1.00  0.00     0.162 HD
BRANCH  36  39
HETATM   39  C2  UNL     1      39.531  47.636  49.945  1.00  0.00     0.070 C 
HETATM   40  C1  UNL     1      40.037  49.068  49.924  1.00  0.00     0.019 C 
HETATM   41  C3  UNL     1      38.588  47.477  51.088  1.00  0.00     0.019 C 
ENDBRANCH  36  39
ENDBRANCH  34  35
ENDBRANCH  33  34
ENDBRANCH  31  33
ENDBRANCH  25  31
ENDBRANCH  13  15
ENDBRANCH  11  13
ENDBRANCH   5   8
ENDBRANCH   1   4
BRANCH   1  42
HETATM   42  C26 UNL     1      38.861  36.498  52.344  1.00  0.00     0.042 C 
BRANCH  42  43
HETATM   43  C27 UNL     1      39.092  35.874  50.989  1.00  0.00     0.023 C 
BRANCH  43  44
HETATM   44  C28 UNL     1      40.234  36.581  50.280  1.00  0.00     0.122 C 
BRANCH  44  45
HETATM   45  N5  UNL     1      40.856  35.653  49.370  1.00  0.00    -0.365 N 
HETATM   46  C29 UNL     1      42.081  35.981  48.689  1.00  0.00     0.181 C 
HETATM   47  N6  UNL     1      43.176  35.926  49.401  1.00  0.00    -0.374 N 
HETATM   48  N7  UNL     1      42.095  36.339  47.338  1.00  0.00    -0.064 NA
ATOM     49  H62 UNL     1      43.166  35.666  50.387  1.00  0.00     0.158 HD
ATOM     50  H61 UNL     1      44.045  36.159  48.919  1.00  0.00     0.158 HD
ATOM     51  H5  UNL     1      40.420  34.745  49.205  1.00  0.00     0.162 HD
ENDBRANCH  44  45
ENDBRANCH  43  44
ENDBRANCH  42  43
ENDBRANCH   1  42
TORSDOF 13
ENDMDL
