MODEL 1
REMARK VINA RESULT: -10.486897230      0.000      0.000
REMARK  13 active torsions:
REMARK  status: ('A' for Active; 'I' for Inactive)
REMARK    1  A    between atoms: C2_2  and  C3_3 
REMARK    2  A    between atoms: C3_3  and  C4_4 
REMARK    3  A    between atoms: C4_4  and  C5_5 
REMARK    4  A    between atoms: C5_5  and  N1_6 
REMARK       I    between atoms: N1_6  and  C6_8 
REMARK       I    between atoms: C6_8  and  N3_12 
REMARK    5  A    between atoms: N3_12  and  C7_14 
REMARK    6  A    between atoms: C7_14  and  C8_15 
REMARK    7  A    between atoms: C8_15  and  C9_16 
REMARK    8  A    between atoms: C9_16  and  C10_17 
REMARK    9  A    between atoms: C11_19  and  O2_20 
REMARK   10  A    between atoms: O2_20  and  C12_21 
REMARK   11  A    between atoms: C27_39  and  C28_40 
REMARK   12  A    between atoms: C28_40  and  C29_41 
REMARK   13  A    between atoms: C34_48  and  N5_49 
ROOT
HETATM    1  C12 UNL     1      42.221  34.781  46.533  1.00  0.00     0.125 C 
HETATM    2  C13 UNL     1      42.436  33.331  46.832  1.00  0.00     0.033 C 
HETATM    3  C14 UNL     1      43.655  32.862  46.073  1.00  0.00     0.013 C 
HETATM    4  C15 UNL     1      43.532  32.964  44.578  1.00  0.00    -0.027 C 
HETATM    5  C16 UNL     1      44.883  33.610  44.138  1.00  0.00     0.016 C 
HETATM    6  C17 UNL     1      42.530  34.009  44.141  1.00  0.00     0.001 C 
HETATM    7  C18 UNL     1      42.411  35.155  45.104  1.00  0.00     0.037 C 
HETATM    8  C19 UNL     1      41.172  33.471  43.803  1.00  0.00    -0.013 C 
HETATM    9  C20 UNL     1      40.471  34.574  42.992  1.00  0.00     0.010 C 
HETATM   10  C21 UNL     1      41.250  32.262  42.888  1.00  0.00     0.010 C 
HETATM   11  C22 UNL     1      42.654  32.001  42.484  1.00  0.00     0.006 C 
HETATM   12  C23 UNL     1      43.417  31.728  43.807  1.00  0.00     0.091 C 
HETATM   13  C24 UNL     1      42.826  30.523  44.358  1.00  0.00     0.223 C 
HETATM   14  O3  UNL     1      42.443  30.303  45.538  1.00  0.00    -0.273 OA
HETATM   15  N4  UNL     1      42.637  29.418  43.468  1.00  0.00    -0.351 N 
ATOM     16  H4  UNL     1      42.672  28.481  43.869  1.00  0.00     0.163 HD
HETATM   17  C25 UNL     1      42.406  29.521  42.069  1.00  0.00     0.037 C 
HETATM   18  C26 UNL     1      41.008  29.234  41.642  1.00  0.00     0.039 C 
HETATM   19  C27 UNL     1      43.299  28.676  41.185  1.00  0.00     0.024 C 
HETATM   20  C30 UNL     1      43.131  29.396  39.862  1.00  0.00     0.008 C 
HETATM   21  C31 UNL     1      42.655  30.825  40.202  1.00  0.00     0.008 C 
HETATM   22  C32 UNL     1      42.953  30.863  41.635  1.00  0.00     0.019 C 
ENDROOT
BRANCH   1  23
HETATM   23  O2  UNL     1      40.900  35.103  46.882  1.00  0.00    -0.356 OA
BRANCH  23  24
HETATM   24  C11 UNL     1      40.724  35.356  48.218  1.00  0.00     0.262 C 
HETATM   25  O1  UNL     1      41.343  36.535  48.635  1.00  0.00    -0.354 OA
HETATM   26  C10 UNL     1      40.923  36.602  49.988  1.00  0.00     0.155 C 
HETATM   27  C34 UNL     1      39.425  36.431  49.862  1.00  0.00     0.217 C 
HETATM   28  C33 UNL     1      39.279  35.670  48.536  1.00  0.00     0.096 C 
BRANCH  26  29
HETATM   29  C9  UNL     1      41.249  37.959  50.537  1.00  0.00     0.036 C 
BRANCH  29  30
HETATM   30  C8  UNL     1      40.652  39.049  49.709  1.00  0.00     0.023 C 
BRANCH  30  31
HETATM   31  C7  UNL     1      40.619  40.395  50.383  1.00  0.00     0.138 C 
BRANCH  31  32
HETATM   32  N3  UNL     1      41.782  41.167  50.043  1.00  0.00    -0.227 N 
HETATM   33  C6  UNL     1      41.758  42.567  49.905  1.00  0.00     0.667 C 
HETATM   34  N1  UNL     1      42.139  43.470  50.932  1.00  0.00    -0.227 N 
HETATM   35  N2  UNL     1      41.387  43.068  48.768  1.00  0.00    -0.235 N 
ATOM     36  H1  UNL     1      43.133  43.632  51.092  1.00  0.00     0.177 HD
ATOM     37  H22 UNL     1      41.370  44.084  48.668  1.00  0.00     0.174 HD
ATOM     38  H21 UNL     1      41.113  42.419  48.030  1.00  0.00     0.174 HD
ATOM     39  H3  UNL     1      42.664  40.677  49.895  1.00  0.00     0.177 HD
BRANCH  34  40
HETATM   40  C5  UNL     1      41.187  44.173  51.762  1.00  0.00     0.138 C 
BRANCH  40  41
HETATM   41  C4  UNL     1      41.537  45.631  51.917  1.00  0.00     0.020 C 
BRANCH  41  42
HETATM   42  C3  UNL     1      41.575  46.278  50.542  1.00  0.00     0.001 C 
BRANCH  42  43
HETATM   43  C2  UNL     1      40.247  46.842  50.118  1.00  0.00    -0.004 C 
HETATM   44  C1  UNL     1      40.453  48.328  49.893  1.00  0.00     0.005 C 
ENDBRANCH  42  43
ENDBRANCH  41  42
ENDBRANCH  40  41
ENDBRANCH  34  40
ENDBRANCH  31  32
ENDBRANCH  30  31
ENDBRANCH  29  30
ENDBRANCH  26  29
BRANCH  27  45
HETATM   45  N5  UNL     1      38.878  35.560  50.880  1.00  0.00    -0.072 N 
ATOM     46  H53 UNL     1      39.089  35.910  51.814  1.00  0.00     0.274 HD
ATOM     47  H52 UNL     1      37.860  35.624  50.907  1.00  0.00     0.274 HD
ATOM     48  H51 UNL     1      39.182  34.593  50.773  1.00  0.00     0.274 HD
ENDBRANCH  27  45
ENDBRANCH  23  24
ENDBRANCH   1  23
BRANCH  19  49
HETATM   49  C28 UNL     1      42.923  27.240  41.162  1.00  0.00     0.120 C 
BRANCH  49  50
HETATM   50  C29 UNL     1      43.622  26.428  42.177  1.00  0.00     0.172 C 
HETATM   51  O4  UNL     1      44.697  25.858  41.854  1.00  0.00    -0.648 OA
HETATM   52  O5  UNL     1      43.143  26.274  43.456  1.00  0.00    -0.648 OA
ENDBRANCH  49  50
ENDBRANCH  19  49
TORSDOF 13
ENDMDL
MODEL 2
REMARK VINA RESULT: -10.455345559      3.608      5.801
REMARK  13 active torsions:
REMARK  status: ('A' for Active; 'I' for Inactive)
REMARK    1  A    between atoms: C2_2  and  C3_3 
REMARK    2  A    between atoms: C3_3  and  C4_4 
REMARK    3  A    between atoms: C4_4  and  C5_5 
REMARK    4  A    between atoms: C5_5  and  N1_6 
REMARK       I    between atoms: N1_6  and  C6_8 
REMARK       I    between atoms: C6_8  and  N3_12 
REMARK    5  A    between atoms: N3_12  and  C7_14 
REMARK    6  A    between atoms: C7_14  and  C8_15 
REMARK    7  A    between atoms: C8_15  and  C9_16 
REMARK    8  A    between atoms: C9_16  and  C10_17 
REMARK    9  A    between atoms: C11_19  and  O2_20 
REMARK   10  A    between atoms: O2_20  and  C12_21 
REMARK   11  A    between atoms: C27_39  and  C28_40 
REMARK   12  A    between atoms: C28_40  and  C29_41 
REMARK   13  A    between atoms: C34_48  and  N5_49 
ROOT
HETATM    1  C12 UNL     1      42.250  34.646  46.720  1.00  0.00     0.125 C 
HETATM    2  C13 UNL     1      42.460  33.187  46.969  1.00  0.00     0.033 C 
HETATM    3  C14 UNL     1      43.678  32.740  46.195  1.00  0.00     0.013 C 
HETATM    4  C15 UNL     1      43.558  32.894  44.705  1.00  0.00    -0.027 C 
HETATM    5  C16 UNL     1      44.911  33.550  44.288  1.00  0.00     0.016 C 
HETATM    6  C17 UNL     1      42.558  33.956  44.303  1.00  0.00     0.001 C 
HETATM    7  C18 UNL     1      42.442  35.069  45.304  1.00  0.00     0.037 C 
HETATM    8  C19 UNL     1      41.200  33.433  43.946  1.00  0.00    -0.013 C 
HETATM    9  C20 UNL     1      40.503  34.565  43.172  1.00  0.00     0.010 C 
HETATM   10  C21 UNL     1      41.275  32.256  42.990  1.00  0.00     0.010 C 
HETATM   11  C22 UNL     1      42.678  32.005  42.578  1.00  0.00     0.006 C 
HETATM   12  C23 UNL     1      43.439  31.684  43.893  1.00  0.00     0.091 C 
HETATM   13  C24 UNL     1      42.844  30.463  44.401  1.00  0.00     0.223 C 
HETATM   14  O3  UNL     1      42.460  30.204  45.573  1.00  0.00    -0.273 OA
HETATM   15  N4  UNL     1      42.653  29.390  43.474  1.00  0.00    -0.351 N 
ATOM     16  H4  UNL     1      42.685  28.440  43.843  1.00  0.00     0.163 HD
HETATM   17  C25 UNL     1      42.423  29.542  42.079  1.00  0.00     0.037 C 
HETATM   18  C26 UNL     1      41.025  29.273  41.642  1.00  0.00     0.039 C 
HETATM   19  C27 UNL     1      43.315  28.724  41.168  1.00  0.00     0.024 C 
HETATM   20  C30 UNL     1      43.150  29.489  39.869  1.00  0.00     0.008 C 
HETATM   21  C31 UNL     1      42.678  30.907  40.258  1.00  0.00     0.008 C 
HETATM   22  C32 UNL     1      42.975  30.895  41.692  1.00  0.00     0.019 C 
ENDROOT
BRANCH   1  23
HETATM   23  O2  UNL     1      40.929  34.960  47.078  1.00  0.00    -0.356 OA
BRANCH  23  24
HETATM   24  C11 UNL     1      40.824  36.036  47.922  1.00  0.00     0.262 C 
HETATM   25  O1  UNL     1      39.631  36.048  48.644  1.00  0.00    -0.354 OA
HETATM   26  C10 UNL     1      39.829  37.172  49.485  1.00  0.00     0.155 C 
HETATM   27  C34 UNL     1      41.183  36.877  50.092  1.00  0.00     0.217 C 
HETATM   28  C33 UNL     1      41.831  35.958  49.047  1.00  0.00     0.096 C 
BRANCH  26  29
HETATM   29  C9  UNL     1      38.772  37.183  50.549  1.00  0.00     0.036 C 
BRANCH  29  30
HETATM   30  C8  UNL     1      38.153  35.836  50.728  1.00  0.00     0.023 C 
BRANCH  30  31
HETATM   31  C7  UNL     1      37.756  35.517  52.145  1.00  0.00     0.138 C 
BRANCH  31  32
HETATM   32  N3  UNL     1      38.306  34.258  52.560  1.00  0.00    -0.227 N 
HETATM   33  C6  UNL     1      37.972  33.641  53.780  1.00  0.00     0.667 C 
HETATM   34  N1  UNL     1      36.987  32.627  53.912  1.00  0.00    -0.227 N 
HETATM   35  N2  UNL     1      38.613  34.002  54.849  1.00  0.00    -0.235 N 
ATOM     36  H1  UNL     1      37.233  31.674  53.646  1.00  0.00     0.177 HD
ATOM     37  H22 UNL     1      38.371  33.555  55.734  1.00  0.00     0.174 HD
ATOM     38  H21 UNL     1      39.321  34.731  54.754  1.00  0.00     0.174 HD
ATOM     39  H3  UNL     1      38.968  33.789  51.943  1.00  0.00     0.177 HD
BRANCH  34  40
HETATM   40  C5  UNL     1      35.651  32.880  54.406  1.00  0.00     0.138 C 
BRANCH  40  41
HETATM   41  C4  UNL     1      34.739  33.408  53.328  1.00  0.00     0.020 C 
BRANCH  41  42
HETATM   42  C3  UNL     1      34.188  34.754  53.764  1.00  0.00     0.001 C 
BRANCH  42  43
HETATM   43  C2  UNL     1      34.824  35.273  55.025  1.00  0.00    -0.004 C 
HETATM   44  C1  UNL     1      35.342  36.665  54.715  1.00  0.00     0.005 C 
ENDBRANCH  42  43
ENDBRANCH  41  42
ENDBRANCH  40  41
ENDBRANCH  34  40
ENDBRANCH  31  32
ENDBRANCH  30  31
ENDBRANCH  29  30
ENDBRANCH  26  29
BRANCH  27  45
HETATM   45  N5  UNL     1      42.027  38.049  50.166  1.00  0.00    -0.072 N 
ATOM     46  H53 UNL     1      42.834  37.883  50.767  1.00  0.00     0.274 HD
ATOM     47  H52 UNL     1      42.511  38.208  49.282  1.00  0.00     0.274 HD
ATOM     48  H51 UNL     1      41.517  38.883  50.459  1.00  0.00     0.274 HD
ENDBRANCH  27  45
ENDBRANCH  23  24
ENDBRANCH   1  23
BRANCH  19  49
HETATM   49  C28 UNL     1      42.935  27.291  41.095  1.00  0.00     0.120 C 
BRANCH  49  50
HETATM   50  C29 UNL     1      43.590  26.452  42.117  1.00  0.00     0.172 C 
HETATM   51  O4  UNL     1      44.687  25.902  41.829  1.00  0.00    -0.648 OA
HETATM   52  O5  UNL     1      43.051  26.251  43.365  1.00  0.00    -0.648 OA
ENDBRANCH  49  50
ENDBRANCH  19  49
TORSDOF 13
ENDMDL
MODEL 3
REMARK VINA RESULT: -10.386331995      1.262      1.765
REMARK  13 active torsions:
REMARK  status: ('A' for Active; 'I' for Inactive)
REMARK    1  A    between atoms: C2_2  and  C3_3 
REMARK    2  A    between atoms: C3_3  and  C4_4 
REMARK    3  A    between atoms: C4_4  and  C5_5 
REMARK    4  A    between atoms: C5_5  and  N1_6 
REMARK       I    between atoms: N1_6  and  C6_8 
REMARK       I    between atoms: C6_8  and  N3_12 
REMARK    5  A    between atoms: N3_12  and  C7_14 
REMARK    6  A    between atoms: C7_14  and  C8_15 
REMARK    7  A    between atoms: C8_15  and  C9_16 
REMARK    8  A    between atoms: C9_16  and  C10_17 
REMARK    9  A    between atoms: C11_19  and  O2_20 
REMARK   10  A    between atoms: O2_20  and  C12_21 
REMARK   11  A    between atoms: C27_39  and  C28_40 
REMARK   12  A    between atoms: C28_40  and  C29_41 
REMARK   13  A    between atoms: C34_48  and  N5_49 
ROOT
HETATM    1  C12 UNL     1      42.171  34.660  46.625  1.00  0.00     0.125 C 
HETATM    2  C13 UNL     1      42.394  33.206  46.893  1.00  0.00     0.033 C 
HETATM    3  C14 UNL     1      43.619  32.761  46.130  1.00  0.00     0.013 C 
HETATM    4  C15 UNL     1      43.503  32.895  44.638  1.00  0.00    -0.027 C 
HETATM    5  C16 UNL     1      44.851  33.559  44.218  1.00  0.00     0.016 C 
HETATM    6  C17 UNL     1      42.495  33.943  44.218  1.00  0.00     0.001 C 
HETATM    7  C18 UNL     1      42.364  35.067  45.206  1.00  0.00     0.037 C 
HETATM    8  C19 UNL     1      41.143  33.402  43.863  1.00  0.00    -0.013 C 
HETATM    9  C20 UNL     1      40.439  34.518  43.072  1.00  0.00     0.010 C 
HETATM   10  C21 UNL     1      41.233  32.215  42.921  1.00  0.00     0.010 C 
HETATM   11  C22 UNL     1      42.641  31.972  42.518  1.00  0.00     0.006 C 
HETATM   12  C23 UNL     1      43.399  31.675  43.839  1.00  0.00     0.091 C 
HETATM   13  C24 UNL     1      42.814  30.455  44.361  1.00  0.00     0.223 C 
HETATM   14  O3  UNL     1      42.427  30.206  45.534  1.00  0.00    -0.273 OA
HETATM   15  N4  UNL     1      42.637  29.368  43.446  1.00  0.00    -0.351 N 
ATOM     16  H4  UNL     1      42.676  28.423  43.826  1.00  0.00     0.163 HD
HETATM   17  C25 UNL     1      42.411  29.501  42.048  1.00  0.00     0.037 C 
HETATM   18  C26 UNL     1      41.017  29.213  41.609  1.00  0.00     0.039 C 
HETATM   19  C27 UNL     1      43.314  28.680  41.150  1.00  0.00     0.024 C 
HETATM   20  C30 UNL     1      43.148  29.428  39.842  1.00  0.00     0.008 C 
HETATM   21  C31 UNL     1      42.661  30.846  40.212  1.00  0.00     0.008 C 
HETATM   22  C32 UNL     1      42.952  30.855  41.647  1.00  0.00     0.019 C 
ENDROOT
BRANCH   1  23
HETATM   23  O2  UNL     1      40.845  34.965  46.974  1.00  0.00    -0.356 OA
BRANCH  23  24
HETATM   24  C11 UNL     1      40.720  35.574  48.197  1.00  0.00     0.262 C 
HETATM   25  O1  UNL     1      41.148  36.902  48.191  1.00  0.00    -0.354 OA
HETATM   26  C10 UNL     1      40.817  37.304  49.510  1.00  0.00     0.155 C 
HETATM   27  C34 UNL     1      39.367  36.882  49.613  1.00  0.00     0.217 C 
HETATM   28  C33 UNL     1      39.268  35.750  48.581  1.00  0.00     0.096 C 
BRANCH  26  29
HETATM   29  C9  UNL     1      40.935  38.795  49.614  1.00  0.00     0.036 C 
BRANCH  29  30
HETATM   30  C8  UNL     1      42.010  39.200  50.569  1.00  0.00     0.023 C 
BRANCH  30  31
HETATM   31  C7  UNL     1      41.899  38.570  51.932  1.00  0.00     0.138 C 
BRANCH  31  32
HETATM   32  N3  UNL     1      41.141  39.405  52.822  1.00  0.00    -0.227 N 
HETATM   33  C6  UNL     1      41.696  40.510  53.494  1.00  0.00     0.667 C 
HETATM   34  N1  UNL     1      41.590  41.850  53.036  1.00  0.00    -0.227 N 
HETATM   35  N2  UNL     1      42.325  40.301  54.609  1.00  0.00    -0.235 N 
ATOM     36  H1  UNL     1      40.717  42.351  53.201  1.00  0.00     0.177 HD
ATOM     37  H22 UNL     1      42.727  41.103  55.097  1.00  0.00     0.174 HD
ATOM     38  H21 UNL     1      42.401  39.338  54.938  1.00  0.00     0.174 HD
ATOM     39  H3  UNL     1      40.157  39.186  52.974  1.00  0.00     0.177 HD
BRANCH  34  40
HETATM   40  C5  UNL     1      42.659  42.539  52.349  1.00  0.00     0.138 C 
BRANCH  40  41
HETATM   41  C4  UNL     1      42.137  43.551  51.361  1.00  0.00     0.020 C 
BRANCH  41  42
HETATM   42  C3  UNL     1      41.963  42.876  50.011  1.00  0.00     0.001 C 
BRANCH  42  43
HETATM   43  C2  UNL     1      41.212  43.723  49.020  1.00  0.00    -0.004 C 
HETATM   44  C1  UNL     1      41.203  45.137  49.568  1.00  0.00     0.005 C 
ENDBRANCH  42  43
ENDBRANCH  41  42
ENDBRANCH  40  41
ENDBRANCH  34  40
ENDBRANCH  31  32
ENDBRANCH  30  31
ENDBRANCH  29  30
ENDBRANCH  26  29
BRANCH  27  45
HETATM   45  N5  UNL     1      39.053  36.281  50.891  1.00  0.00    -0.072 N 
ATOM     46  H53 UNL     1      39.438  35.339  50.958  1.00  0.00     0.274 HD
ATOM     47  H52 UNL     1      39.577  36.726  51.644  1.00  0.00     0.274 HD
ATOM     48  H51 UNL     1      38.052  36.283  51.090  1.00  0.00     0.274 HD
ENDBRANCH  27  45
ENDBRANCH  23  24
ENDBRANCH   1  23
BRANCH  19  49
HETATM   49  C28 UNL     1      42.948  27.243  41.094  1.00  0.00     0.120 C 
BRANCH  49  50
HETATM   50  C29 UNL     1      43.623  26.420  42.115  1.00  0.00     0.172 C 
HETATM   51  O4  UNL     1      44.708  25.855  41.811  1.00  0.00    -0.648 OA
HETATM   52  O5  UNL     1      43.115  26.248  43.381  1.00  0.00    -0.648 OA
ENDBRANCH  49  50
ENDBRANCH  19  49
TORSDOF 13
ENDMDL
MODEL 4
REMARK VINA RESULT: -10.366121561      3.566      5.219
REMARK  13 active torsions:
REMARK  status: ('A' for Active; 'I' for Inactive)
REMARK    1  A    between atoms: C2_2  and  C3_3 
REMARK    2  A    between atoms: C3_3  and  C4_4 
REMARK    3  A    between atoms: C4_4  and  C5_5 
REMARK    4  A    between atoms: C5_5  and  N1_6 
REMARK       I    between atoms: N1_6  and  C6_8 
REMARK       I    between atoms: C6_8  and  N3_12 
REMARK    5  A    between atoms: N3_12  and  C7_14 
REMARK    6  A    between atoms: C7_14  and  C8_15 
REMARK    7  A    between atoms: C8_15  and  C9_16 
REMARK    8  A    between atoms: C9_16  and  C10_17 
REMARK    9  A    between atoms: C11_19  and  O2_20 
REMARK   10  A    between atoms: O2_20  and  C12_21 
REMARK   11  A    between atoms: C27_39  and  C28_40 
REMARK   12  A    between atoms: C28_40  and  C29_41 
REMARK   13  A    between atoms: C34_48  and  N5_49 
ROOT
HETATM    1  C12 UNL     1      42.270  34.586  46.720  1.00  0.00     0.125 C 
HETATM    2  C13 UNL     1      42.457  33.119  46.943  1.00  0.00     0.033 C 
HETATM    3  C14 UNL     1      43.663  32.666  46.155  1.00  0.00     0.013 C 
HETATM    4  C15 UNL     1      43.536  32.846  44.669  1.00  0.00    -0.027 C 
HETATM    5  C16 UNL     1      44.897  33.486  44.255  1.00  0.00     0.016 C 
HETATM    6  C17 UNL     1      42.552  33.931  44.290  1.00  0.00     0.001 C 
HETATM    7  C18 UNL     1      42.461  35.029  45.311  1.00  0.00     0.037 C 
HETATM    8  C19 UNL     1      41.183  33.436  43.933  1.00  0.00    -0.013 C 
HETATM    9  C20 UNL     1      40.501  34.593  43.182  1.00  0.00     0.010 C 
HETATM   10  C21 UNL     1      41.233  32.275  42.957  1.00  0.00     0.010 C 
HETATM   11  C22 UNL     1      42.630  32.007  42.533  1.00  0.00     0.006 C 
HETATM   12  C23 UNL     1      43.393  31.652  43.837  1.00  0.00     0.091 C 
HETATM   13  C24 UNL     1      42.781  30.433  44.329  1.00  0.00     0.223 C 
HETATM   14  O3  UNL     1      42.398  30.161  45.498  1.00  0.00    -0.273 OA
HETATM   15  N4  UNL     1      42.566  29.378  43.385  1.00  0.00    -0.351 N 
ATOM     16  H4  UNL     1      42.584  28.422  43.738  1.00  0.00     0.163 HD
HETATM   17  C25 UNL     1      42.331  29.557  41.994  1.00  0.00     0.037 C 
HETATM   18  C26 UNL     1      40.926  29.319  41.561  1.00  0.00     0.039 C 
HETATM   19  C27 UNL     1      43.204  28.740  41.064  1.00  0.00     0.024 C 
HETATM   20  C30 UNL     1      43.044  29.530  39.779  1.00  0.00     0.008 C 
HETATM   21  C31 UNL     1      42.598  30.948  40.195  1.00  0.00     0.008 C 
HETATM   22  C32 UNL     1      42.903  30.908  41.626  1.00  0.00     0.019 C 
ENDROOT
BRANCH   1  23
HETATM   23  O2  UNL     1      40.956  34.916  47.091  1.00  0.00    -0.356 OA
BRANCH  23  24
HETATM   24  C11 UNL     1      40.866  36.035  47.878  1.00  0.00     0.262 C 
HETATM   25  O1  UNL     1      39.656  36.122  48.566  1.00  0.00    -0.354 OA
HETATM   26  C10 UNL     1      39.871  37.280  49.356  1.00  0.00     0.155 C 
HETATM   27  C34 UNL     1      41.199  36.970  50.014  1.00  0.00     0.217 C 
HETATM   28  C33 UNL     1      41.841  35.980  49.033  1.00  0.00     0.096 C 
BRANCH  26  29
HETATM   29  C9  UNL     1      38.788  37.379  50.389  1.00  0.00     0.036 C 
BRANCH  29  30
HETATM   30  C8  UNL     1      38.189  36.045  50.692  1.00  0.00     0.023 C 
BRANCH  30  31
HETATM   31  C7  UNL     1      38.540  35.501  52.051  1.00  0.00     0.138 C 
BRANCH  31  32
HETATM   32  N3  UNL     1      37.620  34.470  52.444  1.00  0.00    -0.227 N 
HETATM   33  C6  UNL     1      37.777  33.710  53.618  1.00  0.00     0.667 C 
HETATM   34  N1  UNL     1      37.116  33.998  54.841  1.00  0.00    -0.227 N 
HETATM   35  N2  UNL     1      38.554  32.672  53.581  1.00  0.00    -0.235 N 
ATOM     36  H1  UNL     1      36.141  33.718  54.944  1.00  0.00     0.177 HD
ATOM     37  H22 UNL     1      38.667  32.121  54.433  1.00  0.00     0.174 HD
ATOM     38  H21 UNL     1      39.028  32.465  52.701  1.00  0.00     0.174 HD
ATOM     39  H3  UNL     1      36.818  34.280  51.844  1.00  0.00     0.177 HD
BRANCH  34  40
HETATM   40  C5  UNL     1      37.759  34.669  55.949  1.00  0.00     0.138 C 
BRANCH  40  41
HETATM   41  C4  UNL     1      37.992  36.131  55.668  1.00  0.00     0.020 C 
BRANCH  41  42
HETATM   42  C3  UNL     1      39.486  36.378  55.549  1.00  0.00     0.001 C 
BRANCH  42  43
HETATM   43  C2  UNL     1      40.026  37.275  56.629  1.00  0.00    -0.004 C 
HETATM   44  C1  UNL     1      38.886  38.180  57.058  1.00  0.00     0.005 C 
ENDBRANCH  42  43
ENDBRANCH  41  42
ENDBRANCH  40  41
ENDBRANCH  34  40
ENDBRANCH  31  32
ENDBRANCH  30  31
ENDBRANCH  29  30
ENDBRANCH  26  29
BRANCH  27  45
HETATM   45  N5  UNL     1      42.081  38.116  50.053  1.00  0.00    -0.072 N 
ATOM     46  H53 UNL     1      42.082  38.609  49.160  1.00  0.00     0.274 HD
ATOM     47  H52 UNL     1      41.698  38.853  50.646  1.00  0.00     0.274 HD
ATOM     48  H51 UNL     1      43.029  37.872  50.339  1.00  0.00     0.274 HD
ENDBRANCH  27  45
ENDBRANCH  23  24
ENDBRANCH   1  23
BRANCH  19  49
HETATM   49  C28 UNL     1      42.799  27.315  40.970  1.00  0.00     0.120 C 
BRANCH  49  50
HETATM   50  C29 UNL     1      43.420  26.455  41.995  1.00  0.00     0.172 C 
HETATM   51  O4  UNL     1      42.773  26.210  43.048  1.00  0.00    -0.648 OA
HETATM   52  O5  UNL     1      44.674  25.912  41.842  1.00  0.00    -0.648 OA
ENDBRANCH  49  50
ENDBRANCH  19  49
TORSDOF 13
ENDMDL
MODEL 5
REMARK VINA RESULT: -10.360589366      2.542      3.753
REMARK  13 active torsions:
REMARK  status: ('A' for Active; 'I' for Inactive)
REMARK    1  A    between atoms: C2_2  and  C3_3 
REMARK    2  A    between atoms: C3_3  and  C4_4 
REMARK    3  A    between atoms: C4_4  and  C5_5 
REMARK    4  A    between atoms: C5_5  and  N1_6 
REMARK       I    between atoms: N1_6  and  C6_8 
REMARK       I    between atoms: C6_8  and  N3_12 
REMARK    5  A    between atoms: N3_12  and  C7_14 
REMARK    6  A    between atoms: C7_14  and  C8_15 
REMARK    7  A    between atoms: C8_15  and  C9_16 
REMARK    8  A    between atoms: C9_16  and  C10_17 
REMARK    9  A    between atoms: C11_19  and  O2_20 
REMARK   10  A    between atoms: O2_20  and  C12_21 
REMARK   11  A    between atoms: C27_39  and  C28_40 
REMARK   12  A    between atoms: C28_40  and  C29_41 
REMARK   13  A    between atoms: C34_48  and  N5_49 
ROOT
HETATM    1  C12 UNL     1      42.212  34.781  46.608  1.00  0.00     0.125 C 
HETATM    2  C13 UNL     1      42.429  33.327  46.881  1.00  0.00     0.033 C 
HETATM    3  C14 UNL     1      43.659  32.877  46.128  1.00  0.00     0.013 C 
HETATM    4  C15 UNL     1      43.555  33.007  44.635  1.00  0.00    -0.027 C 
HETATM    5  C16 UNL     1      44.908  33.666  44.224  1.00  0.00     0.016 C 
HETATM    6  C17 UNL     1      42.553  34.057  44.205  1.00  0.00     0.001 C 
HETATM    7  C18 UNL     1      42.418  35.184  45.189  1.00  0.00     0.037 C 
HETATM    8  C19 UNL     1      41.202  33.520  43.841  1.00  0.00    -0.013 C 
HETATM    9  C20 UNL     1      40.507  34.637  43.042  1.00  0.00     0.010 C 
HETATM   10  C21 UNL     1      41.296  32.330  42.903  1.00  0.00     0.010 C 
HETATM   11  C22 UNL     1      42.705  32.082  42.511  1.00  0.00     0.006 C 
HETATM   12  C23 UNL     1      43.453  31.786  43.839  1.00  0.00     0.091 C 
HETATM   13  C24 UNL     1      42.860  30.569  44.358  1.00  0.00     0.223 C 
HETATM   14  O3  UNL     1      42.463  30.324  45.529  1.00  0.00    -0.273 OA
HETATM   15  N4  UNL     1      42.686  29.480  43.444  1.00  0.00    -0.351 N 
ATOM     16  H4  UNL     1      42.719  28.536  43.828  1.00  0.00     0.163 HD
HETATM   17  C25 UNL     1      42.472  29.610  42.045  1.00  0.00     0.037 C 
HETATM   18  C26 UNL     1      41.080  29.327  41.595  1.00  0.00     0.039 C 
HETATM   19  C27 UNL     1      43.379  28.785  41.156  1.00  0.00     0.024 C 
HETATM   20  C30 UNL     1      43.225  29.530  39.845  1.00  0.00     0.008 C 
HETATM   21  C31 UNL     1      42.740  30.951  40.207  1.00  0.00     0.008 C 
HETATM   22  C32 UNL     1      43.020  30.962  41.645  1.00  0.00     0.019 C 
ENDROOT
BRANCH   1  23
HETATM   23  O2  UNL     1      40.885  35.091  46.946  1.00  0.00    -0.356 OA
BRANCH  23  24
HETATM   24  C11 UNL     1      40.742  35.618  48.205  1.00  0.00     0.262 C 
HETATM   25  O1  UNL     1      41.081  36.969  48.272  1.00  0.00    -0.354 OA
HETATM   26  C10 UNL     1      40.748  37.270  49.617  1.00  0.00     0.155 C 
HETATM   27  C34 UNL     1      39.332  36.747  49.716  1.00  0.00     0.217 C 
HETATM   28  C33 UNL     1      39.289  35.673  48.619  1.00  0.00     0.096 C 
BRANCH  26  29
HETATM   29  C9  UNL     1      40.770  38.757  49.808  1.00  0.00     0.036 C 
BRANCH  29  30
HETATM   30  C8  UNL     1      41.945  39.194  50.620  1.00  0.00     0.023 C 
BRANCH  30  31
HETATM   31  C7  UNL     1      41.782  39.000  52.104  1.00  0.00     0.138 C 
BRANCH  31  32
HETATM   32  N3  UNL     1      42.718  39.808  52.833  1.00  0.00    -0.227 N 
HETATM   33  C6  UNL     1      42.331  40.702  53.849  1.00  0.00     0.667 C 
HETATM   34  N1  UNL     1      42.366  40.390  55.234  1.00  0.00    -0.227 N 
HETATM   35  N2  UNL     1      41.937  41.890  53.508  1.00  0.00    -0.235 N 
ATOM     36  H1  UNL     1      43.263  40.431  55.718  1.00  0.00     0.177 HD
ATOM     37  H22 UNL     1      41.657  42.538  54.244  1.00  0.00     0.174 HD
ATOM     38  H21 UNL     1      41.912  42.114  52.512  1.00  0.00     0.174 HD
ATOM     39  H3  UNL     1      43.709  39.731  52.604  1.00  0.00     0.177 HD
BRANCH  34  40
HETATM   40  C5  UNL     1      41.193  40.019  55.992  1.00  0.00     0.138 C 
BRANCH  40  41
HETATM   41  C4  UNL     1      41.494  38.955  57.017  1.00  0.00     0.020 C 
BRANCH  41  42
HETATM   42  C3  UNL     1      40.492  37.823  56.862  1.00  0.00     0.001 C 
BRANCH  42  43
HETATM   43  C2  UNL     1      40.644  37.073  55.567  1.00  0.00    -0.004 C 
HETATM   44  C1  UNL     1      39.488  36.093  55.490  1.00  0.00     0.005 C 
ENDBRANCH  42  43
ENDBRANCH  41  42
ENDBRANCH  40  41
ENDBRANCH  34  40
ENDBRANCH  31  32
ENDBRANCH  30  31
ENDBRANCH  29  30
ENDBRANCH  26  29
BRANCH  27  45
HETATM   45  N5  UNL     1      39.081  36.052  50.960  1.00  0.00    -0.072 N 
ATOM     46  H53 UNL     1      39.934  35.970  51.512  1.00  0.00     0.274 HD
ATOM     47  H52 UNL     1      38.529  36.627  51.596  1.00  0.00     0.274 HD
ATOM     48  H51 UNL     1      38.646  35.140  50.819  1.00  0.00     0.274 HD
ENDBRANCH  27  45
ENDBRANCH  23  24
ENDBRANCH   1  23
BRANCH  19  49
HETATM   49  C28 UNL     1      43.009  27.349  41.101  1.00  0.00     0.120 C 
BRANCH  49  50
HETATM   50  C29 UNL     1      43.648  26.531  42.149  1.00  0.00     0.172 C 
HETATM   51  O4  UNL     1      44.667  25.855  41.845  1.00  0.00    -0.648 OA
HETATM   52  O5  UNL     1      43.176  26.483  43.439  1.00  0.00    -0.648 OA
ENDBRANCH  49  50
ENDBRANCH  19  49
TORSDOF 13
ENDMDL
