MODEL 1
REMARK VINA RESULT: -7.848717382      0.000      0.000
REMARK  6 active torsions:
REMARK  status: ('A' for Active; 'I' for Inactive)
REMARK    1  A    between atoms: C2_2  and  C3_3 
REMARK    2  A    between atoms: C3_3  and  O1_4 
REMARK    3  A    between atoms: O1_4  and  C4_5 
REMARK    4  A    between atoms: C4_5  and  C5_7 
REMARK    5  A    between atoms: C12_15  and  O3_16 
REMARK    6  A    between atoms: C14_20  and  O4_21 
ROOT
HETATM    1  C5  UNL     1      83.748  33.737  14.604  1.00  0.00     0.088 C 
HETATM    2  C6  UNL     1      84.454  34.290  13.619  1.00  0.00    -0.035 C 
HETATM    3  C7  UNL     1      84.316  35.746  13.406  1.00  0.00     0.038 C 
HETATM    4  C8  UNL     1      85.321  36.150  12.319  1.00  0.00     0.014 C 
HETATM    5  C9  UNL     1      86.585  35.422  12.676  1.00  0.00     0.030 C 
HETATM    6  C10 UNL     1      87.837  36.081  12.379  1.00  0.00    -0.003 A 
HETATM    7  C11 UNL     1      88.052  37.352  12.849  1.00  0.00     0.158 A 
HETATM    8  F1  UNL     1      87.159  38.054  13.599  1.00  0.00    -0.203 F 
HETATM    9  C12 UNL     1      89.250  37.967  12.560  1.00  0.00     0.129 A 
HETATM   10  C13 UNL     1      90.239  37.353  11.819  1.00  0.00     0.103 A 
HETATM   11 CL1  UNL     1      91.736  38.206  11.495  1.00  0.00    -0.078 Cl
HETATM   12  C14 UNL     1      90.016  36.082  11.354  1.00  0.00     0.097 A 
HETATM   13  C15 UNL     1      88.797  35.438  11.641  1.00  0.00    -0.013 A 
HETATM   14  C16 UNL     1      88.685  34.063  11.094  1.00  0.00     0.042 C 
HETATM   15  C17 UNL     1      87.632  33.292  11.852  1.00  0.00     0.013 C 
HETATM   16  C18 UNL     1      86.381  34.065  12.036  1.00  0.00     0.038 C 
HETATM   17  C19 UNL     1      85.315  33.377  12.829  1.00  0.00     0.141 C 
HETATM   18 CL2  UNL     1      86.090  32.193  13.929  1.00  0.00    -0.096 Cl
HETATM   19 CL3  UNL     1      84.258  32.489  11.710  1.00  0.00    -0.096 Cl
ENDROOT
BRANCH   1  20
HETATM   20  C4  UNL     1      82.854  34.492  15.472  1.00  0.00     0.283 C 
HETATM   21  O2  UNL     1      81.688  34.695  15.029  1.00  0.00    -0.260 OA
BRANCH  20  22
HETATM   22  O1  UNL     1      83.147  34.995  16.701  1.00  0.00    -0.318 OA
BRANCH  22  23
HETATM   23  C3  UNL     1      82.512  36.053  17.352  1.00  0.00     0.178 C 
BRANCH  23  24
HETATM   24  C2  UNL     1      82.832  36.187  18.810  1.00  0.00     0.022 C 
HETATM   25  C1  UNL     1      83.907  37.268  18.983  1.00  0.00     0.007 C 
ENDBRANCH  23  24
ENDBRANCH  22  23
ENDBRANCH  20  22
ENDBRANCH   1  20
BRANCH   9  26
HETATM   26  O3  UNL     1      89.488  39.253  13.023  1.00  0.00    -0.356 OA
ATOM     27  H3  UNL     1      90.377  39.589  13.038  1.00  0.00     0.218 HD
ENDBRANCH   9  26
BRANCH  12  28
HETATM   28  O4  UNL     1      90.990  35.435  10.606  1.00  0.00    -0.358 OA
ATOM     29  H4  UNL     1      90.744  34.744  10.002  1.00  0.00     0.217 HD
ENDBRANCH  12  28
TORSDOF 6
ENDMDL
MODEL 2
REMARK VINA RESULT: -7.800190415      2.921      6.784
REMARK  6 active torsions:
REMARK  status: ('A' for Active; 'I' for Inactive)
REMARK    1  A    between atoms: C2_2  and  C3_3 
REMARK    2  A    between atoms: C3_3  and  O1_4 
REMARK    3  A    between atoms: O1_4  and  C4_5 
REMARK    4  A    between atoms: C4_5  and  C5_7 
REMARK    5  A    between atoms: C12_15  and  O3_16 
REMARK    6  A    between atoms: C14_20  and  O4_21 
ROOT
HETATM    1  C5  UNL     1      89.749  39.073  11.254  1.00  0.00     0.088 C 
HETATM    2  C6  UNL     1      89.437  37.930  11.864  1.00  0.00    -0.035 C 
HETATM    3  C7  UNL     1      88.543  37.999  13.038  1.00  0.00     0.038 C 
HETATM    4  C8  UNL     1      88.235  36.557  13.468  1.00  0.00     0.014 C 
HETATM    5  C9  UNL     1      87.961  35.826  12.186  1.00  0.00     0.030 C 
HETATM    6  C10 UNL     1      86.979  34.765  12.223  1.00  0.00    -0.003 A 
HETATM    7  C11 UNL     1      85.727  35.028  12.720  1.00  0.00     0.158 A 
HETATM    8  F1  UNL     1      85.326  36.244  13.183  1.00  0.00    -0.203 F 
HETATM    9  C12 UNL     1      84.802  34.009  12.749  1.00  0.00     0.129 A 
HETATM   10  C13 UNL     1      85.087  32.737  12.296  1.00  0.00     0.103 A 
HETATM   11 CL1  UNL     1      83.852  31.494  12.369  1.00  0.00    -0.078 Cl
HETATM   12  C14 UNL     1      86.340  32.483  11.800  1.00  0.00     0.097 A 
HETATM   13  C15 UNL     1      87.298  33.514  11.763  1.00  0.00    -0.013 A 
HETATM   14  C16 UNL     1      88.609  33.114  11.192  1.00  0.00     0.042 C 
HETATM   15  C17 UNL     1      89.359  34.337  10.723  1.00  0.00     0.013 C 
HETATM   16  C18 UNL     1      89.347  35.431  11.722  1.00  0.00     0.038 C 
HETATM   17  C19 UNL     1      90.028  36.694  11.296  1.00  0.00     0.141 C 
HETATM   18 CL2  UNL     1      89.994  36.790   9.506  1.00  0.00    -0.096 Cl
HETATM   19 CL3  UNL     1      91.725  36.629  11.818  1.00  0.00    -0.096 Cl
ENDROOT
BRANCH   1  20
HETATM   20  C4  UNL     1      89.255  40.373  11.685  1.00  0.00     0.283 C 
HETATM   21  O2  UNL     1      88.116  40.709  11.250  1.00  0.00    -0.260 OA
BRANCH  20  22
HETATM   22  O1  UNL     1      89.891  41.255  12.502  1.00  0.00    -0.318 OA
BRANCH  22  23
HETATM   23  C3  UNL     1      91.061  41.037  13.230  1.00  0.00     0.178 C 
BRANCH  23  24
HETATM   24  C2  UNL     1      90.859  40.457  14.598  1.00  0.00     0.022 C 
HETATM   25  C1  UNL     1      90.035  41.443  15.436  1.00  0.00     0.007 C 
ENDBRANCH  23  24
ENDBRANCH  22  23
ENDBRANCH  20  22
ENDBRANCH   1  20
BRANCH   9  26
HETATM   26  O3  UNL     1      83.531  34.252  13.249  1.00  0.00    -0.356 OA
ATOM     27  H3  UNL     1      82.790  33.773  12.898  1.00  0.00     0.218 HD
ENDBRANCH   9  26
BRANCH  12  28
HETATM   28  O4  UNL     1      86.660  31.214  11.336  1.00  0.00    -0.358 OA
ATOM     29  H4  UNL     1      86.744  31.057  10.403  1.00  0.00     0.217 HD
ENDBRANCH  12  28
TORSDOF 6
ENDMDL
MODEL 3
REMARK VINA RESULT: -7.745790324      3.031      6.925
REMARK  6 active torsions:
REMARK  status: ('A' for Active; 'I' for Inactive)
REMARK    1  A    between atoms: C2_2  and  C3_3 
REMARK    2  A    between atoms: C3_3  and  O1_4 
REMARK    3  A    between atoms: O1_4  and  C4_5 
REMARK    4  A    between atoms: C4_5  and  C5_7 
REMARK    5  A    between atoms: C12_15  and  O3_16 
REMARK    6  A    between atoms: C14_20  and  O4_21 
ROOT
HETATM    1  C5  UNL     1      89.486  38.469  11.841  1.00  0.00     0.088 C 
HETATM    2  C6  UNL     1      89.160  37.230  12.209  1.00  0.00    -0.035 C 
HETATM    3  C7  UNL     1      88.359  37.067  13.439  1.00  0.00     0.038 C 
HETATM    4  C8  UNL     1      88.009  35.577  13.566  1.00  0.00     0.014 C 
HETATM    5  C9  UNL     1      87.605  35.159  12.182  1.00  0.00     0.030 C 
HETATM    6  C10 UNL     1      86.575  34.151  12.067  1.00  0.00    -0.003 A 
HETATM    7  C11 UNL     1      85.378  34.340  12.710  1.00  0.00     0.158 A 
HETATM    8  F1  UNL     1      85.074  35.435  13.460  1.00  0.00    -0.203 F 
HETATM    9  C12 UNL     1      84.406  33.372  12.591  1.00  0.00     0.129 A 
HETATM   10  C13 UNL     1      84.591  32.223  11.849  1.00  0.00     0.103 A 
HETATM   11 CL1  UNL     1      83.302  31.039  11.749  1.00  0.00    -0.078 Cl
HETATM   12  C14 UNL     1      85.790  32.043  11.209  1.00  0.00     0.097 A 
HETATM   13  C15 UNL     1      86.795  33.023  11.319  1.00  0.00    -0.013 A 
HETATM   14  C16 UNL     1      88.038  32.716  10.569  1.00  0.00     0.042 C 
HETATM   15  C17 UNL     1      88.815  33.986  10.319  1.00  0.00     0.013 C 
HETATM   16  C18 UNL     1      88.931  34.830  11.532  1.00  0.00     0.038 C 
HETATM   17  C19 UNL     1      89.644  36.132  11.337  1.00  0.00     0.141 C 
HETATM   18 CL2  UNL     1      89.486  36.624   9.621  1.00  0.00    -0.096 Cl
HETATM   19 CL3  UNL     1      91.369  35.895  11.692  1.00  0.00    -0.096 Cl
ENDROOT
BRANCH   1  20
HETATM   20  C4  UNL     1      89.092  39.657  12.585  1.00  0.00     0.283 C 
HETATM   21  O2  UNL     1      89.753  39.900  13.635  1.00  0.00    -0.260 OA
BRANCH  20  22
HETATM   22  O1  UNL     1      88.094  40.523  12.266  1.00  0.00    -0.318 OA
BRANCH  22  23
HETATM   23  C3  UNL     1      88.062  41.414  11.192  1.00  0.00     0.178 C 
BRANCH  23  24
HETATM   24  C2  UNL     1      89.351  42.129  10.921  1.00  0.00     0.022 C 
HETATM   25  C1  UNL     1      89.565  43.192  12.007  1.00  0.00     0.007 C 
ENDBRANCH  23  24
ENDBRANCH  22  23
ENDBRANCH  20  22
ENDBRANCH   1  20
BRANCH   9  26
HETATM   26  O3  UNL     1      83.189  33.541  13.235  1.00  0.00    -0.356 OA
ATOM     27  H3  UNL     1      82.943  32.950  13.937  1.00  0.00     0.218 HD
ENDBRANCH   9  26
BRANCH  12  28
HETATM   28  O4  UNL     1      86.009  30.899  10.454  1.00  0.00    -0.358 OA
ATOM     29  H4  UNL     1      86.686  30.283  10.709  1.00  0.00     0.217 HD
ENDBRANCH  12  28
TORSDOF 6
ENDMDL
MODEL 4
REMARK VINA RESULT: -7.287061613      1.832      2.533
REMARK  6 active torsions:
REMARK  status: ('A' for Active; 'I' for Inactive)
REMARK    1  A    between atoms: C2_2  and  C3_3 
REMARK    2  A    between atoms: C3_3  and  O1_4 
REMARK    3  A    between atoms: O1_4  and  C4_5 
REMARK    4  A    between atoms: C4_5  and  C5_7 
REMARK    5  A    between atoms: C12_15  and  O3_16 
REMARK    6  A    between atoms: C14_20  and  O4_21 
ROOT
HETATM    1  C5  UNL     1      85.671  33.638  13.476  1.00  0.00     0.088 C 
HETATM    2  C6  UNL     1      86.313  34.544  12.740  1.00  0.00    -0.035 C 
HETATM    3  C7  UNL     1      85.606  35.804  12.430  1.00  0.00     0.038 C 
HETATM    4  C8  UNL     1      86.598  36.719  11.697  1.00  0.00     0.014 C 
HETATM    5  C9  UNL     1      87.881  36.587  12.465  1.00  0.00     0.030 C 
HETATM    6  C10 UNL     1      88.728  37.756  12.548  1.00  0.00    -0.003 A 
HETATM    7  C11 UNL     1      88.197  38.936  13.005  1.00  0.00     0.158 A 
HETATM    8  F1  UNL     1      86.905  39.092  13.404  1.00  0.00    -0.203 F 
HETATM    9  C12 UNL     1      89.016  40.041  13.080  1.00  0.00     0.129 A 
HETATM   10  C13 UNL     1      90.346  40.004  12.715  1.00  0.00     0.103 A 
HETATM   11 CL1  UNL     1      91.320  41.456  12.840  1.00  0.00    -0.078 Cl
HETATM   12  C14 UNL     1      90.869  38.820  12.261  1.00  0.00     0.097 A 
HETATM   13  C15 UNL     1      90.046  37.680  12.179  1.00  0.00    -0.013 A 
HETATM   14  C16 UNL     1      90.733  36.461  11.685  1.00  0.00     0.042 C 
HETATM   15  C17 UNL     1      89.966  35.231  12.108  1.00  0.00     0.013 C 
HETATM   16  C18 UNL     1      88.511  35.353  11.854  1.00  0.00     0.038 C 
HETATM   17  C19 UNL     1      87.685  34.189  12.301  1.00  0.00     0.141 C 
HETATM   18 CL2  UNL     1      88.539  33.358  13.641  1.00  0.00    -0.096 Cl
HETATM   19 CL3  UNL     1      87.529  33.048  10.948  1.00  0.00    -0.096 Cl
ENDROOT
BRANCH   1  20
HETATM   20  C4  UNL     1      84.320  33.829  13.985  1.00  0.00     0.283 C 
HETATM   21  O2  UNL     1      83.380  33.508  13.203  1.00  0.00    -0.260 OA
BRANCH  20  22
HETATM   22  O1  UNL     1      83.971  34.313  15.207  1.00  0.00    -0.318 OA
BRANCH  22  23
HETATM   23  C3  UNL     1      83.332  33.621  16.237  1.00  0.00     0.178 C 
BRANCH  23  24
HETATM   24  C2  UNL     1      83.906  33.843  17.604  1.00  0.00     0.022 C 
HETATM   25  C1  UNL     1      83.443  35.212  18.118  1.00  0.00     0.007 C 
ENDBRANCH  23  24
ENDBRANCH  22  23
ENDBRANCH  20  22
ENDBRANCH   1  20
BRANCH   9  26
HETATM   26  O3  UNL     1      88.500  41.245  13.537  1.00  0.00    -0.356 OA
ATOM     27  H3  UNL     1      88.969  41.734  14.203  1.00  0.00     0.218 HD
ENDBRANCH   9  26
BRANCH  12  28
HETATM   28  O4  UNL     1      92.203  38.748  11.887  1.00  0.00    -0.358 OA
ATOM     29  H4  UNL     1      92.775  38.103  12.287  1.00  0.00     0.217 HD
ENDBRANCH  12  28
TORSDOF 6
ENDMDL
MODEL 5
REMARK VINA RESULT: -7.155609621      3.132      6.717
REMARK  6 active torsions:
REMARK  status: ('A' for Active; 'I' for Inactive)
REMARK    1  A    between atoms: C2_2  and  C3_3 
REMARK    2  A    between atoms: C3_3  and  O1_4 
REMARK    3  A    between atoms: O1_4  and  C4_5 
REMARK    4  A    between atoms: C4_5  and  C5_7 
REMARK    5  A    between atoms: C12_15  and  O3_16 
REMARK    6  A    between atoms: C14_20  and  O4_21 
ROOT
HETATM    1  C5  UNL     1      89.214  37.691  12.212  1.00  0.00     0.088 C 
HETATM    2  C6  UNL     1      88.807  36.448  12.468  1.00  0.00    -0.035 C 
HETATM    3  C7  UNL     1      88.029  36.220  13.703  1.00  0.00     0.038 C 
HETATM    4  C8  UNL     1      87.572  34.754  13.695  1.00  0.00     0.014 C 
HETATM    5  C9  UNL     1      87.101  34.507  12.291  1.00  0.00     0.030 C 
HETATM    6  C10 UNL     1      85.997  33.591  12.112  1.00  0.00    -0.003 A 
HETATM    7  C11 UNL     1      84.835  33.799  12.812  1.00  0.00     0.158 A 
HETATM    8  F1  UNL     1      84.634  34.833  13.674  1.00  0.00    -0.203 F 
HETATM    9  C12 UNL     1      83.790  32.920  12.631  1.00  0.00     0.129 A 
HETATM   10  C13 UNL     1      83.870  31.841  11.774  1.00  0.00     0.103 A 
HETATM   11 CL1  UNL     1      82.494  30.768  11.602  1.00  0.00    -0.078 Cl
HETATM   12  C14 UNL     1      85.035  31.641  11.079  1.00  0.00     0.097 A 
HETATM   13  C15 UNL     1      86.113  32.531  11.251  1.00  0.00    -0.013 A 
HETATM   14  C16 UNL     1      87.309  32.212  10.433  1.00  0.00     0.042 C 
HETATM   15  C17 UNL     1      88.171  33.442  10.282  1.00  0.00     0.013 C 
HETATM   16  C18 UNL     1      88.382  34.150  11.567  1.00  0.00     0.038 C 
HETATM   17  C19 UNL     1      89.184  35.411  11.477  1.00  0.00     0.141 C 
HETATM   18 CL2  UNL     1      89.018  36.082   9.824  1.00  0.00    -0.096 Cl
HETATM   19 CL3  UNL     1      90.896  35.017  11.748  1.00  0.00    -0.096 Cl
ENDROOT
BRANCH   1  20
HETATM   20  C4  UNL     1      88.930  38.823  13.082  1.00  0.00     0.283 C 
HETATM   21  O2  UNL     1      87.908  39.508  12.789  1.00  0.00    -0.260 OA
BRANCH  20  22
HETATM   22  O1  UNL     1      89.648  39.215  14.169  1.00  0.00    -0.318 OA
BRANCH  22  23
HETATM   23  C3  UNL     1      90.659  40.176  14.209  1.00  0.00     0.178 C 
BRANCH  23  24
HETATM   24  C2  UNL     1      90.306  41.439  14.935  1.00  0.00     0.022 C 
HETATM   25  C1  UNL     1      89.761  42.456  13.923  1.00  0.00     0.007 C 
ENDBRANCH  23  24
ENDBRANCH  22  23
ENDBRANCH  20  22
ENDBRANCH   1  20
BRANCH   9  26
HETATM   26  O3  UNL     1      82.607  33.110  13.329  1.00  0.00    -0.356 OA
ATOM     27  H3  UNL     1      82.299  32.437  13.923  1.00  0.00     0.218 HD
ENDBRANCH   9  26
BRANCH  12  28
HETATM   28  O4  UNL     1      85.148  30.566  10.208  1.00  0.00    -0.358 OA
ATOM     29  H4  UNL     1      85.081  29.678  10.539  1.00  0.00     0.217 HD
ENDBRANCH  12  28
TORSDOF 6
ENDMDL
