MODEL 1
REMARK VINA RESULT: -7.038820826      0.000      0.000
REMARK  16 active torsions:
REMARK  status: ('A' for Active; 'I' for Inactive)
REMARK    1  A    between atoms: C2_2  and  C3_3 
REMARK    2  A    between atoms: C3_3  and  O1_4 
REMARK    3  A    between atoms: C7_9  and  O2_10 
REMARK    4  A    between atoms: C9_13  and  O3_14 
REMARK    5  A    between atoms: C12_18  and  O4_19 
REMARK    6  A    between atoms: C12_18  and  C13_21 
REMARK    7  A    between atoms: C13_21  and  O5_22 
REMARK    8  A    between atoms: O5_22  and  N1_23 
REMARK    9  A    between atoms: C14_25  and  O6_26 
REMARK   10  A    between atoms: C14_25  and  C15_28 
REMARK   11  A    between atoms: C15_28  and  C16_29 
REMARK   12  A    between atoms: C16_29  and  C17_30 
REMARK   13  A    between atoms: C16_29  and  C20_38 
REMARK       I    between atoms: C17_30  and  N2_32 
REMARK   14  A    between atoms: N2_32  and  C18_34 
REMARK   15  A    between atoms: C18_34  and  C19_35 
REMARK   16  A    between atoms: C19_35  and  O8_36 
ROOT
HETATM    1  C3  UNL     1     -13.663  75.329 120.586  1.00  0.00     0.109 C 
HETATM    2  C4  UNL     1     -13.246  76.588 121.361  1.00  0.00     0.057 C 
HETATM    3  C5  UNL     1     -12.312  77.342 120.407  1.00  0.00    -0.008 C 
HETATM    4  C6  UNL     1     -13.003  78.635 120.039  1.00  0.00     0.018 C 
HETATM    5  C7  UNL     1     -11.075  77.657 121.190  1.00  0.00     0.129 C 
HETATM    6  C8  UNL     1      -9.819  77.749 120.420  1.00  0.00     0.064 C 
HETATM    7  C9  UNL     1      -9.995  77.725 118.925  1.00  0.00     0.121 C 
HETATM    8  C10 UNL     1     -10.860  76.565 118.498  1.00  0.00     0.040 C 
HETATM    9  C11 UNL     1     -12.116  76.429 119.254  1.00  0.00     0.039 C 
HETATM   10  C12 UNL     1     -12.338  75.062 119.859  1.00  0.00     0.120 C 
ENDROOT
BRANCH  10  11
HETATM   11  O4  UNL     1     -11.375  74.738 120.789  1.00  0.00    -0.384 OA
ATOM     12  H4  UNL     1     -11.384  75.387 121.482  1.00  0.00     0.210 HD
ENDBRANCH  10  11
BRANCH  10  13
HETATM   13  C13 UNL     1     -12.444  73.959 118.866  1.00  0.00     0.243 C 
BRANCH  13  14
HETATM   14  O5  UNL     1     -12.060  72.756 119.514  1.00  0.00    -0.276 OA
BRANCH  14  15
HETATM   15  N1  UNL     1     -11.084  71.925 119.088  1.00  0.00    -0.248 N 
HETATM   16  C14 UNL     1     -10.177  71.416 119.851  1.00  0.00     0.136 C 
ATOM     17  H1  UNL     1     -11.062  71.684 118.097  1.00  0.00     0.196 HD
BRANCH  16  18
HETATM   18  O6  UNL     1     -10.222  71.754 121.196  1.00  0.00    -0.348 OA
ATOM     19  H6  UNL     1      -9.479  72.230 121.546  1.00  0.00     0.219 HD
ENDBRANCH  16  18
BRANCH  16  20
HETATM   20  C15 UNL     1      -9.122  70.512 119.366  1.00  0.00     0.100 C 
BRANCH  20  21
HETATM   21  C16 UNL     1      -9.117  70.234 117.904  1.00  0.00     0.088 C 
BRANCH  21  22
HETATM   22  C17 UNL     1      -9.062  68.818 117.520  1.00  0.00     0.222 C 
HETATM   23  O7  UNL     1      -9.365  67.975 118.402  1.00  0.00    -0.273 OA
HETATM   24  N2  UNL     1      -8.694  68.398 116.234  1.00  0.00    -0.359 N 
ATOM     25  H2  UNL     1      -8.451  69.126 115.562  1.00  0.00     0.162 HD
BRANCH  24  26
HETATM   26  C18 UNL     1      -8.626  67.030 115.770  1.00  0.00     0.148 C 
BRANCH  26  27
HETATM   27  C19 UNL     1      -9.691  66.788 114.736  1.00  0.00     0.183 C 
BRANCH  27  28
HETATM   28  O8  UNL     1      -9.424  67.531 113.563  1.00  0.00    -0.399 OA
ATOM     29  H8  UNL     1      -8.903  67.022 112.955  1.00  0.00     0.209 HD
ENDBRANCH  27  28
ENDBRANCH  26  27
ENDBRANCH  24  26
ENDBRANCH  21  22
BRANCH  21  30
HETATM   30  C20 UNL     1      -8.052  71.028 117.170  1.00  0.00    -0.009 C 
HETATM   31  C21 UNL     1      -7.104  71.707 118.106  1.00  0.00     0.010 C 
HETATM   32  C22 UNL     1      -8.723  71.979 116.209  1.00  0.00     0.010 C 
ENDBRANCH  21  30
ENDBRANCH  20  21
ENDBRANCH  16  20
ENDBRANCH  14  15
ENDBRANCH  13  14
ENDBRANCH  10  13
BRANCH   1  33
HETATM   33  C2  UNL     1     -14.743  75.675 119.635  1.00  0.00     0.003 C 
HETATM   34  C1  UNL     1     -15.905  76.202 119.995  1.00  0.00     0.010 C 
ENDBRANCH   1  33
BRANCH   1  35
HETATM   35  O1  UNL     1     -13.958  74.276 121.414  1.00  0.00    -0.383 OA
ATOM     36  H1  UNL     1     -13.283  73.609 121.451  1.00  0.00     0.211 HD
ENDBRANCH   1  35
BRANCH   5  37
HETATM   37  O2  UNL     1     -11.328  78.862 121.885  1.00  0.00    -0.395 OA
ATOM     38  H2  UNL     1     -10.796  79.532 121.473  1.00  0.00     0.210 HD
ENDBRANCH   5  37
BRANCH   7  39
HETATM   39  O3  UNL     1      -8.733  77.521 118.363  1.00  0.00    -0.395 OA
ATOM     40  H3  UNL     1      -8.793  76.750 117.810  1.00  0.00     0.210 HD
ENDBRANCH   7  39
TORSDOF 16
ENDMDL
MODEL 2
REMARK VINA RESULT: -7.016493631      2.555      4.409
REMARK  16 active torsions:
REMARK  status: ('A' for Active; 'I' for Inactive)
REMARK    1  A    between atoms: C2_2  and  C3_3 
REMARK    2  A    between atoms: C3_3  and  O1_4 
REMARK    3  A    between atoms: C7_9  and  O2_10 
REMARK    4  A    between atoms: C9_13  and  O3_14 
REMARK    5  A    between atoms: C12_18  and  O4_19 
REMARK    6  A    between atoms: C12_18  and  C13_21 
REMARK    7  A    between atoms: C13_21  and  O5_22 
REMARK    8  A    between atoms: O5_22  and  N1_23 
REMARK    9  A    between atoms: C14_25  and  O6_26 
REMARK   10  A    between atoms: C14_25  and  C15_28 
REMARK   11  A    between atoms: C15_28  and  C16_29 
REMARK   12  A    between atoms: C16_29  and  C17_30 
REMARK   13  A    between atoms: C16_29  and  C20_38 
REMARK       I    between atoms: C17_30  and  N2_32 
REMARK   14  A    between atoms: N2_32  and  C18_34 
REMARK   15  A    between atoms: C18_34  and  C19_35 
REMARK   16  A    between atoms: C19_35  and  O8_36 
ROOT
HETATM    1  C3  UNL     1     -11.974  76.487 119.045  1.00  0.00     0.109 C 
HETATM    2  C4  UNL     1     -13.491  76.243 119.078  1.00  0.00     0.057 C 
HETATM    3  C5  UNL     1     -13.990  77.051 120.281  1.00  0.00    -0.008 C 
HETATM    4  C6  UNL     1     -14.874  78.151 119.741  1.00  0.00     0.018 C 
HETATM    5  C7  UNL     1     -14.824  76.114 121.100  1.00  0.00     0.129 C 
HETATM    6  C8  UNL     1     -14.862  76.374 122.553  1.00  0.00     0.064 C 
HETATM    7  C9  UNL     1     -14.230  77.673 122.977  1.00  0.00     0.121 C 
HETATM    8  C10 UNL     1     -12.847  77.820 122.392  1.00  0.00     0.040 C 
HETATM    9  C11 UNL     1     -12.763  77.553 120.947  1.00  0.00     0.039 C 
HETATM   10  C12 UNL     1     -11.720  76.531 120.558  1.00  0.00     0.120 C 
ENDROOT
BRANCH  10  11
HETATM   11  O4  UNL     1     -11.979  75.289 121.093  1.00  0.00    -0.384 OA
ATOM     12  H4  UNL     1     -12.436  75.397 121.918  1.00  0.00     0.210 HD
ENDBRANCH  10  11
BRANCH  10  13
HETATM   13  C13 UNL     1     -10.323  76.920 120.891  1.00  0.00     0.243 C 
BRANCH  13  14
HETATM   14  O5  UNL     1      -9.602  75.733 121.185  1.00  0.00    -0.276 OA
BRANCH  14  15
HETATM   15  N1  UNL     1      -9.021  74.932 120.265  1.00  0.00    -0.248 N 
HETATM   16  C14 UNL     1      -9.024  73.644 120.315  1.00  0.00     0.136 C 
ATOM     17  H1  UNL     1      -8.548  75.377 119.478  1.00  0.00     0.196 HD
BRANCH  16  18
HETATM   18  O6  UNL     1      -9.671  73.056 121.393  1.00  0.00    -0.348 OA
ATOM     19  H6  UNL     1      -9.278  73.173 122.249  1.00  0.00     0.219 HD
ENDBRANCH  16  18
BRANCH  16  20
HETATM   20  C15 UNL     1      -8.383  72.791 119.303  1.00  0.00     0.100 C 
BRANCH  20  21
HETATM   21  C16 UNL     1      -9.227  72.411 118.137  1.00  0.00     0.088 C 
BRANCH  21  22
HETATM   22  C17 UNL     1     -10.567  71.901 118.453  1.00  0.00     0.222 C 
HETATM   23  O7  UNL     1     -10.631  70.823 119.097  1.00  0.00    -0.273 OA
HETATM   24  N2  UNL     1     -11.739  72.568 118.067  1.00  0.00    -0.359 N 
ATOM     25  H2  UNL     1     -11.625  73.433 117.539  1.00  0.00     0.162 HD
BRANCH  24  26
HETATM   26  C18 UNL     1     -13.093  72.144 118.346  1.00  0.00     0.148 C 
BRANCH  26  27
HETATM   27  C19 UNL     1     -13.541  72.707 119.666  1.00  0.00     0.183 C 
BRANCH  27  28
HETATM   28  O8  UNL     1     -12.615  72.387 120.685  1.00  0.00    -0.399 OA
ATOM     29  H8  UNL     1     -12.912  72.719 121.524  1.00  0.00     0.209 HD
ENDBRANCH  27  28
ENDBRANCH  26  27
ENDBRANCH  24  26
ENDBRANCH  21  22
BRANCH  21  30
HETATM   30  C20 UNL     1      -8.507  71.470 117.188  1.00  0.00    -0.009 C 
HETATM   31  C21 UNL     1      -7.020  71.569 117.308  1.00  0.00     0.010 C 
HETATM   32  C22 UNL     1      -9.008  71.710 115.784  1.00  0.00     0.010 C 
ENDBRANCH  21  30
ENDBRANCH  20  21
ENDBRANCH  16  20
ENDBRANCH  14  15
ENDBRANCH  13  14
ENDBRANCH  10  13
BRANCH   1  33
HETATM   33  C2  UNL     1     -11.702  77.796 118.411  1.00  0.00     0.003 C 
HETATM   34  C1  UNL     1     -11.868  78.041 117.118  1.00  0.00     0.010 C 
ENDBRANCH   1  33
BRANCH   1  35
HETATM   35  O1  UNL     1     -11.285  75.439 118.490  1.00  0.00    -0.383 OA
ATOM     36  H1  UNL     1     -10.818  74.903 119.120  1.00  0.00     0.211 HD
ENDBRANCH   1  35
BRANCH   5  37
HETATM   37  O2  UNL     1     -16.125  76.141 120.550  1.00  0.00    -0.395 OA
ATOM     38  H2  UNL     1     -16.498  76.987 120.770  1.00  0.00     0.210 HD
ENDBRANCH   5  37
BRANCH   7  39
HETATM   39  O3  UNL     1     -14.083  77.628 124.364  1.00  0.00    -0.395 OA
ATOM     40  H3  UNL     1     -13.875  78.508 124.654  1.00  0.00     0.210 HD
ENDBRANCH   7  39
TORSDOF 16
ENDMDL
MODEL 3
REMARK VINA RESULT: -6.966773365      1.625      2.986
REMARK  16 active torsions:
REMARK  status: ('A' for Active; 'I' for Inactive)
REMARK    1  A    between atoms: C2_2  and  C3_3 
REMARK    2  A    between atoms: C3_3  and  O1_4 
REMARK    3  A    between atoms: C7_9  and  O2_10 
REMARK    4  A    between atoms: C9_13  and  O3_14 
REMARK    5  A    between atoms: C12_18  and  O4_19 
REMARK    6  A    between atoms: C12_18  and  C13_21 
REMARK    7  A    between atoms: C13_21  and  O5_22 
REMARK    8  A    between atoms: O5_22  and  N1_23 
REMARK    9  A    between atoms: C14_25  and  O6_26 
REMARK   10  A    between atoms: C14_25  and  C15_28 
REMARK   11  A    between atoms: C15_28  and  C16_29 
REMARK   12  A    between atoms: C16_29  and  C17_30 
REMARK   13  A    between atoms: C16_29  and  C20_38 
REMARK       I    between atoms: C17_30  and  N2_32 
REMARK   14  A    between atoms: N2_32  and  C18_34 
REMARK   15  A    between atoms: C18_34  and  C19_35 
REMARK   16  A    between atoms: C19_35  and  O8_36 
ROOT
HETATM    1  C3  UNL     1     -11.646  75.431 118.748  1.00  0.00     0.109 C 
HETATM    2  C4  UNL     1     -13.142  75.785 118.744  1.00  0.00     0.057 C 
HETATM    3  C5  UNL     1     -13.263  76.975 119.703  1.00  0.00    -0.008 C 
HETATM    4  C6  UNL     1     -13.683  78.169 118.877  1.00  0.00     0.018 C 
HETATM    5  C7  UNL     1     -14.363  76.635 120.660  1.00  0.00     0.129 C 
HETATM    6  C8  UNL     1     -14.258  77.217 122.012  1.00  0.00     0.064 C 
HETATM    7  C9  UNL     1     -13.170  78.247 122.170  1.00  0.00     0.121 C 
HETATM    8  C10 UNL     1     -11.851  77.727 121.651  1.00  0.00     0.040 C 
HETATM    9  C11 UNL     1     -11.918  77.123 120.311  1.00  0.00     0.039 C 
HETATM   10  C12 UNL     1     -11.349  75.725 120.225  1.00  0.00     0.120 C 
ENDROOT
BRANCH  10  11
HETATM   11  O4  UNL     1     -12.042  74.829 121.009  1.00  0.00    -0.384 OA
ATOM     12  H4  UNL     1     -11.840  74.996 121.922  1.00  0.00     0.210 HD
ENDBRANCH  10  11
BRANCH  10  13
HETATM   13  C13 UNL     1      -9.899  75.629 120.545  1.00  0.00     0.243 C 
BRANCH  13  14
HETATM   14  O5  UNL     1      -9.685  74.396 121.214  1.00  0.00    -0.276 OA
BRANCH  14  15
HETATM   15  N1  UNL     1      -9.045  73.330 120.685  1.00  0.00    -0.248 N 
HETATM   16  C14 UNL     1      -9.606  72.198 120.429  1.00  0.00     0.136 C 
ATOM     17  H1  UNL     1      -8.051  73.427 120.474  1.00  0.00     0.196 HD
BRANCH  16  18
HETATM   18  O6  UNL     1     -10.957  72.083 120.722  1.00  0.00    -0.348 OA
ATOM     19  H6  UNL     1     -11.231  71.313 121.206  1.00  0.00     0.219 HD
ENDBRANCH  16  18
BRANCH  16  20
HETATM   20  C15 UNL     1      -8.890  71.049 119.853  1.00  0.00     0.100 C 
BRANCH  20  21
HETATM   21  C16 UNL     1      -9.221  70.709 118.443  1.00  0.00     0.088 C 
BRANCH  21  22
HETATM   22  C17 UNL     1      -9.403  69.282 118.152  1.00  0.00     0.222 C 
HETATM   23  O7  UNL     1     -10.006  68.595 119.014  1.00  0.00    -0.273 OA
HETATM   24  N2  UNL     1      -8.936  68.686 116.971  1.00  0.00    -0.359 N 
ATOM     25  H2  UNL     1      -8.447  69.290 116.311  1.00  0.00     0.162 HD
BRANCH  24  26
HETATM   26  C18 UNL     1      -9.083  67.296 116.600  1.00  0.00     0.148 C 
BRANCH  26  27
HETATM   27  C19 UNL     1      -8.593  67.088 115.194  1.00  0.00     0.183 C 
BRANCH  27  28
HETATM   28  O8  UNL     1      -7.379  66.363 115.192  1.00  0.00    -0.399 OA
ATOM     29  H8  UNL     1      -7.324  65.804 114.426  1.00  0.00     0.209 HD
ENDBRANCH  27  28
ENDBRANCH  26  27
ENDBRANCH  24  26
ENDBRANCH  21  22
BRANCH  21  30
HETATM   30  C20 UNL     1      -8.251  71.335 117.457  1.00  0.00    -0.009 C 
HETATM   31  C21 UNL     1      -6.952  71.709 118.097  1.00  0.00     0.010 C 
HETATM   32  C22 UNL     1      -8.930  72.495 116.770  1.00  0.00     0.010 C 
ENDBRANCH  21  30
ENDBRANCH  20  21
ENDBRANCH  16  20
ENDBRANCH  14  15
ENDBRANCH  13  14
ENDBRANCH  10  13
BRANCH   1  33
HETATM   33  C2  UNL     1     -10.921  76.359 117.853  1.00  0.00     0.003 C 
HETATM   34  C1  UNL     1     -10.335  75.991 116.723  1.00  0.00     0.010 C 
ENDBRANCH   1  33
BRANCH   1  35
HETATM   35  O1  UNL     1     -11.420  74.103 118.486  1.00  0.00    -0.383 OA
ATOM     36  H1  UNL     1     -11.438  73.881 117.563  1.00  0.00     0.211 HD
ENDBRANCH   1  35
BRANCH   5  37
HETATM   37  O2  UNL     1     -15.575  77.018 120.040  1.00  0.00    -0.395 OA
ATOM     38  H2  UNL     1     -15.960  76.227 119.681  1.00  0.00     0.210 HD
ENDBRANCH   5  37
BRANCH   7  39
HETATM   39  O3  UNL     1     -13.009  78.471 123.538  1.00  0.00    -0.395 OA
ATOM     40  H3  UNL     1     -12.829  77.630 123.942  1.00  0.00     0.210 HD
ENDBRANCH   7  39
TORSDOF 16
ENDMDL
MODEL 4
REMARK VINA RESULT: -6.876380001      4.484      7.000
REMARK  16 active torsions:
REMARK  status: ('A' for Active; 'I' for Inactive)
REMARK    1  A    between atoms: C2_2  and  C3_3 
REMARK    2  A    between atoms: C3_3  and  O1_4 
REMARK    3  A    between atoms: C7_9  and  O2_10 
REMARK    4  A    between atoms: C9_13  and  O3_14 
REMARK    5  A    between atoms: C12_18  and  O4_19 
REMARK    6  A    between atoms: C12_18  and  C13_21 
REMARK    7  A    between atoms: C13_21  and  O5_22 
REMARK    8  A    between atoms: O5_22  and  N1_23 
REMARK    9  A    between atoms: C14_25  and  O6_26 
REMARK   10  A    between atoms: C14_25  and  C15_28 
REMARK   11  A    between atoms: C15_28  and  C16_29 
REMARK   12  A    between atoms: C16_29  and  C17_30 
REMARK   13  A    between atoms: C16_29  and  C20_38 
REMARK       I    between atoms: C17_30  and  N2_32 
REMARK   14  A    between atoms: N2_32  and  C18_34 
REMARK   15  A    between atoms: C18_34  and  C19_35 
REMARK   16  A    between atoms: C19_35  and  O8_36 
ROOT
HETATM    1  C3  UNL     1     -13.047  77.223 121.166  1.00  0.00     0.109 C 
HETATM    2  C4  UNL     1     -11.669  77.854 121.420  1.00  0.00     0.057 C 
HETATM    3  C5  UNL     1     -10.833  77.474 120.193  1.00  0.00    -0.008 C 
HETATM    4  C6  UNL     1     -10.519  78.755 119.456  1.00  0.00     0.018 C 
HETATM    5  C7  UNL     1      -9.558  76.889 120.718  1.00  0.00     0.129 C 
HETATM    6  C8  UNL     1      -8.904  75.876 119.866  1.00  0.00     0.064 C 
HETATM    7  C9  UNL     1      -9.500  75.731 118.491  1.00  0.00     0.121 C 
HETATM    8  C10 UNL     1     -10.997  75.558 118.563  1.00  0.00     0.040 C 
HETATM    9  C11 UNL     1     -11.685  76.540 119.417  1.00  0.00     0.039 C 
HETATM   10  C12 UNL     1     -12.579  75.934 120.474  1.00  0.00     0.120 C 
ENDROOT
BRANCH  10  11
HETATM   11  O4  UNL     1     -11.877  75.170 121.378  1.00  0.00    -0.384 OA
ATOM     12  H4  UNL     1     -11.638  74.347 120.968  1.00  0.00     0.210 HD
ENDBRANCH  10  11
BRANCH  10  13
HETATM   13  C13 UNL     1     -13.712  75.132 119.937  1.00  0.00     0.243 C 
BRANCH  13  14
HETATM   14  O5  UNL     1     -14.305  74.441 121.025  1.00  0.00    -0.276 OA
BRANCH  14  15
HETATM   15  N1  UNL     1     -15.634  74.296 121.218  1.00  0.00    -0.248 N 
HETATM   16  C14 UNL     1     -16.224  74.438 122.355  1.00  0.00     0.136 C 
ATOM     17  H1  UNL     1     -16.210  74.058 120.410  1.00  0.00     0.196 HD
BRANCH  16  18
HETATM   18  O6  UNL     1     -15.427  74.761 123.444  1.00  0.00    -0.348 OA
ATOM     19  H6  UNL     1     -15.697  75.502 123.973  1.00  0.00     0.219 HD
ENDBRANCH  16  18
BRANCH  16  20
HETATM   20  C15 UNL     1     -17.674  74.275 122.543  1.00  0.00     0.100 C 
BRANCH  20  21
HETATM   21  C16 UNL     1     -18.168  72.876 122.661  1.00  0.00     0.088 C 
BRANCH  21  22
HETATM   22  C17 UNL     1     -18.062  72.055 121.448  1.00  0.00     0.222 C 
HETATM   23  O7  UNL     1     -18.955  72.204 120.576  1.00  0.00    -0.273 OA
HETATM   24  N2  UNL     1     -17.020  71.138 121.246  1.00  0.00    -0.359 N 
ATOM     25  H2  UNL     1     -16.328  71.053 121.991  1.00  0.00     0.162 HD
BRANCH  24  26
HETATM   26  C18 UNL     1     -16.833  70.302 120.081  1.00  0.00     0.148 C 
BRANCH  26  27
HETATM   27  C19 UNL     1     -15.480  70.561 119.478  1.00  0.00     0.183 C 
BRANCH  27  28
HETATM   28  O8  UNL     1     -14.742  71.460 120.280  1.00  0.00    -0.399 OA
ATOM     29  H8  UNL     1     -14.126  71.953 119.751  1.00  0.00     0.209 HD
ENDBRANCH  27  28
ENDBRANCH  26  27
ENDBRANCH  24  26
ENDBRANCH  21  22
BRANCH  21  30
HETATM   30  C20 UNL     1     -19.572  72.807 123.231  1.00  0.00    -0.009 C 
HETATM   31  C21 UNL     1     -20.401  73.990 122.848  1.00  0.00     0.010 C 
HETATM   32  C22 UNL     1     -19.486  72.601 124.724  1.00  0.00     0.010 C 
ENDBRANCH  21  30
ENDBRANCH  20  21
ENDBRANCH  16  20
ENDBRANCH  14  15
ENDBRANCH  13  14
ENDBRANCH  10  13
BRANCH   1  33
HETATM   33  C2  UNL     1     -13.818  78.085 120.243  1.00  0.00     0.003 C 
HETATM   34  C1  UNL     1     -14.542  79.124 120.634  1.00  0.00     0.010 C 
ENDBRANCH   1  33
BRANCH   1  35
HETATM   35  O1  UNL     1     -13.705  76.911 122.328  1.00  0.00    -0.383 OA
ATOM     36  H1  UNL     1     -14.054  76.029 122.354  1.00  0.00     0.211 HD
ENDBRANCH   1  35
BRANCH   5  37
HETATM   37  O2  UNL     1      -8.686  77.973 120.969  1.00  0.00    -0.395 OA
ATOM     38  H2  UNL     1      -8.169  78.096 120.181  1.00  0.00     0.210 HD
ENDBRANCH   5  37
BRANCH   7  39
HETATM   39  O3  UNL     1      -8.981  74.560 117.937  1.00  0.00    -0.395 OA
ATOM     40  H3  UNL     1      -9.323  74.491 117.053  1.00  0.00     0.210 HD
ENDBRANCH   7  39
TORSDOF 16
ENDMDL
MODEL 5
REMARK VINA RESULT: -6.832703400      1.518      2.408
REMARK  16 active torsions:
REMARK  status: ('A' for Active; 'I' for Inactive)
REMARK    1  A    between atoms: C2_2  and  C3_3 
REMARK    2  A    between atoms: C3_3  and  O1_4 
REMARK    3  A    between atoms: C7_9  and  O2_10 
REMARK    4  A    between atoms: C9_13  and  O3_14 
REMARK    5  A    between atoms: C12_18  and  O4_19 
REMARK    6  A    between atoms: C12_18  and  C13_21 
REMARK    7  A    between atoms: C13_21  and  O5_22 
REMARK    8  A    between atoms: O5_22  and  N1_23 
REMARK    9  A    between atoms: C14_25  and  O6_26 
REMARK   10  A    between atoms: C14_25  and  C15_28 
REMARK   11  A    between atoms: C15_28  and  C16_29 
REMARK   12  A    between atoms: C16_29  and  C17_30 
REMARK   13  A    between atoms: C16_29  and  C20_38 
REMARK       I    between atoms: C17_30  and  N2_32 
REMARK   14  A    between atoms: N2_32  and  C18_34 
REMARK   15  A    between atoms: C18_34  and  C19_35 
REMARK   16  A    between atoms: C19_35  and  O8_36 
ROOT
HETATM    1  C3  UNL     1     -10.869  75.729 120.579  1.00  0.00     0.109 C 
HETATM    2  C4  UNL     1      -9.809  76.724 120.082  1.00  0.00     0.057 C 
HETATM    3  C5  UNL     1     -10.228  77.055 118.645  1.00  0.00    -0.008 C 
HETATM    4  C6  UNL     1     -10.616  78.516 118.621  1.00  0.00     0.018 C 
HETATM    5  C7  UNL     1      -9.009  76.861 117.796  1.00  0.00     0.129 C 
HETATM    6  C8  UNL     1      -9.245  76.457 116.397  1.00  0.00     0.064 C 
HETATM    7  C9  UNL     1     -10.686  76.507 115.962  1.00  0.00     0.121 C 
HETATM    8  C10 UNL     1     -11.574  75.777 116.939  1.00  0.00     0.040 C 
HETATM    9  C11 UNL     1     -11.358  76.140 118.350  1.00  0.00     0.039 C 
HETATM   10  C12 UNL     1     -11.096  74.967 119.266  1.00  0.00     0.120 C 
ENDROOT
BRANCH  10  11
HETATM   11  O4  UNL     1      -9.942  74.291 118.935  1.00  0.00    -0.384 OA
ATOM     12  H4  UNL     1     -10.143  73.369 118.829  1.00  0.00     0.210 HD
ENDBRANCH  10  11
BRANCH  10  13
HETATM   13  C13 UNL     1     -12.218  73.994 119.357  1.00  0.00     0.243 C 
BRANCH  13  14
HETATM   14  O5  UNL     1     -11.752  72.863 120.075  1.00  0.00    -0.276 OA
BRANCH  14  15
HETATM   15  N1  UNL     1     -10.968  71.889 119.562  1.00  0.00    -0.248 N 
HETATM   16  C14 UNL     1      -9.872  71.476 120.102  1.00  0.00     0.136 C 
ATOM     17  H1  UNL     1     -11.261  71.452 118.688  1.00  0.00     0.196 HD
BRANCH  16  18
HETATM   18  O6  UNL     1      -9.487  72.082 121.289  1.00  0.00    -0.348 OA
ATOM     19  H6  UNL     1      -8.571  72.318 121.377  1.00  0.00     0.219 HD
ENDBRANCH  16  18
BRANCH  16  20
HETATM   20  C15 UNL     1      -9.033  70.414 119.526  1.00  0.00     0.100 C 
BRANCH  20  21
HETATM   21  C16 UNL     1      -9.171  70.191 118.061  1.00  0.00     0.088 C 
BRANCH  21  22
HETATM   22  C17 UNL     1      -9.140  68.791 117.620  1.00  0.00     0.222 C 
HETATM   23  O7  UNL     1      -9.514  67.922 118.447  1.00  0.00    -0.273 OA
HETATM   24  N2  UNL     1      -8.719  68.413 116.336  1.00  0.00    -0.359 N 
ATOM     25  H2  UNL     1      -8.420  69.160 115.709  1.00  0.00     0.162 HD
BRANCH  24  26
HETATM   26  C18 UNL     1      -8.670  67.064 115.817  1.00  0.00     0.148 C 
BRANCH  26  27
HETATM   27  C19 UNL     1      -9.720  66.887 114.755  1.00  0.00     0.183 C 
BRANCH  27  28
HETATM   28  O8  UNL     1      -9.339  67.544 113.563  1.00  0.00    -0.399 OA
ATOM     29  H8  UNL     1      -8.931  66.934 112.960  1.00  0.00     0.209 HD
ENDBRANCH  27  28
ENDBRANCH  26  27
ENDBRANCH  24  26
ENDBRANCH  21  22
BRANCH  21  30
HETATM   30  C20 UNL     1      -8.192  71.026 117.256  1.00  0.00    -0.009 C 
HETATM   31  C21 UNL     1      -7.115  71.617 118.108  1.00  0.00     0.010 C 
HETATM   32  C22 UNL     1      -8.961  72.059 116.468  1.00  0.00     0.010 C 
ENDBRANCH  21  30
ENDBRANCH  20  21
ENDBRANCH  16  20
ENDBRANCH  14  15
ENDBRANCH  13  14
ENDBRANCH  10  13
BRANCH   1  33
HETATM   33  C2  UNL     1     -12.082  76.470 120.992  1.00  0.00     0.003 C 
HETATM   34  C1  UNL     1     -12.078  77.465 121.868  1.00  0.00     0.010 C 
ENDBRANCH   1  33
BRANCH   1  35
HETATM   35  O1  UNL     1     -10.381  74.873 121.533  1.00  0.00    -0.383 OA
ATOM     36  H1  UNL     1     -10.470  75.190 122.424  1.00  0.00     0.211 HD
ENDBRANCH   1  35
BRANCH   5  37
HETATM   37  O2  UNL     1      -8.277  78.069 117.855  1.00  0.00    -0.395 OA
ATOM     38  H2  UNL     1      -8.510  78.568 117.081  1.00  0.00     0.210 HD
ENDBRANCH   5  37
BRANCH   7  39
HETATM   39  O3  UNL     1     -10.774  75.827 114.746  1.00  0.00    -0.395 OA
ATOM     40  H3  UNL     1     -11.298  76.362 114.161  1.00  0.00     0.210 HD
ENDBRANCH   7  39
TORSDOF 16
ENDMDL
