MODEL 1
REMARK VINA RESULT: -6.892272477      0.000      0.000
REMARK  16 active torsions:
REMARK  status: ('A' for Active; 'I' for Inactive)
REMARK    1  A    between atoms: C3_3  and  C4_4 
REMARK    2  A    between atoms: C4_4  and  C6_6 
REMARK    3  A    between atoms: C4_4  and  O3_16 
REMARK    4  A    between atoms: C6_6  and  C7_7 
REMARK    5  A    between atoms: C7_7  and  O1_8 
REMARK    6  A    between atoms: C7_7  and  C8_10 
REMARK    7  A    between atoms: C8_10  and  C9_11 
REMARK    8  A    between atoms: C9_11  and  O2_14 
REMARK    9  A    between atoms: O3_16  and  O4_17 
REMARK   10  A    between atoms: O4_17  and  C12_18 
REMARK   11  A    between atoms: C12_18  and  C13_19 
REMARK   12  A    between atoms: C15_21  and  O5_22 
REMARK   13  A    between atoms: C17_25  and  O6_26 
REMARK   14  A    between atoms: C18_28  and  O7_29 
REMARK   15  A    between atoms: C20_32  and  O8_33 
REMARK   16  A    between atoms: C23_37  and  O9_38 
ROOT
HETATM    1  C13 UNL     1     -12.379  73.249 119.006  1.00  0.00     0.044 C 
HETATM    2  C14 UNL     1     -12.397  72.472 117.715  1.00  0.00     0.041 C 
HETATM    3  C15 UNL     1     -10.985  72.276 117.178  1.00  0.00     0.126 C 
HETATM    4  C16 UNL     1     -10.339  71.335 118.206  1.00  0.00     0.059 C 
HETATM    5  C17 UNL     1      -9.044  70.881 117.583  1.00  0.00     0.154 C 
HETATM    6  C18 UNL     1      -8.083  72.015 117.362  1.00  0.00     0.149 C 
HETATM    7  C19 UNL     1      -7.786  72.639 118.697  1.00  0.00     0.067 C 
HETATM    8  C20 UNL     1      -9.022  73.163 119.323  1.00  0.00     0.132 C 
HETATM    9  C21 UNL     1     -10.143  72.124 119.455  1.00  0.00     0.017 C 
HETATM   10  C22 UNL     1      -9.628  71.136 120.514  1.00  0.00     0.021 C 
HETATM   11  C23 UNL     1     -11.342  72.835 119.964  1.00  0.00     0.135 C 
ENDROOT
BRANCH   1  12
HETATM   12  C12 UNL     1     -13.804  73.151 119.622  1.00  0.00     0.217 C 
BRANCH  12  13
HETATM   13  O4  UNL     1     -13.800  73.943 120.698  1.00  0.00    -0.239 OA
BRANCH  13  14
HETATM   14  O3  UNL     1     -13.835  75.082 120.883  1.00  0.00    -0.226 OA
BRANCH  14  15
HETATM   15  C4  UNL     1     -14.773  75.945 121.339  1.00  0.00     0.112 C 
HETATM   16  C5  UNL     1     -15.769  76.323 120.214  1.00  0.00     0.054 C 
BRANCH  15  17
HETATM   17  C3  UNL     1     -15.523  75.520 122.505  1.00  0.00     0.009 C 
HETATM   18  C2  UNL     1     -16.430  74.624 122.758  1.00  0.00    -0.032 C 
HETATM   19  C1  UNL     1     -17.041  73.656 121.825  1.00  0.00     0.036 C 
ENDBRANCH  15  17
BRANCH  15  20
HETATM   20  C6  UNL     1     -13.996  77.256 121.543  1.00  0.00     0.076 C 
BRANCH  20  21
HETATM   21  C7  UNL     1     -12.653  77.256 122.097  1.00  0.00     0.124 C 
BRANCH  21  22
HETATM   22  O1  UNL     1     -12.677  78.152 123.251  1.00  0.00    -0.395 OA
ATOM     23  H1  UNL     1     -13.489  77.980 123.712  1.00  0.00     0.210 HD
ENDBRANCH  21  22
BRANCH  21  24
HETATM   24  C8  UNL     1     -11.563  77.835 121.255  1.00  0.00     0.069 C 
BRANCH  24  25
HETATM   25  C9  UNL     1     -10.601  76.782 120.721  1.00  0.00     0.053 C 
HETATM   26  C10 UNL     1      -9.155  77.179 120.793  1.00  0.00     0.045 C 
HETATM   27  C11 UNL     1     -11.000  76.494 119.279  1.00  0.00     0.045 C 
BRANCH  25  28
HETATM   28  O2  UNL     1     -10.784  75.600 121.442  1.00  0.00    -0.391 OA
ATOM     29  H2  UNL     1     -10.805  74.871 120.833  1.00  0.00     0.210 HD
ENDBRANCH  25  28
ENDBRANCH  24  25
ENDBRANCH  21  24
ENDBRANCH  20  21
ENDBRANCH  15  20
ENDBRANCH  14  15
ENDBRANCH  13  14
ENDBRANCH  12  13
ENDBRANCH   1  12
BRANCH  11  30
HETATM   30  O9  UNL     1     -11.962  71.976 120.903  1.00  0.00    -0.394 OA
ATOM     31  H9  UNL     1     -11.474  71.159 120.899  1.00  0.00     0.210 HD
ENDBRANCH  11  30
BRANCH   3  32
HETATM   32  O5  UNL     1     -11.076  71.669 115.946  1.00  0.00    -0.395 OA
ATOM     33  H5  UNL     1     -10.198  71.570 115.599  1.00  0.00     0.210 HD
ENDBRANCH   3  32
BRANCH   8  34
HETATM   34  O8  UNL     1      -8.758  73.575 120.649  1.00  0.00    -0.395 OA
ATOM     35  H8  UNL     1      -9.309  74.314 120.878  1.00  0.00     0.210 HD
ENDBRANCH   8  34
BRANCH   5  36
HETATM   36  O6  UNL     1      -8.420  69.869 118.279  1.00  0.00    -0.393 OA
ATOM     37  H6  UNL     1      -8.886  69.042 118.251  1.00  0.00     0.210 HD
ENDBRANCH   5  36
BRANCH   6  38
HETATM   38  O7  UNL     1      -6.925  71.459 116.794  1.00  0.00    -0.393 OA
ATOM     39  H7  UNL     1      -6.740  71.956 116.006  1.00  0.00     0.210 HD
ENDBRANCH   6  38
TORSDOF 16
ENDMDL
MODEL 2
REMARK VINA RESULT: -6.833167187      2.582      7.932
REMARK  16 active torsions:
REMARK  status: ('A' for Active; 'I' for Inactive)
REMARK    1  A    between atoms: C3_3  and  C4_4 
REMARK    2  A    between atoms: C4_4  and  C6_6 
REMARK    3  A    between atoms: C4_4  and  O3_16 
REMARK    4  A    between atoms: C6_6  and  C7_7 
REMARK    5  A    between atoms: C7_7  and  O1_8 
REMARK    6  A    between atoms: C7_7  and  C8_10 
REMARK    7  A    between atoms: C8_10  and  C9_11 
REMARK    8  A    between atoms: C9_11  and  O2_14 
REMARK    9  A    between atoms: O3_16  and  O4_17 
REMARK   10  A    between atoms: O4_17  and  C12_18 
REMARK   11  A    between atoms: C12_18  and  C13_19 
REMARK   12  A    between atoms: C15_21  and  O5_22 
REMARK   13  A    between atoms: C17_25  and  O6_26 
REMARK   14  A    between atoms: C18_28  and  O7_29 
REMARK   15  A    between atoms: C20_32  and  O8_33 
REMARK   16  A    between atoms: C23_37  and  O9_38 
ROOT
HETATM    1  C13 UNL     1     -10.184  76.378 116.784  1.00  0.00     0.044 C 
HETATM    2  C14 UNL     1      -9.078  76.585 117.786  1.00  0.00     0.041 C 
HETATM    3  C15 UNL     1      -9.592  77.309 119.023  1.00  0.00     0.126 C 
HETATM    4  C16 UNL     1     -10.536  76.285 119.671  1.00  0.00     0.059 C 
HETATM    5  C17 UNL     1     -10.852  76.832 121.039  1.00  0.00     0.154 C 
HETATM    6  C18 UNL     1     -11.595  78.137 120.979  1.00  0.00     0.149 C 
HETATM    7  C19 UNL     1     -12.883  77.903 120.241  1.00  0.00     0.067 C 
HETATM    8  C20 UNL     1     -12.625  77.427 118.862  1.00  0.00     0.132 C 
HETATM    9  C21 UNL     1     -11.734  76.180 118.791  1.00  0.00     0.017 C 
HETATM   10  C22 UNL     1     -12.602  75.053 119.374  1.00  0.00     0.021 C 
HETATM   11  C23 UNL     1     -11.460  75.919 117.356  1.00  0.00     0.135 C 
ENDROOT
BRANCH   1  12
HETATM   12  C12 UNL     1      -9.649  75.394 115.705  1.00  0.00     0.217 C 
BRANCH  12  13
HETATM   13  O4  UNL     1      -8.835  74.549 116.343  1.00  0.00    -0.239 OA
BRANCH  13  14
HETATM   14  O3  UNL     1      -8.707  73.403 116.387  1.00  0.00    -0.226 OA
BRANCH  14  15
HETATM   15  C4  UNL     1      -8.695  72.482 117.381  1.00  0.00     0.112 C 
HETATM   16  C5  UNL     1      -7.351  71.713 117.405  1.00  0.00     0.054 C 
BRANCH  15  17
HETATM   17  C3  UNL     1      -8.977  72.975 118.715  1.00  0.00     0.009 C 
HETATM   18  C2  UNL     1      -9.227  72.444 119.875  1.00  0.00    -0.032 C 
HETATM   19  C1  UNL     1      -9.310  71.012 120.223  1.00  0.00     0.036 C 
ENDBRANCH  15  17
BRANCH  15  20
HETATM   20  C6  UNL     1      -9.680  71.407 116.894  1.00  0.00     0.076 C 
BRANCH  20  21
HETATM   21  C7  UNL     1      -9.348  70.527 115.788  1.00  0.00     0.124 C 
BRANCH  21  22
HETATM   22  O1  UNL     1      -9.359  71.351 114.581  1.00  0.00    -0.395 OA
ATOM     23  H1  UNL     1      -9.528  70.764 113.853  1.00  0.00     0.210 HD
ENDBRANCH  21  22
BRANCH  21  24
HETATM   24  C8  UNL     1     -10.321  69.444 115.454  1.00  0.00     0.069 C 
BRANCH  24  25
HETATM   25  C9  UNL     1      -9.666  68.236 114.798  1.00  0.00     0.053 C 
HETATM   26  C10 UNL     1     -10.638  67.229 114.256  1.00  0.00     0.045 C 
HETATM   27  C11 UNL     1      -8.761  67.590 115.840  1.00  0.00     0.045 C 
BRANCH  25  28
HETATM   28  O2  UNL     1      -8.844  68.681 113.759  1.00  0.00    -0.391 OA
ATOM     29  H2  UNL     1      -8.571  67.931 113.245  1.00  0.00     0.210 HD
ENDBRANCH  25  28
ENDBRANCH  24  25
ENDBRANCH  21  24
ENDBRANCH  20  21
ENDBRANCH  15  20
ENDBRANCH  14  15
ENDBRANCH  13  14
ENDBRANCH  12  13
ENDBRANCH   1  12
BRANCH  11  30
HETATM   30  O9  UNL     1     -11.516  74.516 117.175  1.00  0.00    -0.394 OA
ATOM     31  H9  UNL     1     -12.307  74.210 117.606  1.00  0.00     0.210 HD
ENDBRANCH  11  30
BRANCH   3  32
HETATM   32  O5  UNL     1      -8.517  77.573 119.843  1.00  0.00    -0.395 OA
ATOM     33  H5  UNL     1      -8.415  76.842 120.441  1.00  0.00     0.210 HD
ENDBRANCH   3  32
BRANCH   8  34
HETATM   34  O8  UNL     1     -13.837  77.035 118.248  1.00  0.00    -0.395 OA
ATOM     35  H8  UNL     1     -13.767  77.120 117.304  1.00  0.00     0.210 HD
ENDBRANCH   8  34
BRANCH   5  36
HETATM   36  O6  UNL     1     -11.530  75.945 121.847  1.00  0.00    -0.393 OA
ATOM     37  H6  UNL     1     -11.329  76.040 122.771  1.00  0.00     0.210 HD
ENDBRANCH   5  36
BRANCH   6  38
HETATM   38  O7  UNL     1     -11.836  78.526 122.307  1.00  0.00    -0.393 OA
ATOM     39  H7  UNL     1     -12.617  79.067 122.296  1.00  0.00     0.210 HD
ENDBRANCH   6  38
TORSDOF 16
ENDMDL
MODEL 3
REMARK VINA RESULT: -6.824232742      2.036      4.153
REMARK  16 active torsions:
REMARK  status: ('A' for Active; 'I' for Inactive)
REMARK    1  A    between atoms: C3_3  and  C4_4 
REMARK    2  A    between atoms: C4_4  and  C6_6 
REMARK    3  A    between atoms: C4_4  and  O3_16 
REMARK    4  A    between atoms: C6_6  and  C7_7 
REMARK    5  A    between atoms: C7_7  and  O1_8 
REMARK    6  A    between atoms: C7_7  and  C8_10 
REMARK    7  A    between atoms: C8_10  and  C9_11 
REMARK    8  A    between atoms: C9_11  and  O2_14 
REMARK    9  A    between atoms: O3_16  and  O4_17 
REMARK   10  A    between atoms: O4_17  and  C12_18 
REMARK   11  A    between atoms: C12_18  and  C13_19 
REMARK   12  A    between atoms: C15_21  and  O5_22 
REMARK   13  A    between atoms: C17_25  and  O6_26 
REMARK   14  A    between atoms: C18_28  and  O7_29 
REMARK   15  A    between atoms: C20_32  and  O8_33 
REMARK   16  A    between atoms: C23_37  and  O9_38 
ROOT
HETATM    1  C13 UNL     1     -11.123  73.395 116.921  1.00  0.00     0.044 C 
HETATM    2  C14 UNL     1     -12.105  73.287 118.059  1.00  0.00     0.041 C 
HETATM    3  C15 UNL     1     -11.669  72.219 119.054  1.00  0.00     0.126 C 
HETATM    4  C16 UNL     1     -10.394  72.808 119.676  1.00  0.00     0.059 C 
HETATM    5  C17 UNL     1     -10.079  71.933 120.862  1.00  0.00     0.154 C 
HETATM    6  C18 UNL     1      -9.760  70.519 120.464  1.00  0.00     0.149 C 
HETATM    7  C19 UNL     1      -8.564  70.552 119.554  1.00  0.00     0.067 C 
HETATM    8  C20 UNL     1      -8.847  71.348 118.337  1.00  0.00     0.132 C 
HETATM    9  C21 UNL     1      -9.340  72.772 118.624  1.00  0.00     0.017 C 
HETATM   10  C22 UNL     1      -8.115  73.490 119.213  1.00  0.00     0.021 C 
HETATM   11  C23 UNL     1      -9.707  73.379 117.321  1.00  0.00     0.135 C 
ENDROOT
BRANCH   1  12
HETATM   12  C12 UNL     1     -11.483  74.682 116.125  1.00  0.00     0.217 C 
BRANCH  12  13
HETATM   13  O4  UNL     1     -11.762  75.618 117.036  1.00  0.00    -0.239 OA
BRANCH  13  14
HETATM   14  O3  UNL     1     -11.328  76.650 117.317  1.00  0.00    -0.226 OA
BRANCH  14  15
HETATM   15  C4  UNL     1     -11.295  77.395 118.447  1.00  0.00     0.112 C 
HETATM   16  C5  UNL     1      -9.835  77.686 118.876  1.00  0.00     0.054 C 
BRANCH  15  17
HETATM   17  C3  UNL     1     -12.030  78.644 118.413  1.00  0.00     0.009 C 
HETATM   18  C2  UNL     1     -13.258  79.001 118.176  1.00  0.00    -0.032 C 
HETATM   19  C1  UNL     1     -14.406  78.142 117.828  1.00  0.00     0.036 C 
ENDBRANCH  15  17
BRANCH  15  20
HETATM   20  C6  UNL     1     -11.770  76.424 119.540  1.00  0.00     0.076 C 
BRANCH  20  21
HETATM   21  C7  UNL     1     -11.955  76.865 120.911  1.00  0.00     0.124 C 
BRANCH  21  22
HETATM   22  O1  UNL     1     -11.364  75.837 121.765  1.00  0.00    -0.395 OA
ATOM     23  H1  UNL     1     -11.351  75.035 121.255  1.00  0.00     0.210 HD
ENDBRANCH  21  22
BRANCH  21  24
HETATM   24  C8  UNL     1     -13.356  76.951 121.423  1.00  0.00     0.069 C 
BRANCH  24  25
HETATM   25  C9  UNL     1     -13.542  78.043 122.467  1.00  0.00     0.053 C 
HETATM   26  C10 UNL     1     -14.412  77.644 123.624  1.00  0.00     0.045 C 
HETATM   27  C11 UNL     1     -14.131  79.254 121.757  1.00  0.00     0.045 C 
BRANCH  25  28
HETATM   28  O2  UNL     1     -12.287  78.420 122.951  1.00  0.00    -0.391 OA
ATOM     29  H2  UNL     1     -12.190  79.359 122.849  1.00  0.00     0.210 HD
ENDBRANCH  25  28
ENDBRANCH  24  25
ENDBRANCH  21  24
ENDBRANCH  20  21
ENDBRANCH  15  20
ENDBRANCH  14  15
ENDBRANCH  13  14
ENDBRANCH  12  13
ENDBRANCH   1  12
BRANCH  11  30
HETATM   30  O9  UNL     1      -9.270  74.726 117.357  1.00  0.00    -0.394 OA
ATOM     31  H9  UNL     1      -8.724  74.821 118.130  1.00  0.00     0.210 HD
ENDBRANCH  11  30
BRANCH   3  32
HETATM   32  O5  UNL     1     -12.661  72.085 120.000  1.00  0.00    -0.395 OA
ATOM     33  H5  UNL     1     -13.052  72.939 120.142  1.00  0.00     0.210 HD
ENDBRANCH   3  32
BRANCH   8  34
HETATM   34  O8  UNL     1      -7.662  71.525 117.585  1.00  0.00    -0.395 OA
ATOM     35  H8  UNL     1      -6.902  71.438 118.147  1.00  0.00     0.210 HD
ENDBRANCH   8  34
BRANCH   5  36
HETATM   36  O6  UNL     1      -9.076  72.430 121.666  1.00  0.00    -0.393 OA
ATOM     37  H6  UNL     1      -9.308  72.467 122.586  1.00  0.00     0.210 HD
ENDBRANCH   5  36
BRANCH   6  38
HETATM   38  O7  UNL     1      -9.475  69.820 121.648  1.00  0.00    -0.393 OA
ATOM     39  H7  UNL     1      -9.336  68.913 121.404  1.00  0.00     0.210 HD
ENDBRANCH   6  38
TORSDOF 16
ENDMDL
MODEL 4
REMARK VINA RESULT: -6.823635421      2.457      7.502
REMARK  16 active torsions:
REMARK  status: ('A' for Active; 'I' for Inactive)
REMARK    1  A    between atoms: C3_3  and  C4_4 
REMARK    2  A    between atoms: C4_4  and  C6_6 
REMARK    3  A    between atoms: C4_4  and  O3_16 
REMARK    4  A    between atoms: C6_6  and  C7_7 
REMARK    5  A    between atoms: C7_7  and  O1_8 
REMARK    6  A    between atoms: C7_7  and  C8_10 
REMARK    7  A    between atoms: C8_10  and  C9_11 
REMARK    8  A    between atoms: C9_11  and  O2_14 
REMARK    9  A    between atoms: O3_16  and  O4_17 
REMARK   10  A    between atoms: O4_17  and  C12_18 
REMARK   11  A    between atoms: C12_18  and  C13_19 
REMARK   12  A    between atoms: C15_21  and  O5_22 
REMARK   13  A    between atoms: C17_25  and  O6_26 
REMARK   14  A    between atoms: C18_28  and  O7_29 
REMARK   15  A    between atoms: C20_32  and  O8_33 
REMARK   16  A    between atoms: C23_37  and  O9_38 
ROOT
HETATM    1  C13 UNL     1      -9.758  77.595 117.755  1.00  0.00     0.044 C 
HETATM    2  C14 UNL     1      -9.051  77.040 118.964  1.00  0.00     0.041 C 
HETATM    3  C15 UNL     1      -9.777  77.428 120.245  1.00  0.00     0.126 C 
HETATM    4  C16 UNL     1     -11.098  76.649 120.158  1.00  0.00     0.059 C 
HETATM    5  C17 UNL     1     -11.731  76.767 121.521  1.00  0.00     0.154 C 
HETATM    6  C18 UNL     1     -12.082  78.187 121.870  1.00  0.00     0.149 C 
HETATM    7  C19 UNL     1     -13.051  78.692 120.839  1.00  0.00     0.067 C 
HETATM    8  C20 UNL     1     -12.451  78.659 119.486  1.00  0.00     0.132 C 
HETATM    9  C21 UNL     1     -11.907  77.283 119.079  1.00  0.00     0.017 C 
HETATM   10  C22 UNL     1     -13.161  76.410 118.908  1.00  0.00     0.021 C 
HETATM   11  C23 UNL     1     -11.222  77.451 117.774  1.00  0.00     0.135 C 
ENDROOT
BRANCH   1  12
HETATM   12  C12 UNL     1      -9.129  76.919 116.504  1.00  0.00     0.217 C 
BRANCH  12  13
HETATM   13  O4  UNL     1      -8.812  75.675 116.873  1.00  0.00    -0.239 OA
BRANCH  13  14
HETATM   14  O3  UNL     1      -9.108  74.613 116.531  1.00  0.00    -0.226 OA
BRANCH  14  15
HETATM   15  C4  UNL     1      -9.529  73.491 117.162  1.00  0.00     0.112 C 
HETATM   16  C5  UNL     1      -9.554  73.697 118.697  1.00  0.00     0.054 C 
BRANCH  15  17
HETATM   17  C3  UNL     1     -10.811  72.961 116.740  1.00  0.00     0.009 C 
HETATM   18  C2  UNL     1     -11.565  73.064 115.686  1.00  0.00    -0.032 C 
HETATM   19  C1  UNL     1     -11.313  73.842 114.457  1.00  0.00     0.036 C 
ENDBRANCH  15  17
BRANCH  15  20
HETATM   20  C6  UNL     1      -8.360  72.509 116.981  1.00  0.00     0.076 C 
BRANCH  20  21
HETATM   21  C7  UNL     1      -7.990  71.579 118.033  1.00  0.00     0.124 C 
BRANCH  21  22
HETATM   22  O1  UNL     1      -6.551  71.355 117.905  1.00  0.00    -0.395 OA
ATOM     23  H1  UNL     1      -6.444  70.581 117.364  1.00  0.00     0.210 HD
ENDBRANCH  21  22
BRANCH  21  24
HETATM   24  C8  UNL     1      -8.545  70.194 117.953  1.00  0.00     0.069 C 
BRANCH  24  25
HETATM   25  C9  UNL     1      -9.458  69.851 119.122  1.00  0.00     0.053 C 
HETATM   26  C10 UNL     1      -8.969  70.352 120.450  1.00  0.00     0.045 C 
HETATM   27  C11 UNL     1      -9.608  68.335 119.151  1.00  0.00     0.045 C 
BRANCH  25  28
HETATM   28  O2  UNL     1     -10.725  70.385 118.873  1.00  0.00    -0.391 OA
ATOM     29  H2  UNL     1     -11.337  70.022 119.503  1.00  0.00     0.210 HD
ENDBRANCH  25  28
ENDBRANCH  24  25
ENDBRANCH  21  24
ENDBRANCH  20  21
ENDBRANCH  15  20
ENDBRANCH  14  15
ENDBRANCH  13  14
ENDBRANCH  12  13
ENDBRANCH   1  12
BRANCH  11  30
HETATM   30  O9  UNL     1     -11.539  76.312 116.994  1.00  0.00    -0.394 OA
ATOM     31  H9  UNL     1     -12.090  75.751 117.529  1.00  0.00     0.210 HD
ENDBRANCH  11  30
BRANCH   3  32
HETATM   32  O5  UNL     1      -9.023  76.997 121.314  1.00  0.00    -0.395 OA
ATOM     33  H5  UNL     1      -9.612  76.645 121.970  1.00  0.00     0.210 HD
ENDBRANCH   3  32
BRANCH   8  34
HETATM   34  O8  UNL     1     -13.431  78.957 118.511  1.00  0.00    -0.395 OA
ATOM     35  H8  UNL     1     -13.460  79.893 118.353  1.00  0.00     0.210 HD
ENDBRANCH   8  34
BRANCH   5  36
HETATM   36  O6  UNL     1     -12.833  75.959 121.692  1.00  0.00    -0.393 OA
ATOM     37  H6  UNL     1     -12.815  75.453 122.496  1.00  0.00     0.210 HD
ENDBRANCH   5  36
BRANCH   6  38
HETATM   38  O7  UNL     1     -12.669  78.156 123.146  1.00  0.00    -0.393 OA
ATOM     39  H7  UNL     1     -13.605  78.062 123.014  1.00  0.00     0.210 HD
ENDBRANCH   6  38
TORSDOF 16
ENDMDL
MODEL 5
REMARK VINA RESULT: -6.799565802      2.305      4.988
REMARK  16 active torsions:
REMARK  status: ('A' for Active; 'I' for Inactive)
REMARK    1  A    between atoms: C3_3  and  C4_4 
REMARK    2  A    between atoms: C4_4  and  C6_6 
REMARK    3  A    between atoms: C4_4  and  O3_16 
REMARK    4  A    between atoms: C6_6  and  C7_7 
REMARK    5  A    between atoms: C7_7  and  O1_8 
REMARK    6  A    between atoms: C7_7  and  C8_10 
REMARK    7  A    between atoms: C8_10  and  C9_11 
REMARK    8  A    between atoms: C9_11  and  O2_14 
REMARK    9  A    between atoms: O3_16  and  O4_17 
REMARK   10  A    between atoms: O4_17  and  C12_18 
REMARK   11  A    between atoms: C12_18  and  C13_19 
REMARK   12  A    between atoms: C15_21  and  O5_22 
REMARK   13  A    between atoms: C17_25  and  O6_26 
REMARK   14  A    between atoms: C18_28  and  O7_29 
REMARK   15  A    between atoms: C20_32  and  O8_33 
REMARK   16  A    between atoms: C23_37  and  O9_38 
ROOT
HETATM    1  C13 UNL     1     -10.955  72.474 116.332  1.00  0.00     0.044 C 
HETATM    2  C14 UNL     1     -11.710  73.022 117.515  1.00  0.00     0.041 C 
HETATM    3  C15 UNL     1     -11.455  72.183 118.760  1.00  0.00     0.126 C 
HETATM    4  C16 UNL     1      -9.974  72.443 119.071  1.00  0.00     0.059 C 
HETATM    5  C17 UNL     1      -9.739  71.870 120.445  1.00  0.00     0.154 C 
HETATM    6  C18 UNL     1      -9.941  70.381 120.489  1.00  0.00     0.149 C 
HETATM    7  C19 UNL     1      -8.970  69.753 119.529  1.00  0.00     0.067 C 
HETATM    8  C20 UNL     1      -9.203  70.235 118.148  1.00  0.00     0.132 C 
HETATM    9  C21 UNL     1      -9.180  71.763 118.009  1.00  0.00     0.017 C 
HETATM   10  C22 UNL     1      -7.712  72.149 118.252  1.00  0.00     0.021 C 
HETATM   11  C23 UNL     1      -9.565  72.082 116.612  1.00  0.00     0.135 C 
ENDROOT
BRANCH   1  12
HETATM   12  C12 UNL     1     -11.038  73.537 115.201  1.00  0.00     0.217 C 
BRANCH  12  13
HETATM   13  O4  UNL     1     -10.896  74.725 115.796  1.00  0.00    -0.239 OA
BRANCH  13  14
HETATM   14  O3  UNL     1     -10.108  75.568 115.777  1.00  0.00    -0.226 OA
BRANCH  14  15
HETATM   15  C4  UNL     1      -9.841  76.642 116.557  1.00  0.00     0.112 C 
HETATM   16  C5  UNL     1      -8.622  77.430 116.015  1.00  0.00     0.054 C 
BRANCH  15  17
HETATM   17  C3  UNL     1     -10.937  77.566 116.773  1.00  0.00     0.009 C 
HETATM   18  C2  UNL     1     -11.735  78.263 116.020  1.00  0.00    -0.032 C 
HETATM   19  C1  UNL     1     -11.769  78.332 114.546  1.00  0.00     0.036 C 
ENDBRANCH  15  17
BRANCH  15  20
HETATM   20  C6  UNL     1      -9.284  76.025 117.850  1.00  0.00     0.076 C 
BRANCH  20  21
HETATM   21  C7  UNL     1      -9.259  76.776 119.093  1.00  0.00     0.124 C 
BRANCH  21  22
HETATM   22  O1  UNL     1      -7.855  76.908 119.474  1.00  0.00    -0.395 OA
ATOM     23  H1  UNL     1      -7.780  77.723 119.957  1.00  0.00     0.210 HD
ENDBRANCH  21  22
BRANCH  21  24
HETATM   24  C8  UNL     1      -9.866  76.132 120.297  1.00  0.00     0.069 C 
BRANCH  24  25
HETATM   25  C9  UNL     1     -11.226  76.713 120.660  1.00  0.00     0.053 C 
HETATM   26  C10 UNL     1     -12.364  76.164 119.849  1.00  0.00     0.045 C 
HETATM   27  C11 UNL     1     -11.134  78.224 120.488  1.00  0.00     0.045 C 
BRANCH  25  28
HETATM   28  O2  UNL     1     -11.472  76.468 122.013  1.00  0.00    -0.391 OA
ATOM     29  H2  UNL     1     -12.376  76.194 122.114  1.00  0.00     0.210 HD
ENDBRANCH  25  28
ENDBRANCH  24  25
ENDBRANCH  21  24
ENDBRANCH  20  21
ENDBRANCH  15  20
ENDBRANCH  14  15
ENDBRANCH  13  14
ENDBRANCH  12  13
ENDBRANCH   1  12
BRANCH  11  30
HETATM   30  O9  UNL     1      -8.738  73.152 116.192  1.00  0.00    -0.394 OA
ATOM     31  H9  UNL     1      -7.845  72.826 116.178  1.00  0.00     0.210 HD
ENDBRANCH  11  30
BRANCH   3  32
HETATM   32  O5  UNL     1     -12.260  72.660 119.771  1.00  0.00    -0.395 OA
ATOM     33  H5  UNL     1     -11.768  72.624 120.582  1.00  0.00     0.210 HD
ENDBRANCH   3  32
BRANCH   8  34
HETATM   34  O8  UNL     1      -8.170  69.784 117.294  1.00  0.00    -0.395 OA
ATOM     35  H8  UNL     1      -8.229  70.218 116.452  1.00  0.00     0.210 HD
ENDBRANCH   8  34
BRANCH   5  36
HETATM   36  O6  UNL     1      -8.509  72.191 120.976  1.00  0.00    -0.393 OA
ATOM     37  H6  UNL     1      -7.955  71.436 121.138  1.00  0.00     0.210 HD
ENDBRANCH   5  36
BRANCH   6  38
HETATM   38  O7  UNL     1      -9.682  69.977 121.808  1.00  0.00    -0.393 OA
ATOM     39  H7  UNL     1     -10.261  70.481 122.368  1.00  0.00     0.210 HD
ENDBRANCH   6  38
TORSDOF 16
ENDMDL
