MODEL 1
REMARK VINA RESULT: -6.828833931      0.000      0.000
REMARK  15 active torsions:
REMARK  status: ('A' for Active; 'I' for Inactive)
REMARK    1  A    between atoms: C2_2  and  C3_3 
REMARK    2  A    between atoms: C3_3  and  C4_4 
REMARK    3  A    between atoms: C3_3  and  C5_7 
REMARK    4  A    between atoms: C5_7  and  O3_8 
REMARK    5  A    between atoms: C6_10  and  O4_11 
REMARK    6  A    between atoms: C8_14  and  O5_15 
REMARK    7  A    between atoms: C9_17  and  C10_18 
REMARK    8  A    between atoms: C10_18  and  C11_19 
REMARK    9  A    between atoms: C11_19  and  C12_20 
REMARK   10  A    between atoms: C12_20  and  C13_21 
REMARK   11  A    between atoms: C16_24  and  O6_25 
REMARK   12  A    between atoms: O6_25  and  C17_26 
REMARK   13  A    between atoms: C20_30  and  O8_31 
REMARK   14  A    between atoms: C21_33  and  O9_34 
REMARK   15  A    between atoms: C22_36  and  O10_37 
ROOT
HETATM    1  C5  UNL     1     -10.099  72.426 117.929  1.00  0.00     0.123 C 
HETATM    2  C6  UNL     1      -9.004  71.685 118.611  1.00  0.00     0.158 C 
HETATM    3  C7  UNL     1      -9.360  71.688 120.113  1.00  0.00     0.067 C 
HETATM    4  C8  UNL     1      -9.249  73.147 120.514  1.00  0.00     0.127 C 
HETATM    5  C9  UNL     1     -10.159  74.038 119.786  1.00  0.00     0.047 C 
HETATM    6  C16 UNL     1     -10.090  73.869 118.242  1.00  0.00     0.169 C 
ENDROOT
BRANCH   6   7
HETATM    7  O6  UNL     1      -9.028  74.624 117.829  1.00  0.00    -0.350 OA
BRANCH   7   8
HETATM    8  C17 UNL     1      -9.369  75.585 116.889  1.00  0.00     0.292 C 
HETATM    9  O7  UNL     1     -10.675  76.048 117.076  1.00  0.00    -0.351 OA
HETATM   10  C18 UNL     1     -11.156  76.569 115.887  1.00  0.00     0.152 C 
HETATM   11  C19 UNL     1     -12.420  77.350 116.182  1.00  0.00     0.042 C 
HETATM   12  C20 UNL     1     -10.149  77.363 115.120  1.00  0.00     0.178 C 
HETATM   13  C21 UNL     1      -8.942  77.764 115.906  1.00  0.00     0.183 C 
HETATM   14  C22 UNL     1      -8.478  76.769 116.922  1.00  0.00     0.204 C 
BRANCH  12  15
HETATM   15  O8  UNL     1     -10.785  78.552 114.705  1.00  0.00    -0.390 OA
ATOM     16  H8  UNL     1     -10.159  79.036 114.179  1.00  0.00     0.210 HD
ENDBRANCH  12  15
BRANCH  13  17
HETATM   17  O9  UNL     1      -7.867  77.974 115.009  1.00  0.00    -0.390 OA
ATOM     18  H9  UNL     1      -7.122  78.299 115.499  1.00  0.00     0.210 HD
ENDBRANCH  13  17
BRANCH  14  19
HETATM   19  O10 UNL     1      -8.577  77.324 118.219  1.00  0.00    -0.388 OA
ATOM     20  H10 UNL     1      -8.552  78.268 118.119  1.00  0.00     0.210 HD
ENDBRANCH  14  19
ENDBRANCH   7   8
ENDBRANCH   6   7
BRANCH   1  21
HETATM   21  C3  UNL     1     -10.309  72.022 116.515  1.00  0.00     0.126 C 
BRANCH  21  22
HETATM   22  C2  UNL     1     -11.461  72.793 115.885  1.00  0.00     0.014 C 
HETATM   23  C1  UNL     1     -12.495  71.800 115.397  1.00  0.00     0.006 C 
ENDBRANCH  21  22
BRANCH  21  24
HETATM   24  C4  UNL     1      -9.167  71.819 115.651  1.00  0.00     0.180 C 
HETATM   25  O1  UNL     1      -8.084  72.397 115.782  1.00  0.00    -0.648 OA
HETATM   26  O2  UNL     1      -9.229  70.915 114.566  1.00  0.00    -0.648 OA
ENDBRANCH  21  24
ENDBRANCH   1  21
BRANCH   1  27
HETATM   27  O3  UNL     1     -11.309  71.930 118.570  1.00  0.00    -0.384 OA
ATOM     28  H3  UNL     1     -11.389  72.510 119.318  1.00  0.00     0.210 HD
ENDBRANCH   1  27
BRANCH   5  29
HETATM   29  C10 UNL     1     -11.547  74.237 120.247  1.00  0.00     0.010 C 
BRANCH  29  30
HETATM   30  C11 UNL     1     -12.014  75.663 120.363  1.00  0.00     0.001 C 
BRANCH  30  31
HETATM   31  C12 UNL     1     -10.853  76.546 120.850  1.00  0.00     0.004 C 
BRANCH  31  32
HETATM   32  C13 UNL     1     -11.250  77.988 120.891  1.00  0.00    -0.023 C 
HETATM   33  C14 UNL     1     -12.462  78.249 121.733  1.00  0.00     0.009 C 
HETATM   34  C15 UNL     1     -11.500  78.561 119.517  1.00  0.00     0.009 C 
ENDBRANCH  31  32
ENDBRANCH  30  31
ENDBRANCH  29  30
ENDBRANCH   5  29
BRANCH   2  35
HETATM   35  O4  UNL     1      -7.754  72.344 118.576  1.00  0.00    -0.392 OA
ATOM     36  H4  UNL     1      -7.052  71.864 118.999  1.00  0.00     0.210 HD
ENDBRANCH   2  35
BRANCH   4  37
HETATM   37  O5  UNL     1      -9.305  73.295 121.864  1.00  0.00    -0.395 OA
ATOM     38  H5  UNL     1      -8.678  73.941 122.168  1.00  0.00     0.210 HD
ENDBRANCH   4  37
TORSDOF 15
ENDMDL
MODEL 2
REMARK VINA RESULT: -6.678841300      2.204      5.905
REMARK  15 active torsions:
REMARK  status: ('A' for Active; 'I' for Inactive)
REMARK    1  A    between atoms: C2_2  and  C3_3 
REMARK    2  A    between atoms: C3_3  and  C4_4 
REMARK    3  A    between atoms: C3_3  and  C5_7 
REMARK    4  A    between atoms: C5_7  and  O3_8 
REMARK    5  A    between atoms: C6_10  and  O4_11 
REMARK    6  A    between atoms: C8_14  and  O5_15 
REMARK    7  A    between atoms: C9_17  and  C10_18 
REMARK    8  A    between atoms: C10_18  and  C11_19 
REMARK    9  A    between atoms: C11_19  and  C12_20 
REMARK   10  A    between atoms: C12_20  and  C13_21 
REMARK   11  A    between atoms: C16_24  and  O6_25 
REMARK   12  A    between atoms: O6_25  and  C17_26 
REMARK   13  A    between atoms: C20_30  and  O8_31 
REMARK   14  A    between atoms: C21_33  and  O9_34 
REMARK   15  A    between atoms: C22_36  and  O10_37 
ROOT
HETATM    1  C5  UNL     1     -11.815  75.837 119.550  1.00  0.00     0.123 C 
HETATM    2  C6  UNL     1     -11.925  76.515 120.870  1.00  0.00     0.158 C 
HETATM    3  C7  UNL     1     -11.060  77.790 120.766  1.00  0.00     0.067 C 
HETATM    4  C8  UNL     1      -9.643  77.263 120.635  1.00  0.00     0.127 C 
HETATM    5  C9  UNL     1      -9.427  76.418 119.454  1.00  0.00     0.047 C 
HETATM    6  C16 UNL     1     -10.471  75.275 119.309  1.00  0.00     0.169 C 
ENDROOT
BRANCH   6   7
HETATM    7  O6  UNL     1     -10.030  74.260 120.111  1.00  0.00    -0.350 OA
BRANCH   7   8
HETATM    8  C17 UNL     1      -9.723  73.102 119.412  1.00  0.00     0.292 C 
HETATM    9  O7  UNL     1      -8.362  73.037 119.096  1.00  0.00    -0.351 OA
HETATM   10  C18 UNL     1      -8.180  72.204 118.005  1.00  0.00     0.152 C 
HETATM   11  C19 UNL     1      -6.703  71.888 117.885  1.00  0.00     0.042 C 
HETATM   12  C20 UNL     1      -9.036  70.979 118.025  1.00  0.00     0.178 C 
HETATM   13  C21 UNL     1      -9.657  70.675 119.350  1.00  0.00     0.183 C 
HETATM   14  C22 UNL     1     -10.057  71.868 120.161  1.00  0.00     0.204 C 
BRANCH  12  15
HETATM   15  O8  UNL     1      -8.207  69.887 117.698  1.00  0.00    -0.390 OA
ATOM     16  H8  UNL     1      -7.626  69.744 118.435  1.00  0.00     0.210 HD
ENDBRANCH  12  15
BRANCH  13  17
HETATM   17  O9  UNL     1     -10.828  69.909 119.136  1.00  0.00    -0.390 OA
ATOM     18  H9  UNL     1     -11.584  70.445 119.341  1.00  0.00     0.210 HD
ENDBRANCH  13  17
BRANCH  14  19
HETATM   19  O10 UNL     1      -9.313  71.902 121.365  1.00  0.00    -0.388 OA
ATOM     20  H10 UNL     1      -9.914  72.159 122.054  1.00  0.00     0.210 HD
ENDBRANCH  14  19
ENDBRANCH   7   8
ENDBRANCH   6   7
BRANCH   1  21
HETATM   21  C3  UNL     1     -12.992  74.999 119.205  1.00  0.00     0.126 C 
BRANCH  21  22
HETATM   22  C2  UNL     1     -12.876  74.437 117.795  1.00  0.00     0.014 C 
HETATM   23  C1  UNL     1     -14.229  74.536 117.123  1.00  0.00     0.006 C 
ENDBRANCH  21  22
BRANCH  21  24
HETATM   24  C4  UNL     1     -13.529  74.081 120.184  1.00  0.00     0.180 C 
HETATM   25  O1  UNL     1     -13.153  72.913 120.323  1.00  0.00    -0.648 OA
HETATM   26  O2  UNL     1     -14.554  74.483 121.072  1.00  0.00    -0.648 OA
ENDBRANCH  21  24
ENDBRANCH   1  21
BRANCH   1  27
HETATM   27  O3  UNL     1     -11.924  76.926 118.588  1.00  0.00    -0.384 OA
ATOM     28  H3  UNL     1     -12.423  76.523 117.888  1.00  0.00     0.210 HD
ENDBRANCH   1  27
BRANCH   5  29
HETATM   29  C10 UNL     1      -9.098  77.020 118.148  1.00  0.00     0.010 C 
BRANCH  29  30
HETATM   30  C11 UNL     1      -9.067  76.084 116.970  1.00  0.00     0.001 C 
BRANCH  30  31
HETATM   31  C12 UNL     1      -9.136  76.897 115.666  1.00  0.00     0.004 C 
BRANCH  31  32
HETATM   32  C13 UNL     1     -10.540  77.318 115.363  1.00  0.00    -0.023 C 
HETATM   33  C14 UNL     1     -11.368  76.232 114.746  1.00  0.00     0.009 C 
HETATM   34  C15 UNL     1     -10.603  78.526 114.462  1.00  0.00     0.009 C 
ENDBRANCH  31  32
ENDBRANCH  30  31
ENDBRANCH  29  30
ENDBRANCH   5  29
BRANCH   2  35
HETATM   35  O4  UNL     1     -11.323  75.805 121.933  1.00  0.00    -0.392 OA
ATOM     36  H4  UNL     1     -11.332  76.269 122.763  1.00  0.00     0.210 HD
ENDBRANCH   2  35
BRANCH   4  37
HETATM   37  O5  UNL     1      -8.730  78.261 120.766  1.00  0.00    -0.395 OA
ATOM     38  H5  UNL     1      -8.352  78.497 119.927  1.00  0.00     0.210 HD
ENDBRANCH   4  37
TORSDOF 15
ENDMDL
MODEL 3
REMARK VINA RESULT: -6.552470616      2.070      5.483
REMARK  15 active torsions:
REMARK  status: ('A' for Active; 'I' for Inactive)
REMARK    1  A    between atoms: C2_2  and  C3_3 
REMARK    2  A    between atoms: C3_3  and  C4_4 
REMARK    3  A    between atoms: C3_3  and  C5_7 
REMARK    4  A    between atoms: C5_7  and  O3_8 
REMARK    5  A    between atoms: C6_10  and  O4_11 
REMARK    6  A    between atoms: C8_14  and  O5_15 
REMARK    7  A    between atoms: C9_17  and  C10_18 
REMARK    8  A    between atoms: C10_18  and  C11_19 
REMARK    9  A    between atoms: C11_19  and  C12_20 
REMARK   10  A    between atoms: C12_20  and  C13_21 
REMARK   11  A    between atoms: C16_24  and  O6_25 
REMARK   12  A    between atoms: O6_25  and  C17_26 
REMARK   13  A    between atoms: C20_30  and  O8_31 
REMARK   14  A    between atoms: C21_33  and  O9_34 
REMARK   15  A    between atoms: C22_36  and  O10_37 
ROOT
HETATM    1  C5  UNL     1     -11.351  75.937 119.561  1.00  0.00     0.123 C 
HETATM    2  C6  UNL     1     -10.761  76.022 120.924  1.00  0.00     0.158 C 
HETATM    3  C7  UNL     1      -9.579  77.010 120.814  1.00  0.00     0.067 C 
HETATM    4  C8  UNL     1      -8.582  76.292 119.924  1.00  0.00     0.127 C 
HETATM    5  C9  UNL     1      -9.093  75.979 118.585  1.00  0.00     0.047 C 
HETATM    6  C16 UNL     1     -10.466  75.248 118.600  1.00  0.00     0.169 C 
ENDROOT
BRANCH   6   7
HETATM    7  O6  UNL     1     -10.186  73.925 118.798  1.00  0.00    -0.350 OA
BRANCH   7   8
HETATM    8  C17 UNL     1      -9.962  73.228 117.620  1.00  0.00     0.292 C 
HETATM    9  O7  UNL     1      -9.488  71.936 117.868  1.00  0.00    -0.351 OA
HETATM   10  C18 UNL     1      -8.800  71.476 116.758  1.00  0.00     0.152 C 
HETATM   11  C19 UNL     1      -8.584  69.983 116.913  1.00  0.00     0.042 C 
HETATM   12  C20 UNL     1      -9.436  71.837 115.455  1.00  0.00     0.178 C 
HETATM   13  C21 UNL     1     -10.854  72.300 115.560  1.00  0.00     0.183 C 
HETATM   14  C22 UNL     1     -11.180  73.094 116.786  1.00  0.00     0.204 C 
BRANCH  12  15
HETATM   15  O8  UNL     1      -9.440  70.674 114.657  1.00  0.00    -0.390 OA
ATOM     16  H8  UNL     1     -10.349  70.442 114.504  1.00  0.00     0.210 HD
ENDBRANCH  12  15
BRANCH  13  17
HETATM   17  O9  UNL     1     -11.146  73.120 114.445  1.00  0.00    -0.390 OA
ATOM     18  H9  UNL     1     -11.321  74.002 114.753  1.00  0.00     0.210 HD
ENDBRANCH  13  17
BRANCH  14  19
HETATM   19  O10 UNL     1     -12.139  72.405 117.565  1.00  0.00    -0.388 OA
ATOM     20  H10 UNL     1     -12.558  73.049 118.122  1.00  0.00     0.210 HD
ENDBRANCH  14  19
ENDBRANCH   7   8
ENDBRANCH   6   7
BRANCH   1  21
HETATM   21  C3  UNL     1     -12.795  75.587 119.552  1.00  0.00     0.126 C 
BRANCH  21  22
HETATM   22  C2  UNL     1     -13.368  75.643 118.142  1.00  0.00     0.014 C 
HETATM   23  C1  UNL     1     -14.668  76.419 118.180  1.00  0.00     0.006 C 
ENDBRANCH  21  22
BRANCH  21  24
HETATM   24  C4  UNL     1     -13.270  74.486 120.358  1.00  0.00     0.180 C 
HETATM   25  O1  UNL     1     -12.833  73.333 120.289  1.00  0.00    -0.648 OA
HETATM   26  O2  UNL     1     -14.301  74.673 121.308  1.00  0.00    -0.648 OA
ENDBRANCH  21  24
ENDBRANCH   1  21
BRANCH   1  27
HETATM   27  O3  UNL     1     -11.370  77.319 119.100  1.00  0.00    -0.384 OA
ATOM     28  H3  UNL     1     -11.271  77.217 118.161  1.00  0.00     0.210 HD
ENDBRANCH   1  27
BRANCH   5  29
HETATM   29  C10 UNL     1      -9.023  76.975 117.500  1.00  0.00     0.010 C 
BRANCH  29  30
HETATM   30  C11 UNL     1      -8.961  76.433 116.097  1.00  0.00     0.001 C 
BRANCH  30  31
HETATM   31  C12 UNL     1      -9.351  77.538 115.101  1.00  0.00     0.004 C 
BRANCH  31  32
HETATM   32  C13 UNL     1     -10.805  77.874 115.206  1.00  0.00    -0.023 C 
HETATM   33  C14 UNL     1     -11.707  76.707 114.941  1.00  0.00     0.009 C 
HETATM   34  C15 UNL     1     -11.209  78.999 114.286  1.00  0.00     0.009 C 
ENDBRANCH  31  32
ENDBRANCH  30  31
ENDBRANCH  29  30
ENDBRANCH   5  29
BRANCH   2  35
HETATM   35  O4  UNL     1     -10.143  74.829 121.359  1.00  0.00    -0.392 OA
ATOM     36  H4  UNL     1     -10.724  74.078 121.385  1.00  0.00     0.210 HD
ENDBRANCH   2  35
BRANCH   4  37
HETATM   37  O5  UNL     1      -7.381  76.928 119.914  1.00  0.00    -0.395 OA
ATOM     38  H5  UNL     1      -7.376  77.649 119.296  1.00  0.00     0.210 HD
ENDBRANCH   4  37
TORSDOF 15
ENDMDL
MODEL 4
REMARK VINA RESULT: -6.550868332      2.063      5.684
REMARK  15 active torsions:
REMARK  status: ('A' for Active; 'I' for Inactive)
REMARK    1  A    between atoms: C2_2  and  C3_3 
REMARK    2  A    between atoms: C3_3  and  C4_4 
REMARK    3  A    between atoms: C3_3  and  C5_7 
REMARK    4  A    between atoms: C5_7  and  O3_8 
REMARK    5  A    between atoms: C6_10  and  O4_11 
REMARK    6  A    between atoms: C8_14  and  O5_15 
REMARK    7  A    between atoms: C9_17  and  C10_18 
REMARK    8  A    between atoms: C10_18  and  C11_19 
REMARK    9  A    between atoms: C11_19  and  C12_20 
REMARK   10  A    between atoms: C12_20  and  C13_21 
REMARK   11  A    between atoms: C16_24  and  O6_25 
REMARK   12  A    between atoms: O6_25  and  C17_26 
REMARK   13  A    between atoms: C20_30  and  O8_31 
REMARK   14  A    between atoms: C21_33  and  O9_34 
REMARK   15  A    between atoms: C22_36  and  O10_37 
ROOT
HETATM    1  C5  UNL     1     -11.318  76.757 119.532  1.00  0.00     0.123 C 
HETATM    2  C6  UNL     1     -10.784  76.741 120.921  1.00  0.00     0.158 C 
HETATM    3  C7  UNL     1      -9.426  77.473 120.863  1.00  0.00     0.067 C 
HETATM    4  C8  UNL     1      -8.553  76.560 120.023  1.00  0.00     0.127 C 
HETATM    5  C9  UNL     1      -9.055  76.336 118.663  1.00  0.00     0.047 C 
HETATM    6  C16 UNL     1     -10.545  75.893 118.617  1.00  0.00     0.169 C 
ENDROOT
BRANCH   6   7
HETATM    7  O6  UNL     1     -10.543  74.544 118.832  1.00  0.00    -0.350 OA
BRANCH   7   8
HETATM    8  C17 UNL     1     -10.190  73.808 117.710  1.00  0.00     0.292 C 
HETATM    9  O7  UNL     1      -9.058  73.021 117.945  1.00  0.00    -0.351 OA
HETATM   10  C18 UNL     1      -8.440  72.730 116.742  1.00  0.00     0.152 C 
HETATM   11  C19 UNL     1      -7.429  71.626 116.976  1.00  0.00     0.042 C 
HETATM   12  C20 UNL     1      -9.388  72.421 115.629  1.00  0.00     0.178 C 
HETATM   13  C21 UNL     1     -10.786  72.123 116.067  1.00  0.00     0.183 C 
HETATM   14  C22 UNL     1     -11.267  72.899 117.252  1.00  0.00     0.204 C 
BRANCH  12  15
HETATM   15  O8  UNL     1      -8.905  71.267 114.978  1.00  0.00    -0.390 OA
ATOM     16  H8  UNL     1      -8.871  70.573 115.625  1.00  0.00     0.210 HD
ENDBRANCH  12  15
BRANCH  13  17
HETATM   17  O9  UNL     1     -11.667  72.412 114.997  1.00  0.00    -0.390 OA
ATOM     18  H9  UNL     1     -11.246  72.164 114.182  1.00  0.00     0.210 HD
ENDBRANCH  13  17
BRANCH  14  19
HETATM   19  O10 UNL     1     -11.547  72.018 118.323  1.00  0.00    -0.388 OA
ATOM     20  H10 UNL     1     -12.313  72.358 118.769  1.00  0.00     0.210 HD
ENDBRANCH  14  19
ENDBRANCH   7   8
ENDBRANCH   6   7
BRANCH   1  21
HETATM   21  C3  UNL     1     -12.800  76.701 119.457  1.00  0.00     0.126 C 
BRANCH  21  22
HETATM   22  C2  UNL     1     -13.272  76.462 118.029  1.00  0.00     0.014 C 
HETATM   23  C1  UNL     1     -14.217  77.580 117.640  1.00  0.00     0.006 C 
ENDBRANCH  21  22
BRANCH  21  24
HETATM   24  C4  UNL     1     -13.542  75.985 120.470  1.00  0.00     0.180 C 
HETATM   25  O1  UNL     1     -14.372  76.505 121.223  1.00  0.00    -0.648 OA
HETATM   26  O2  UNL     1     -13.351  74.598 120.666  1.00  0.00    -0.648 OA
ENDBRANCH  21  24
ENDBRANCH   1  21
BRANCH   1  27
HETATM   27  O3  UNL     1     -11.040  78.109 119.066  1.00  0.00    -0.384 OA
ATOM     28  H3  UNL     1     -10.102  78.080 118.920  1.00  0.00     0.210 HD
ENDBRANCH   1  27
BRANCH   5  29
HETATM   29  C10 UNL     1      -8.739  77.285 117.579  1.00  0.00     0.010 C 
BRANCH  29  30
HETATM   30  C11 UNL     1      -8.713  76.721 116.183  1.00  0.00     0.001 C 
BRANCH  30  31
HETATM   31  C12 UNL     1      -9.366  77.720 115.213  1.00  0.00     0.004 C 
BRANCH  31  32
HETATM   32  C13 UNL     1     -10.858  77.670 115.306  1.00  0.00    -0.023 C 
HETATM   33  C14 UNL     1     -11.441  76.373 114.834  1.00  0.00     0.009 C 
HETATM   34  C15 UNL     1     -11.525  78.789 114.546  1.00  0.00     0.009 C 
ENDBRANCH  31  32
ENDBRANCH  30  31
ENDBRANCH  29  30
ENDBRANCH   5  29
BRANCH   2  35
HETATM   35  O4  UNL     1     -10.436  75.455 121.389  1.00  0.00    -0.392 OA
ATOM     36  H4  UNL     1      -9.505  75.334 121.534  1.00  0.00     0.210 HD
ENDBRANCH   2  35
BRANCH   4  37
HETATM   37  O5  UNL     1      -7.249  76.943 120.067  1.00  0.00    -0.395 OA
ATOM     38  H5  UNL     1      -6.994  77.394 119.271  1.00  0.00     0.210 HD
ENDBRANCH   4  37
TORSDOF 15
ENDMDL
MODEL 5
REMARK VINA RESULT: -6.520620079      2.429      5.770
REMARK  15 active torsions:
REMARK  status: ('A' for Active; 'I' for Inactive)
REMARK    1  A    between atoms: C2_2  and  C3_3 
REMARK    2  A    between atoms: C3_3  and  C4_4 
REMARK    3  A    between atoms: C3_3  and  C5_7 
REMARK    4  A    between atoms: C5_7  and  O3_8 
REMARK    5  A    between atoms: C6_10  and  O4_11 
REMARK    6  A    between atoms: C8_14  and  O5_15 
REMARK    7  A    between atoms: C9_17  and  C10_18 
REMARK    8  A    between atoms: C10_18  and  C11_19 
REMARK    9  A    between atoms: C11_19  and  C12_20 
REMARK   10  A    between atoms: C12_20  and  C13_21 
REMARK   11  A    between atoms: C16_24  and  O6_25 
REMARK   12  A    between atoms: O6_25  and  C17_26 
REMARK   13  A    between atoms: C20_30  and  O8_31 
REMARK   14  A    between atoms: C21_33  and  O9_34 
REMARK   15  A    between atoms: C22_36  and  O10_37 
ROOT
HETATM    1  C5  UNL     1     -13.200  74.621 119.125  1.00  0.00     0.123 C 
HETATM    2  C6  UNL     1     -13.993  75.070 120.300  1.00  0.00     0.158 C 
HETATM    3  C7  UNL     1     -13.520  76.507 120.608  1.00  0.00     0.067 C 
HETATM    4  C8  UNL     1     -12.084  76.331 121.063  1.00  0.00     0.127 C 
HETATM    5  C9  UNL     1     -11.207  75.726 120.054  1.00  0.00     0.047 C 
HETATM    6  C16 UNL     1     -11.775  74.410 119.448  1.00  0.00     0.169 C 
ENDROOT
BRANCH   6   7
HETATM    7  O6  UNL     1     -11.441  73.418 120.327  1.00  0.00    -0.350 OA
BRANCH   7   8
HETATM    8  C17 UNL     1     -10.696  72.400 119.750  1.00  0.00     0.292 C 
HETATM    9  O7  UNL     1      -9.762  72.899 118.836  1.00  0.00    -0.351 OA
HETATM   10  C18 UNL     1      -9.426  71.908 117.930  1.00  0.00     0.152 C 
HETATM   11  C19 UNL     1      -8.194  72.352 117.168  1.00  0.00     0.042 C 
HETATM   12  C20 UNL     1      -9.273  70.553 118.541  1.00  0.00     0.178 C 
HETATM   13  C21 UNL     1      -9.147  70.551 120.030  1.00  0.00     0.183 C 
HETATM   14  C22 UNL     1      -9.947  71.595 120.743  1.00  0.00     0.204 C 
BRANCH  12  15
HETATM   15  O8  UNL     1      -8.084  69.996 118.026  1.00  0.00    -0.390 OA
ATOM     16  H8  UNL     1      -8.194  69.052 118.024  1.00  0.00     0.210 HD
ENDBRANCH  12  15
BRANCH  13  17
HETATM   17  O9  UNL     1      -9.577  69.294 120.519  1.00  0.00    -0.390 OA
ATOM     18  H9  UNL     1     -10.425  69.402 120.932  1.00  0.00     0.210 HD
ENDBRANCH  13  17
BRANCH  14  19
HETATM   19  O10 UNL     1      -9.081  72.483 121.425  1.00  0.00    -0.388 OA
ATOM     20  H10 UNL     1      -8.314  71.983 121.675  1.00  0.00     0.210 HD
ENDBRANCH  14  19
ENDBRANCH   7   8
ENDBRANCH   6   7
BRANCH   1  21
HETATM   21  C3  UNL     1     -13.883  73.598 118.292  1.00  0.00     0.126 C 
BRANCH  21  22
HETATM   22  C2  UNL     1     -12.989  73.123 117.156  1.00  0.00     0.014 C 
HETATM   23  C1  UNL     1     -13.805  73.090 115.881  1.00  0.00     0.006 C 
ENDBRANCH  21  22
BRANCH  21  24
HETATM   24  C4  UNL     1     -14.661  72.560 118.930  1.00  0.00     0.180 C 
HETATM   25  O1  UNL     1     -15.860  72.357 118.715  1.00  0.00    -0.648 OA
HETATM   26  O2  UNL     1     -14.072  71.687 119.873  1.00  0.00    -0.648 OA
ENDBRANCH  21  24
ENDBRANCH   1  21
BRANCH   1  27
HETATM   27  O3  UNL     1     -13.196  75.780 118.241  1.00  0.00    -0.384 OA
ATOM     28  H3  UNL     1     -13.867  76.328 118.631  1.00  0.00     0.210 HD
ENDBRANCH   1  27
BRANCH   5  29
HETATM   29  C10 UNL     1     -10.557  76.558 119.024  1.00  0.00     0.010 C 
BRANCH  29  30
HETATM   30  C11 UNL     1      -9.233  76.066 118.505  1.00  0.00     0.001 C 
BRANCH  30  31
HETATM   31  C12 UNL     1      -9.287  75.968 116.971  1.00  0.00     0.004 C 
BRANCH  31  32
HETATM   32  C13 UNL     1      -9.238  77.323 116.340  1.00  0.00    -0.023 C 
HETATM   33  C14 UNL     1     -10.136  77.458 115.147  1.00  0.00     0.009 C 
HETATM   34  C15 UNL     1      -7.843  77.722 115.925  1.00  0.00     0.009 C 
ENDBRANCH  31  32
ENDBRANCH  30  31
ENDBRANCH  29  30
ENDBRANCH   5  29
BRANCH   2  35
HETATM   35  O4  UNL     1     -13.701  74.373 121.493  1.00  0.00    -0.392 OA
ATOM     36  H4  UNL     1     -14.266  73.626 121.654  1.00  0.00     0.210 HD
ENDBRANCH   2  35
BRANCH   4  37
HETATM   37  O5  UNL     1     -11.589  77.479 121.597  1.00  0.00    -0.395 OA
ATOM     38  H5  UNL     1     -11.306  77.350 122.494  1.00  0.00     0.210 HD
ENDBRANCH   4  37
TORSDOF 15
ENDMDL
