MODEL 1
REMARK VINA RESULT: -7.116579124      0.000      0.000
REMARK  16 active torsions:
REMARK  status: ('A' for Active; 'I' for Inactive)
REMARK    1  A    between atoms: C5_5  and  C6_6 
REMARK    2  A    between atoms: C6_6  and  C8_8 
REMARK    3  A    between atoms: C9_9  and  C10_10 
REMARK    4  A    between atoms: C10_10  and  O1_11 
REMARK    5  A    between atoms: C10_10  and  C11_13 
REMARK    6  A    between atoms: C11_13  and  C13_15 
REMARK    7  A    between atoms: C13_15  and  O2_16 
REMARK    8  A    between atoms: C13_15  and  C14_18 
REMARK    9  A    between atoms: C14_18  and  O3_20 
REMARK   10  A    between atoms: C14_18  and  S1_22 
REMARK   11  A    between atoms: S1_22  and  C16_23 
REMARK   12  A    between atoms: C17_25  and  C18_26 
REMARK   13  A    between atoms: C18_26  and  O5_27 
REMARK   14  A    between atoms: C19_29  and  O6_30 
REMARK   15  A    between atoms: C20_32  and  O7_33 
REMARK   16  A    between atoms: C21_35  and  O8_36 
ROOT
HETATM    1  C14 UNL     1      -9.700  71.335 119.907  1.00  0.00     0.131 C 
HETATM    2  C15 UNL     1      -9.310  70.383 120.988  1.00  0.00     0.061 C 
ENDROOT
BRANCH   1   3
HETATM    3  C13 UNL     1      -9.088  71.148 118.588  1.00  0.00     0.169 C 
BRANCH   3   4
HETATM    4  C11 UNL     1      -9.707  70.213 117.620  1.00  0.00     0.046 C 
HETATM    5  C12 UNL     1      -9.934  70.765 116.251  1.00  0.00     0.015 C 
BRANCH   4   6
HETATM    6  C10 UNL     1      -9.060  68.836 117.588  1.00  0.00     0.147 C 
BRANCH   6   7
HETATM    7  C9  UNL     1      -9.331  68.161 116.272  1.00  0.00     0.001 C 
HETATM    8  C8  UNL     1      -8.580  67.177 115.821  1.00  0.00    -0.021 C 
BRANCH   8   9
HETATM    9  C6  UNL     1      -8.788  66.471 114.542  1.00  0.00     0.033 C 
HETATM   10  C7  UNL     1     -10.091  65.705 114.550  1.00  0.00     0.017 C 
BRANCH   9  11
HETATM   11  C5  UNL     1      -7.617  65.620 114.181  1.00  0.00     0.129 C 
HETATM   12  C4  UNL     1      -7.369  64.561 115.234  1.00  0.00     0.035 C 
HETATM   13  C3  UNL     1      -5.950  64.135 114.911  1.00  0.00     0.034 C 
HETATM   14  C2  UNL     1      -5.458  65.319 114.107  1.00  0.00     0.118 C 
HETATM   15  C1  UNL     1      -5.191  64.980 112.676  1.00  0.00     0.039 C 
HETATM   16  O9  UNL     1      -6.406  66.307 114.224  1.00  0.00    -0.380 OA
ENDBRANCH   9  11
ENDBRANCH   8   9
ENDBRANCH   6   7
BRANCH   6  17
HETATM   17  O1  UNL     1      -9.631  67.993 118.545  1.00  0.00    -0.391 OA
ATOM     18  H1  UNL     1      -8.925  67.799 119.149  1.00  0.00     0.210 HD
ENDBRANCH   6  17
ENDBRANCH   4   6
ENDBRANCH   3   4
BRANCH   3  19
HETATM   19  O2  UNL     1      -7.758  70.685 118.759  1.00  0.00    -0.391 OA
ATOM     20  H2  UNL     1      -7.569  70.796 119.683  1.00  0.00     0.210 HD
ENDBRANCH   3  19
ENDBRANCH   1   3
BRANCH   1  21
HETATM   21  O3  UNL     1     -11.102  71.271 119.826  1.00  0.00    -0.377 OA
ATOM     22  H3  UNL     1     -11.478  70.989 120.651  1.00  0.00     0.211 HD
ENDBRANCH   1  21
BRANCH   1  23
HETATM   23  S1  UNL     1      -9.316  72.990 120.537  1.00  0.00    -0.095 SA
BRANCH  23  24
HETATM   24  C16 UNL     1      -9.402  74.283 119.303  1.00  0.00     0.217 C 
HETATM   25  O4  UNL     1      -8.789  75.425 119.764  1.00  0.00    -0.363 OA
HETATM   26  C17 UNL     1      -9.446  76.163 120.704  1.00  0.00     0.178 C 
HETATM   27  C19 UNL     1     -10.731  75.638 121.211  1.00  0.00     0.180 C 
HETATM   28  C20 UNL     1     -11.626  75.068 120.134  1.00  0.00     0.181 C 
HETATM   29  C21 UNL     1     -10.824  74.638 118.925  1.00  0.00     0.188 C 
BRANCH  26  30
HETATM   30  C18 UNL     1      -9.544  77.588 120.159  1.00  0.00     0.198 C 
BRANCH  30  31
HETATM   31  O5  UNL     1      -9.137  78.493 121.124  1.00  0.00    -0.398 OA
ATOM     32  H5  UNL     1      -9.807  79.155 121.251  1.00  0.00     0.209 HD
ENDBRANCH  30  31
ENDBRANCH  26  30
BRANCH  27  33
HETATM   33  O6  UNL     1     -11.439  76.644 121.856  1.00  0.00    -0.390 OA
ATOM     34  H6  UNL     1     -11.699  76.358 122.723  1.00  0.00     0.210 HD
ENDBRANCH  27  33
BRANCH  28  35
HETATM   35  O7  UNL     1     -12.273  73.960 120.678  1.00  0.00    -0.390 OA
ATOM     36  H7  UNL     1     -12.748  73.537 119.972  1.00  0.00     0.210 HD
ENDBRANCH  28  35
BRANCH  29  37
HETATM   37  O8  UNL     1     -11.446  73.620 118.214  1.00  0.00    -0.389 OA
ATOM     38  H8  UNL     1     -12.393  73.699 118.231  1.00  0.00     0.210 HD
ENDBRANCH  29  37
ENDBRANCH  23  24
ENDBRANCH   1  23
TORSDOF 16
ENDMDL
MODEL 2
REMARK VINA RESULT: -6.977425416      0.985      1.274
REMARK  16 active torsions:
REMARK  status: ('A' for Active; 'I' for Inactive)
REMARK    1  A    between atoms: C5_5  and  C6_6 
REMARK    2  A    between atoms: C6_6  and  C8_8 
REMARK    3  A    between atoms: C9_9  and  C10_10 
REMARK    4  A    between atoms: C10_10  and  O1_11 
REMARK    5  A    between atoms: C10_10  and  C11_13 
REMARK    6  A    between atoms: C11_13  and  C13_15 
REMARK    7  A    between atoms: C13_15  and  O2_16 
REMARK    8  A    between atoms: C13_15  and  C14_18 
REMARK    9  A    between atoms: C14_18  and  O3_20 
REMARK   10  A    between atoms: C14_18  and  S1_22 
REMARK   11  A    between atoms: S1_22  and  C16_23 
REMARK   12  A    between atoms: C17_25  and  C18_26 
REMARK   13  A    between atoms: C18_26  and  O5_27 
REMARK   14  A    between atoms: C19_29  and  O6_30 
REMARK   15  A    between atoms: C20_32  and  O7_33 
REMARK   16  A    between atoms: C21_35  and  O8_36 
ROOT
HETATM    1  C14 UNL     1      -9.698  71.641 119.685  1.00  0.00     0.131 C 
HETATM    2  C15 UNL     1      -9.333  70.949 120.957  1.00  0.00     0.061 C 
ENDROOT
BRANCH   1   3
HETATM    3  C13 UNL     1      -9.058  71.169 118.453  1.00  0.00     0.169 C 
BRANCH   3   4
HETATM    4  C11 UNL     1      -9.754  70.176 117.601  1.00  0.00     0.046 C 
HETATM    5  C12 UNL     1     -10.060  70.627 116.211  1.00  0.00     0.015 C 
BRANCH   4   6
HETATM    6  C10 UNL     1      -9.132  68.788 117.636  1.00  0.00     0.147 C 
BRANCH   6   7
HETATM    7  C9  UNL     1      -9.438  68.046 116.365  1.00  0.00     0.001 C 
HETATM    8  C8  UNL     1      -8.561  67.250 115.788  1.00  0.00    -0.021 C 
BRANCH   8   9
HETATM    9  C6  UNL     1      -8.794  66.493 114.543  1.00  0.00     0.033 C 
HETATM   10  C7  UNL     1     -10.093  65.722 114.612  1.00  0.00     0.017 C 
BRANCH   9  11
HETATM   11  C5  UNL     1      -7.628  65.634 114.189  1.00  0.00     0.129 C 
HETATM   12  C4  UNL     1      -7.383  64.583 115.251  1.00  0.00     0.035 C 
HETATM   13  C3  UNL     1      -5.966  64.148 114.931  1.00  0.00     0.034 C 
HETATM   14  C2  UNL     1      -5.470  65.323 114.116  1.00  0.00     0.118 C 
HETATM   15  C1  UNL     1      -5.206  64.970 112.688  1.00  0.00     0.039 C 
HETATM   16  O9  UNL     1      -6.414  66.316 114.225  1.00  0.00    -0.380 OA
ENDBRANCH   9  11
ENDBRANCH   8   9
ENDBRANCH   6   7
BRANCH   6  17
HETATM   17  O1  UNL     1      -9.701  68.010 118.648  1.00  0.00    -0.391 OA
ATOM     18  H1  UNL     1      -8.961  67.637 119.112  1.00  0.00     0.210 HD
ENDBRANCH   6  17
ENDBRANCH   4   6
ENDBRANCH   3   4
BRANCH   3  19
HETATM   19  O2  UNL     1      -7.810  70.577 118.778  1.00  0.00    -0.391 OA
ATOM     20  H2  UNL     1      -7.168  71.270 118.675  1.00  0.00     0.210 HD
ENDBRANCH   3  19
ENDBRANCH   1   3
BRANCH   1  21
HETATM   21  O3  UNL     1     -11.097  71.559 119.591  1.00  0.00    -0.377 OA
ATOM     22  H3  UNL     1     -11.373  70.676 119.375  1.00  0.00     0.211 HD
ENDBRANCH   1  21
BRANCH   1  23
HETATM   23  S1  UNL     1      -9.320  73.394 119.945  1.00  0.00    -0.095 SA
BRANCH  23  24
HETATM   24  C16 UNL     1     -10.077  74.492 118.753  1.00  0.00     0.217 C 
HETATM   25  O4  UNL     1      -9.137  75.350 118.230  1.00  0.00    -0.363 OA
HETATM   26  C17 UNL     1      -8.702  76.373 119.019  1.00  0.00     0.178 C 
HETATM   27  C19 UNL     1      -9.215  76.435 120.404  1.00  0.00     0.180 C 
HETATM   28  C20 UNL     1     -10.695  76.150 120.520  1.00  0.00     0.181 C 
HETATM   29  C21 UNL     1     -11.189  75.327 119.349  1.00  0.00     0.188 C 
BRANCH  26  30
HETATM   30  C18 UNL     1      -8.919  77.665 118.231  1.00  0.00     0.198 C 
BRANCH  30  31
HETATM   31  O5  UNL     1      -7.759  78.011 117.561  1.00  0.00    -0.398 OA
ATOM     32  H5  UNL     1      -7.771  77.647 116.683  1.00  0.00     0.209 HD
ENDBRANCH  30  31
ENDBRANCH  26  30
BRANCH  27  33
HETATM   33  O6  UNL     1      -8.987  77.694 120.943  1.00  0.00    -0.390 OA
ATOM     34  H6  UNL     1      -8.479  77.622 121.742  1.00  0.00     0.210 HD
ENDBRANCH  27  33
BRANCH  28  35
HETATM   35  O7  UNL     1     -10.887  75.435 121.700  1.00  0.00    -0.390 OA
ATOM     36  H7  UNL     1     -10.672  74.528 121.518  1.00  0.00     0.210 HD
ENDBRANCH  28  35
BRANCH  29  37
HETATM   37  O8  UNL     1     -12.301  74.562 119.674  1.00  0.00    -0.389 OA
ATOM     38  H8  UNL     1     -13.115  75.016 119.489  1.00  0.00     0.210 HD
ENDBRANCH  29  37
ENDBRANCH  23  24
ENDBRANCH   1  23
TORSDOF 16
ENDMDL
MODEL 3
REMARK VINA RESULT: -6.929706079      3.928      8.264
REMARK  16 active torsions:
REMARK  status: ('A' for Active; 'I' for Inactive)
REMARK    1  A    between atoms: C5_5  and  C6_6 
REMARK    2  A    between atoms: C6_6  and  C8_8 
REMARK    3  A    between atoms: C9_9  and  C10_10 
REMARK    4  A    between atoms: C10_10  and  O1_11 
REMARK    5  A    between atoms: C10_10  and  C11_13 
REMARK    6  A    between atoms: C11_13  and  C13_15 
REMARK    7  A    between atoms: C13_15  and  O2_16 
REMARK    8  A    between atoms: C13_15  and  C14_18 
REMARK    9  A    between atoms: C14_18  and  O3_20 
REMARK   10  A    between atoms: C14_18  and  S1_22 
REMARK   11  A    between atoms: S1_22  and  C16_23 
REMARK   12  A    between atoms: C17_25  and  C18_26 
REMARK   13  A    between atoms: C18_26  and  O5_27 
REMARK   14  A    between atoms: C19_29  and  O6_30 
REMARK   15  A    between atoms: C20_32  and  O7_33 
REMARK   16  A    between atoms: C21_35  and  O8_36 
ROOT
HETATM    1  C14 UNL     1     -11.988  75.351 120.356  1.00  0.00     0.131 C 
HETATM    2  C15 UNL     1     -13.417  75.122 120.722  1.00  0.00     0.061 C 
ENDROOT
BRANCH   1   3
HETATM    3  C13 UNL     1     -11.694  76.469 119.453  1.00  0.00     0.169 C 
BRANCH   3   4
HETATM    4  C11 UNL     1     -11.299  77.780 120.018  1.00  0.00     0.046 C 
HETATM    5  C12 UNL     1     -12.014  78.182 121.266  1.00  0.00     0.015 C 
BRANCH   4   6
HETATM    6  C10 UNL     1      -9.795  77.981 120.123  1.00  0.00     0.147 C 
BRANCH   6   7
HETATM    7  C9  UNL     1      -9.088  77.224 119.032  1.00  0.00     0.001 C 
HETATM    8  C8  UNL     1      -9.278  77.492 117.756  1.00  0.00    -0.021 C 
BRANCH   8   9
HETATM    9  C6  UNL     1      -8.620  76.791 116.637  1.00  0.00     0.033 C 
HETATM   10  C7  UNL     1      -7.761  77.740 115.831  1.00  0.00     0.017 C 
BRANCH   9  11
HETATM   11  C5  UNL     1      -9.599  76.042 115.798  1.00  0.00     0.129 C 
HETATM   12  C4  UNL     1     -10.284  76.961 114.809  1.00  0.00     0.035 C 
HETATM   13  C3  UNL     1     -11.488  76.133 114.403  1.00  0.00     0.034 C 
HETATM   14  C2  UNL     1     -11.574  75.150 115.551  1.00  0.00     0.118 C 
HETATM   15  C1  UNL     1     -11.285  73.744 115.137  1.00  0.00     0.039 C 
HETATM   16  O9  UNL     1     -10.699  75.583 116.519  1.00  0.00    -0.380 OA
ENDBRANCH   9  11
ENDBRANCH   8   9
ENDBRANCH   6   7
BRANCH   6  17
HETATM   17  O1  UNL     1      -9.298  77.438 121.311  1.00  0.00    -0.391 OA
ATOM     18  H1  UNL     1      -9.471  76.507 121.241  1.00  0.00     0.210 HD
ENDBRANCH   6  17
ENDBRANCH   4   6
ENDBRANCH   3   4
BRANCH   3  19
HETATM   19  O2  UNL     1     -12.837  76.731 118.656  1.00  0.00    -0.391 OA
ATOM     20  H2  UNL     1     -12.722  76.210 117.870  1.00  0.00     0.210 HD
ENDBRANCH   3  19
ENDBRANCH   1   3
BRANCH   1  21
HETATM   21  O3  UNL     1     -11.297  75.489 121.572  1.00  0.00    -0.377 OA
ATOM     22  H3  UNL     1     -10.548  74.907 121.606  1.00  0.00     0.211 HD
ENDBRANCH   1  21
BRANCH   1  23
HETATM   23  S1  UNL     1     -11.405  73.798 119.627  1.00  0.00    -0.095 SA
BRANCH  23  24
HETATM   24  C16 UNL     1      -9.624  73.655 119.535  1.00  0.00     0.217 C 
HETATM   25  O4  UNL     1      -9.252  73.074 118.345  1.00  0.00    -0.363 OA
HETATM   26  C17 UNL     1      -9.450  71.732 118.204  1.00  0.00     0.178 C 
HETATM   27  C19 UNL     1     -10.120  71.019 119.312  1.00  0.00     0.180 C 
HETATM   28  C20 UNL     1      -9.640  71.435 120.684  1.00  0.00     0.181 C 
HETATM   29  C21 UNL     1      -9.043  72.826 120.659  1.00  0.00     0.188 C 
BRANCH  26  30
HETATM   30  C18 UNL     1      -8.102  71.124 117.816  1.00  0.00     0.198 C 
BRANCH  30  31
HETATM   31  O5  UNL     1      -8.297  70.018 117.008  1.00  0.00    -0.398 OA
ATOM     32  H5  UNL     1      -7.460  69.631 116.779  1.00  0.00     0.209 HD
ENDBRANCH  30  31
ENDBRANCH  26  30
BRANCH  27  33
HETATM   33  O6  UNL     1      -9.917  69.651 119.193  1.00  0.00    -0.390 OA
ATOM     34  H6  UNL     1      -9.809  69.259 120.051  1.00  0.00     0.210 HD
ENDBRANCH  27  33
BRANCH  28  35
HETATM   35  O7  UNL     1     -10.746  71.422 121.531  1.00  0.00    -0.390 OA
ATOM     36  H7  UNL     1     -10.653  70.670 122.104  1.00  0.00     0.210 HD
ENDBRANCH  28  35
BRANCH  29  37
HETATM   37  O8  UNL     1      -9.145  73.465 121.888  1.00  0.00    -0.389 OA
ATOM     38  H8  UNL     1      -8.367  73.344 122.420  1.00  0.00     0.210 HD
ENDBRANCH  29  37
ENDBRANCH  23  24
ENDBRANCH   1  23
TORSDOF 16
ENDMDL
MODEL 4
REMARK VINA RESULT: -6.884342377      4.386     12.124
REMARK  16 active torsions:
REMARK  status: ('A' for Active; 'I' for Inactive)
REMARK    1  A    between atoms: C5_5  and  C6_6 
REMARK    2  A    between atoms: C6_6  and  C8_8 
REMARK    3  A    between atoms: C9_9  and  C10_10 
REMARK    4  A    between atoms: C10_10  and  O1_11 
REMARK    5  A    between atoms: C10_10  and  C11_13 
REMARK    6  A    between atoms: C11_13  and  C13_15 
REMARK    7  A    between atoms: C13_15  and  O2_16 
REMARK    8  A    between atoms: C13_15  and  C14_18 
REMARK    9  A    between atoms: C14_18  and  O3_20 
REMARK   10  A    between atoms: C14_18  and  S1_22 
REMARK   11  A    between atoms: S1_22  and  C16_23 
REMARK   12  A    between atoms: C17_25  and  C18_26 
REMARK   13  A    between atoms: C18_26  and  O5_27 
REMARK   14  A    between atoms: C19_29  and  O6_30 
REMARK   15  A    between atoms: C20_32  and  O7_33 
REMARK   16  A    between atoms: C21_35  and  O8_36 
ROOT
HETATM    1  C14 UNL     1      -9.806  75.843 119.923  1.00  0.00     0.131 C 
HETATM    2  C15 UNL     1      -8.847  76.740 120.633  1.00  0.00     0.061 C 
ENDROOT
BRANCH   1   3
HETATM    3  C13 UNL     1     -11.214  75.903 120.329  1.00  0.00     0.169 C 
BRANCH   3   4
HETATM    4  C11 UNL     1     -12.041  77.066 119.929  1.00  0.00     0.046 C 
HETATM    5  C12 UNL     1     -13.041  76.802 118.853  1.00  0.00     0.015 C 
BRANCH   4   6
HETATM    6  C10 UNL     1     -12.639  77.831 121.100  1.00  0.00     0.147 C 
BRANCH   6   7
HETATM    7  C9  UNL     1     -13.745  78.733 120.625  1.00  0.00     0.001 C 
HETATM    8  C8  UNL     1     -14.564  79.338 121.460  1.00  0.00    -0.021 C 
BRANCH   8   9
HETATM    9  C6  UNL     1     -15.668  80.234 121.064  1.00  0.00     0.033 C 
HETATM   10  C7  UNL     1     -15.349  80.949 119.771  1.00  0.00     0.017 C 
BRANCH   9  11
HETATM   11  C5  UNL     1     -16.049  81.166 122.164  1.00  0.00     0.129 C 
HETATM   12  C4  UNL     1     -15.315  82.484 122.039  1.00  0.00     0.035 C 
HETATM   13  C3  UNL     1     -15.495  83.069 123.426  1.00  0.00     0.034 C 
HETATM   14  C2  UNL     1     -15.830  81.831 124.230  1.00  0.00     0.118 C 
HETATM   15  C1  UNL     1     -17.230  81.840 124.755  1.00  0.00     0.039 C 
HETATM   16  O9  UNL     1     -15.603  80.748 123.416  1.00  0.00    -0.380 OA
ENDBRANCH   9  11
ENDBRANCH   8   9
ENDBRANCH   6   7
BRANCH   6  17
HETATM   17  O1  UNL     1     -11.697  78.693 121.669  1.00  0.00    -0.391 OA
ATOM     18  H1  UNL     1     -11.041  78.119 122.047  1.00  0.00     0.210 HD
ENDBRANCH   6  17
ENDBRANCH   4   6
ENDBRANCH   3   4
BRANCH   3  19
HETATM   19  O2  UNL     1     -11.289  75.858 121.744  1.00  0.00    -0.391 OA
ATOM     20  H2  UNL     1     -11.555  74.970 121.954  1.00  0.00     0.210 HD
ENDBRANCH   3  19
ENDBRANCH   1   3
BRANCH   1  21
HETATM   21  O3  UNL     1      -9.662  76.131 118.556  1.00  0.00    -0.377 OA
ATOM     22  H3  UNL     1      -9.118  75.482 118.126  1.00  0.00     0.211 HD
ENDBRANCH   1  21
BRANCH   1  23
HETATM   23  S1  UNL     1      -9.171  74.160 120.145  1.00  0.00    -0.095 SA
BRANCH  23  24
HETATM   24  C16 UNL     1     -10.356  72.874 119.766  1.00  0.00     0.217 C 
HETATM   25  O4  UNL     1      -9.913  71.661 120.241  1.00  0.00    -0.363 OA
HETATM   26  C17 UNL     1      -8.902  71.045 119.564  1.00  0.00     0.178 C 
HETATM   27  C19 UNL     1      -8.309  71.764 118.417  1.00  0.00     0.180 C 
HETATM   28  C20 UNL     1      -9.326  72.443 117.529  1.00  0.00     0.181 C 
HETATM   29  C21 UNL     1     -10.609  72.728 118.282  1.00  0.00     0.188 C 
BRANCH  26  30
HETATM   30  C18 UNL     1      -9.396  69.641 119.213  1.00  0.00     0.198 C 
BRANCH  30  31
HETATM   31  O5  UNL     1      -9.656  68.928 120.369  1.00  0.00    -0.398 OA
ATOM     32  H5  UNL     1     -10.512  69.161 120.709  1.00  0.00     0.209 HD
ENDBRANCH  30  31
ENDBRANCH  26  30
BRANCH  27  33
HETATM   33  O6  UNL     1      -7.580  70.885 117.626  1.00  0.00    -0.390 OA
ATOM     34  H6  UNL     1      -7.867  69.993 117.778  1.00  0.00     0.210 HD
ENDBRANCH  27  33
BRANCH  28  35
HETATM   35  O7  UNL     1      -8.765  73.644 117.100  1.00  0.00    -0.390 OA
ATOM     36  H7  UNL     1      -7.866  73.462 116.853  1.00  0.00     0.210 HD
ENDBRANCH  28  35
BRANCH  29  37
HETATM   37  O8  UNL     1     -11.296  73.815 117.758  1.00  0.00    -0.389 OA
ATOM     38  H8  UNL     1     -12.064  73.550 117.266  1.00  0.00     0.210 HD
ENDBRANCH  29  37
ENDBRANCH  23  24
ENDBRANCH   1  23
TORSDOF 16
ENDMDL
MODEL 5
REMARK VINA RESULT: -6.810284671      4.562     12.201
REMARK  16 active torsions:
REMARK  status: ('A' for Active; 'I' for Inactive)
REMARK    1  A    between atoms: C5_5  and  C6_6 
REMARK    2  A    between atoms: C6_6  and  C8_8 
REMARK    3  A    between atoms: C9_9  and  C10_10 
REMARK    4  A    between atoms: C10_10  and  O1_11 
REMARK    5  A    between atoms: C10_10  and  C11_13 
REMARK    6  A    between atoms: C11_13  and  C13_15 
REMARK    7  A    between atoms: C13_15  and  O2_16 
REMARK    8  A    between atoms: C13_15  and  C14_18 
REMARK    9  A    between atoms: C14_18  and  O3_20 
REMARK   10  A    between atoms: C14_18  and  S1_22 
REMARK   11  A    between atoms: S1_22  and  C16_23 
REMARK   12  A    between atoms: C17_25  and  C18_26 
REMARK   13  A    between atoms: C18_26  and  O5_27 
REMARK   14  A    between atoms: C19_29  and  O6_30 
REMARK   15  A    between atoms: C20_32  and  O7_33 
REMARK   16  A    between atoms: C21_35  and  O8_36 
ROOT
HETATM    1  C14 UNL     1     -10.810  76.145 119.827  1.00  0.00     0.131 C 
HETATM    2  C15 UNL     1      -9.526  76.729 120.315  1.00  0.00     0.061 C 
ENDROOT
BRANCH   1   3
HETATM    3  C13 UNL     1     -11.850  75.873 120.825  1.00  0.00     0.169 C 
BRANCH   3   4
HETATM    4  C11 UNL     1     -13.132  76.615 120.765  1.00  0.00     0.046 C 
HETATM    5  C12 UNL     1     -14.363  75.769 120.776  1.00  0.00     0.015 C 
BRANCH   4   6
HETATM    6  C10 UNL     1     -13.220  77.777 121.743  1.00  0.00     0.147 C 
BRANCH   6   7
HETATM    7  C9  UNL     1     -14.525  78.506 121.573  1.00  0.00     0.001 C 
HETATM    8  C8  UNL     1     -14.579  79.774 121.221  1.00  0.00    -0.021 C 
BRANCH   8   9
HETATM    9  C6  UNL     1     -15.822  80.548 121.037  1.00  0.00     0.033 C 
HETATM   10  C7  UNL     1     -15.779  81.346 119.753  1.00  0.00     0.017 C 
BRANCH   9  11
HETATM   11  C5  UNL     1     -16.135  81.387 122.230  1.00  0.00     0.129 C 
HETATM   12  C4  UNL     1     -15.289  82.643 122.250  1.00  0.00     0.035 C 
HETATM   13  C3  UNL     1     -15.437  83.089 123.692  1.00  0.00     0.034 C 
HETATM   14  C2  UNL     1     -15.887  81.806 124.356  1.00  0.00     0.118 C 
HETATM   15  C1  UNL     1     -17.288  81.880 124.874  1.00  0.00     0.039 C 
HETATM   16  O9  UNL     1     -15.743  80.800 123.431  1.00  0.00    -0.380 OA
ENDBRANCH   9  11
ENDBRANCH   8   9
ENDBRANCH   6   7
BRANCH   6  17
HETATM   17  O1  UNL     1     -12.240  78.735 121.471  1.00  0.00    -0.391 OA
ATOM     18  H1  UNL     1     -12.251  78.831 120.527  1.00  0.00     0.210 HD
ENDBRANCH   6  17
ENDBRANCH   4   6
ENDBRANCH   3   4
BRANCH   3  19
HETATM   19  O2  UNL     1     -11.327  76.130 122.118  1.00  0.00    -0.391 OA
ATOM     20  H2  UNL     1     -10.502  76.577 121.972  1.00  0.00     0.210 HD
ENDBRANCH   3  19
ENDBRANCH   1   3
BRANCH   1  21
HETATM   21  O3  UNL     1     -11.279  77.021 118.835  1.00  0.00    -0.377 OA
ATOM     22  H3  UNL     1     -10.563  77.507 118.442  1.00  0.00     0.211 HD
ENDBRANCH   1  21
BRANCH   1  23
HETATM   23  S1  UNL     1     -10.366  74.613 118.967  1.00  0.00    -0.095 SA
BRANCH  23  24
HETATM   24  C16 UNL     1      -8.860  73.850 119.558  1.00  0.00     0.217 C 
HETATM   25  O4  UNL     1      -8.276  73.106 118.559  1.00  0.00    -0.363 OA
HETATM   26  C17 UNL     1      -8.852  71.913 118.237  1.00  0.00     0.178 C 
HETATM   27  C19 UNL     1     -10.104  71.547 118.933  1.00  0.00     0.180 C 
HETATM   28  C20 UNL     1     -10.089  71.848 120.414  1.00  0.00     0.181 C 
HETATM   29  C21 UNL     1      -9.091  72.937 120.743  1.00  0.00     0.188 C 
BRANCH  26  30
HETATM   30  C18 UNL     1      -7.760  70.849 118.349  1.00  0.00     0.198 C 
BRANCH  30  31
HETATM   31  O5  UNL     1      -6.524  71.410 118.082  1.00  0.00    -0.398 OA
ATOM     32  H5  UNL     1      -5.917  70.737 117.796  1.00  0.00     0.209 HD
ENDBRANCH  30  31
ENDBRANCH  26  30
BRANCH  27  33
HETATM   33  O6  UNL     1     -10.356  70.190 118.782  1.00  0.00    -0.390 OA
ATOM     34  H6  UNL     1     -10.776  69.846 119.562  1.00  0.00     0.210 HD
ENDBRANCH  27  33
BRANCH  28  35
HETATM   35  O7  UNL     1     -11.370  72.273 120.762  1.00  0.00    -0.390 OA
ATOM     36  H7  UNL     1     -11.987  71.721 120.296  1.00  0.00     0.210 HD
ENDBRANCH  28  35
BRANCH  29  37
HETATM   37  O8  UNL     1      -9.440  73.643 121.887  1.00  0.00    -0.389 OA
ATOM     38  H8  UNL     1      -9.574  74.567 121.711  1.00  0.00     0.210 HD
ENDBRANCH  29  37
ENDBRANCH  23  24
ENDBRANCH   1  23
TORSDOF 16
ENDMDL
