MODEL 1
REMARK VINA RESULT: -7.016036380      0.000      0.000
REMARK  15 active torsions:
REMARK  status: ('A' for Active; 'I' for Inactive)
REMARK    1  A    between atoms: C2_2  and  O1_3 
REMARK    2  A    between atoms: O1_3  and  C3_4 
REMARK       I    between atoms: C3_4  and  N1_6 
REMARK    3  A    between atoms: N1_6  and  C4_7 
REMARK    4  A    between atoms: C4_7  and  C5_8 
REMARK    5  A    between atoms: C4_7  and  C6_11 
REMARK    6  A    between atoms: C5_8  and  O3_9 
REMARK    7  A    between atoms: C7_12  and  C8_13 
REMARK    8  A    between atoms: C8_13  and  O4_14 
REMARK    9  A    between atoms: C8_13  and  N2_16 
REMARK   10  A    between atoms: N2_16  and  C10_18 
REMARK   11  A    between atoms: C10_18  and  C11_19 
REMARK   12  A    between atoms: C10_18  and  C17_25 
REMARK   13  A    between atoms: C20_29  and  O6_30 
REMARK   14  A    between atoms: C21_32  and  O7_33 
REMARK   15  A    between atoms: C22_35  and  O8_36 
ROOT
HETATM    1  C10 UNL     1     -10.278  75.136 118.479  1.00  0.00     0.117 C 
ENDROOT
BRANCH   1   2
HETATM    2  N2  UNL     1     -10.101  75.851 119.671  1.00  0.00    -0.382 N 
HETATM    3  C9  UNL     1      -9.097  76.760 119.952  1.00  0.00     0.146 C 
BRANCH   2   4
HETATM    4  C8  UNL     1     -11.428  76.109 120.302  1.00  0.00     0.239 C 
BRANCH   4   5
HETATM    5  C7  UNL     1     -11.733  77.555 120.227  1.00  0.00     0.025 C 
HETATM    6  C6  UNL     1     -12.466  78.376 121.120  1.00  0.00     0.014 C 
BRANCH   6   7
HETATM    7  C4  UNL     1     -13.922  78.100 121.528  1.00  0.00     0.215 C 
BRANCH   7   8
HETATM    8  N1  UNL     1     -14.702  79.170 121.155  1.00  0.00    -0.379 NA
HETATM    9  C3  UNL     1     -15.497  80.260 120.773  1.00  0.00     0.435 C 
HETATM   10  O2  UNL     1     -16.273  80.266 119.738  1.00  0.00    -0.221 OA
BRANCH   9  11
HETATM   11  O1  UNL     1     -15.575  81.419 121.399  1.00  0.00    -0.293 OA
BRANCH  11  12
HETATM   12  C2  UNL     1     -15.741  82.534 121.956  1.00  0.00     0.177 C 
HETATM   13  C1  UNL     1     -14.712  82.799 123.067  1.00  0.00     0.034 C 
ENDBRANCH  11  12
ENDBRANCH   9  11
ENDBRANCH   7   8
BRANCH   7  14
HETATM   14  C5  UNL     1     -13.875  78.182 123.111  1.00  0.00     0.207 C 
BRANCH  14  15
HETATM   15  O3  UNL     1     -12.715  77.571 123.540  1.00  0.00    -0.397 OA
ATOM     16  H3  UNL     1     -12.789  76.639 123.370  1.00  0.00     0.209 HD
ENDBRANCH  14  15
ENDBRANCH   7  14
ENDBRANCH   6   7
ENDBRANCH   4   5
BRANCH   4  17
HETATM   17  O4  UNL     1     -11.166  75.764 121.650  1.00  0.00    -0.374 OA
ATOM     18  H4  UNL     1     -10.226  75.740 121.785  1.00  0.00     0.212 HD
ENDBRANCH   4  17
ENDBRANCH   2   4
ENDBRANCH   1   2
BRANCH   1  19
HETATM   19  C11 UNL     1      -9.338  73.967 118.431  1.00  0.00     0.011 C 
HETATM   20  C12 UNL     1      -9.548  73.010 117.315  1.00  0.00     0.007 C 
HETATM   21  C13 UNL     1      -8.241  72.308 117.044  1.00  0.00     0.000 C 
HETATM   22  C14 UNL     1      -7.860  71.508 118.239  1.00  0.00     0.000 C 
HETATM   23  C15 UNL     1      -8.614  71.821 119.467  1.00  0.00     0.000 C 
HETATM   24  C16 UNL     1      -8.917  73.302 119.675  1.00  0.00     0.007 C 
ENDBRANCH   1  19
BRANCH   1  25
HETATM   25  C17 UNL     1     -10.146  76.003 117.248  1.00  0.00     0.176 C 
HETATM   26  O5  UNL     1      -8.944  76.013 116.609  1.00  0.00    -0.374 OA
HETATM   27  C18 UNL     1      -8.845  76.967 115.623  1.00  0.00     0.149 C 
HETATM   28  C19 UNL     1      -7.556  77.732 115.842  1.00  0.00     0.042 C 
HETATM   29  C20 UNL     1      -9.928  77.976 115.528  1.00  0.00     0.178 C 
HETATM   30  C21 UNL     1     -11.320  77.398 115.620  1.00  0.00     0.180 C 
HETATM   31  C22 UNL     1     -11.285  75.999 116.309  1.00  0.00     0.180 C 
BRANCH  29  32
HETATM   32  O6  UNL     1      -9.811  78.594 114.285  1.00  0.00    -0.390 OA
ATOM     33  H6  UNL     1      -9.923  77.921 113.623  1.00  0.00     0.210 HD
ENDBRANCH  29  32
BRANCH  30  34
HETATM   34  O7  UNL     1     -12.072  78.211 116.459  1.00  0.00    -0.390 OA
ATOM     35  H7  UNL     1     -12.657  77.657 116.961  1.00  0.00     0.210 HD
ENDBRANCH  30  34
BRANCH  31  36
HETATM   36  O8  UNL     1     -11.163  75.143 115.210  1.00  0.00    -0.390 OA
ATOM     37  H8  UNL     1     -10.819  75.537 114.416  1.00  0.00     0.210 HD
ENDBRANCH  31  36
ENDBRANCH   1  25
TORSDOF 15
ENDMDL
MODEL 2
REMARK VINA RESULT: -7.012394997      3.867      6.673
REMARK  15 active torsions:
REMARK  status: ('A' for Active; 'I' for Inactive)
REMARK    1  A    between atoms: C2_2  and  O1_3 
REMARK    2  A    between atoms: O1_3  and  C3_4 
REMARK       I    between atoms: C3_4  and  N1_6 
REMARK    3  A    between atoms: N1_6  and  C4_7 
REMARK    4  A    between atoms: C4_7  and  C5_8 
REMARK    5  A    between atoms: C4_7  and  C6_11 
REMARK    6  A    between atoms: C5_8  and  O3_9 
REMARK    7  A    between atoms: C7_12  and  C8_13 
REMARK    8  A    between atoms: C8_13  and  O4_14 
REMARK    9  A    between atoms: C8_13  and  N2_16 
REMARK   10  A    between atoms: N2_16  and  C10_18 
REMARK   11  A    between atoms: C10_18  and  C11_19 
REMARK   12  A    between atoms: C10_18  and  C17_25 
REMARK   13  A    between atoms: C20_29  and  O6_30 
REMARK   14  A    between atoms: C21_32  and  O7_33 
REMARK   15  A    between atoms: C22_35  and  O8_36 
ROOT
HETATM    1  C10 UNL     1      -9.992  72.943 118.456  1.00  0.00     0.117 C 
ENDROOT
BRANCH   1   2
HETATM    2  N2  UNL     1     -10.715  73.004 119.654  1.00  0.00    -0.382 N 
HETATM    3  C9  UNL     1     -11.571  72.041 120.157  1.00  0.00     0.146 C 
BRANCH   2   4
HETATM    4  C8  UNL     1      -9.958  73.809 120.657  1.00  0.00     0.239 C 
BRANCH   4   5
HETATM    5  C7  UNL     1      -8.864  74.536 119.976  1.00  0.00     0.025 C 
HETATM    6  C6  UNL     1      -8.670  75.929 119.800  1.00  0.00     0.014 C 
BRANCH   6   7
HETATM    7  C4  UNL     1      -9.693  76.849 119.115  1.00  0.00     0.215 C 
BRANCH   7   8
HETATM    8  N1  UNL     1      -9.179  77.274 117.912  1.00  0.00    -0.379 NA
HETATM    9  C3  UNL     1      -8.653  77.708 116.687  1.00  0.00     0.435 C 
HETATM   10  O2  UNL     1      -7.399  77.946 116.478  1.00  0.00    -0.221 OA
BRANCH   9  11
HETATM   11  O1  UNL     1      -9.342  77.932 115.584  1.00  0.00    -0.293 OA
BRANCH  11  12
HETATM   12  C2  UNL     1     -10.070  78.188 114.592  1.00  0.00     0.177 C 
HETATM   13  C1  UNL     1     -11.451  78.731 114.996  1.00  0.00     0.034 C 
ENDBRANCH  11  12
ENDBRANCH   9  11
ENDBRANCH   7   8
BRANCH   7  14
HETATM   14  C5  UNL     1      -9.679  78.147 120.028  1.00  0.00     0.207 C 
BRANCH  14  15
HETATM   15  O3  UNL     1      -8.806  77.929 121.073  1.00  0.00    -0.397 OA
ATOM     16  H3  UNL     1      -8.908  78.638 121.698  1.00  0.00     0.209 HD
ENDBRANCH  14  15
ENDBRANCH   7  14
ENDBRANCH   6   7
ENDBRANCH   4   5
BRANCH   4  17
HETATM   17  O4  UNL     1      -9.400  72.792 121.467  1.00  0.00    -0.374 OA
ATOM     18  H4  UNL     1      -9.511  71.955 121.030  1.00  0.00     0.212 HD
ENDBRANCH   4  17
ENDBRANCH   2   4
ENDBRANCH   1   2
BRANCH   1  19
HETATM   19  C11 UNL     1     -10.776  73.574 117.344  1.00  0.00     0.011 C 
HETATM   20  C12 UNL     1      -9.977  74.211 116.266  1.00  0.00     0.007 C 
HETATM   21  C13 UNL     1     -10.809  74.227 115.009  1.00  0.00     0.000 C 
HETATM   22  C14 UNL     1     -12.007  75.081 115.227  1.00  0.00     0.000 C 
HETATM   23  C15 UNL     1     -12.279  75.429 116.635  1.00  0.00     0.000 C 
HETATM   24  C16 UNL     1     -12.018  74.307 117.635  1.00  0.00     0.007 C 
ENDBRANCH   1  19
BRANCH   1  25
HETATM   25  C17 UNL     1      -9.560  71.538 118.102  1.00  0.00     0.176 C 
HETATM   26  O5  UNL     1      -9.417  71.236 116.782  1.00  0.00    -0.374 OA
HETATM   27  C18 UNL     1      -9.214  69.898 116.535  1.00  0.00     0.149 C 
HETATM   28  C19 UNL     1     -10.186  69.471 115.454  1.00  0.00     0.042 C 
HETATM   29  C20 UNL     1      -9.393  68.953 117.665  1.00  0.00     0.178 C 
HETATM   30  C21 UNL     1      -8.738  69.398 118.950  1.00  0.00     0.180 C 
HETATM   31  C22 UNL     1      -8.499  70.939 118.936  1.00  0.00     0.180 C 
BRANCH  29  32
HETATM   32  O6  UNL     1      -8.808  67.745 117.290  1.00  0.00    -0.390 OA
ATOM     33  H6  UNL     1      -8.290  67.912 116.511  1.00  0.00     0.210 HD
ENDBRANCH  29  32
BRANCH  30  34
HETATM   34  O7  UNL     1      -9.627  69.165 119.992  1.00  0.00    -0.390 OA
ATOM     35  H7  UNL     1      -9.623  69.926 120.560  1.00  0.00     0.210 HD
ENDBRANCH  30  34
BRANCH  31  36
HETATM   36  O8  UNL     1      -7.202  71.022 118.421  1.00  0.00    -0.390 OA
ATOM     37  H8  UNL     1      -6.974  70.369 117.769  1.00  0.00     0.210 HD
ENDBRANCH  31  36
ENDBRANCH   1  25
TORSDOF 15
ENDMDL
MODEL 3
REMARK VINA RESULT: -6.916536614      2.215      4.333
REMARK  15 active torsions:
REMARK  status: ('A' for Active; 'I' for Inactive)
REMARK    1  A    between atoms: C2_2  and  O1_3 
REMARK    2  A    between atoms: O1_3  and  C3_4 
REMARK       I    between atoms: C3_4  and  N1_6 
REMARK    3  A    between atoms: N1_6  and  C4_7 
REMARK    4  A    between atoms: C4_7  and  C5_8 
REMARK    5  A    between atoms: C4_7  and  C6_11 
REMARK    6  A    between atoms: C5_8  and  O3_9 
REMARK    7  A    between atoms: C7_12  and  C8_13 
REMARK    8  A    between atoms: C8_13  and  O4_14 
REMARK    9  A    between atoms: C8_13  and  N2_16 
REMARK   10  A    between atoms: N2_16  and  C10_18 
REMARK   11  A    between atoms: C10_18  and  C11_19 
REMARK   12  A    between atoms: C10_18  and  C17_25 
REMARK   13  A    between atoms: C20_29  and  O6_30 
REMARK   14  A    between atoms: C21_32  and  O7_33 
REMARK   15  A    between atoms: C22_35  and  O8_36 
ROOT
HETATM    1  C10 UNL     1      -9.662  75.345 119.335  1.00  0.00     0.117 C 
ENDROOT
BRANCH   1   2
HETATM    2  N2  UNL     1     -10.981  75.730 119.607  1.00  0.00    -0.382 N 
HETATM    3  C9  UNL     1     -12.134  75.112 119.158  1.00  0.00     0.146 C 
BRANCH   2   4
HETATM    4  C8  UNL     1     -11.050  76.369 120.953  1.00  0.00     0.239 C 
BRANCH   4   5
HETATM    5  C7  UNL     1     -11.481  77.777 120.805  1.00  0.00     0.025 C 
HETATM    6  C6  UNL     1     -12.442  78.515 121.541  1.00  0.00     0.014 C 
BRANCH   6   7
HETATM    7  C4  UNL     1     -13.911  78.091 121.685  1.00  0.00     0.215 C 
BRANCH   7   8
HETATM    8  N1  UNL     1     -14.719  79.125 121.272  1.00  0.00    -0.379 NA
HETATM    9  C3  UNL     1     -15.542  80.178 120.849  1.00  0.00     0.435 C 
HETATM   10  O2  UNL     1     -16.382  80.095 119.868  1.00  0.00    -0.221 OA
BRANCH   9  11
HETATM   11  O1  UNL     1     -15.586  81.387 121.377  1.00  0.00    -0.293 OA
BRANCH  11  12
HETATM   12  C2  UNL     1     -15.710  82.508 121.931  1.00  0.00     0.177 C 
HETATM   13  C1  UNL     1     -14.651  82.750 123.019  1.00  0.00     0.034 C 
ENDBRANCH  11  12
ENDBRANCH   9  11
ENDBRANCH   7   8
BRANCH   7  14
HETATM   14  C5  UNL     1     -14.119  78.035 123.257  1.00  0.00     0.207 C 
BRANCH  14  15
HETATM   15  O3  UNL     1     -13.864  79.290 123.770  1.00  0.00    -0.397 OA
ATOM     16  H3  UNL     1     -12.928  79.368 123.912  1.00  0.00     0.209 HD
ENDBRANCH  14  15
ENDBRANCH   7  14
ENDBRANCH   6   7
ENDBRANCH   4   5
BRANCH   4  17
HETATM   17  O4  UNL     1      -9.690  76.344 121.344  1.00  0.00    -0.374 OA
ATOM     18  H4  UNL     1      -9.190  75.868 120.690  1.00  0.00     0.212 HD
ENDBRANCH   4  17
ENDBRANCH   2   4
ENDBRANCH   1   2
BRANCH   1  19
HETATM   19  C11 UNL     1      -9.202  75.947 118.040  1.00  0.00     0.011 C 
HETATM   20  C12 UNL     1      -9.103  77.429 118.012  1.00  0.00     0.007 C 
HETATM   21  C13 UNL     1      -8.099  77.814 116.956  1.00  0.00     0.000 C 
HETATM   22  C14 UNL     1      -8.601  77.385 115.624  1.00  0.00     0.000 C 
HETATM   23  C15 UNL     1      -9.733  76.440 115.657  1.00  0.00     0.000 C 
HETATM   24  C16 UNL     1      -9.657  75.387 116.758  1.00  0.00     0.007 C 
ENDBRANCH   1  19
BRANCH   1  25
HETATM   25  C17 UNL     1      -9.472  73.846 119.347  1.00  0.00     0.176 C 
HETATM   26  O5  UNL     1      -8.250  73.361 118.994  1.00  0.00    -0.374 OA
HETATM   27  C18 UNL     1      -8.214  71.994 118.841  1.00  0.00     0.149 C 
HETATM   28  C19 UNL     1      -7.560  71.692 117.508  1.00  0.00     0.042 C 
HETATM   29  C20 UNL     1      -9.506  71.265 118.856  1.00  0.00     0.178 C 
HETATM   30  C21 UNL     1     -10.440  71.687 119.965  1.00  0.00     0.180 C 
HETATM   31  C22 UNL     1     -10.065  73.110 120.482  1.00  0.00     0.180 C 
BRANCH  29  32
HETATM   32  O6  UNL     1      -9.216  69.915 119.041  1.00  0.00    -0.390 OA
ATOM     33  H6  UNL     1      -8.519  69.862 119.685  1.00  0.00     0.210 HD
ENDBRANCH  29  32
BRANCH  30  34
HETATM   34  O7  UNL     1     -11.718  71.806 119.432  1.00  0.00    -0.390 OA
ATOM     35  H7  UNL     1     -11.637  72.071 118.524  1.00  0.00     0.210 HD
ENDBRANCH  30  34
BRANCH  31  36
HETATM   36  O8  UNL     1      -9.192  72.810 121.533  1.00  0.00    -0.390 OA
ATOM     37  H8  UNL     1      -8.395  73.325 121.567  1.00  0.00     0.210 HD
ENDBRANCH  31  36
ENDBRANCH   1  25
TORSDOF 15
ENDMDL
MODEL 4
REMARK VINA RESULT: -6.826596231      1.159      1.336
REMARK  15 active torsions:
REMARK  status: ('A' for Active; 'I' for Inactive)
REMARK    1  A    between atoms: C2_2  and  O1_3 
REMARK    2  A    between atoms: O1_3  and  C3_4 
REMARK       I    between atoms: C3_4  and  N1_6 
REMARK    3  A    between atoms: N1_6  and  C4_7 
REMARK    4  A    between atoms: C4_7  and  C5_8 
REMARK    5  A    between atoms: C4_7  and  C6_11 
REMARK    6  A    between atoms: C5_8  and  O3_9 
REMARK    7  A    between atoms: C7_12  and  C8_13 
REMARK    8  A    between atoms: C8_13  and  O4_14 
REMARK    9  A    between atoms: C8_13  and  N2_16 
REMARK   10  A    between atoms: N2_16  and  C10_18 
REMARK   11  A    between atoms: C10_18  and  C11_19 
REMARK   12  A    between atoms: C10_18  and  C17_25 
REMARK   13  A    between atoms: C20_29  and  O6_30 
REMARK   14  A    between atoms: C21_32  and  O7_33 
REMARK   15  A    between atoms: C22_35  and  O8_36 
ROOT
HETATM    1  C10 UNL     1     -10.211  74.951 118.288  1.00  0.00     0.117 C 
ENDROOT
BRANCH   1   2
HETATM    2  N2  UNL     1     -10.000  75.584 119.520  1.00  0.00    -0.382 N 
HETATM    3  C9  UNL     1      -8.924  76.380 119.870  1.00  0.00     0.146 C 
BRANCH   2   4
HETATM    4  C8  UNL     1     -11.312  75.932 120.137  1.00  0.00     0.239 C 
BRANCH   4   5
HETATM    5  C7  UNL     1     -11.180  77.200 120.888  1.00  0.00     0.025 C 
HETATM    6  C6  UNL     1     -12.065  77.802 121.817  1.00  0.00     0.014 C 
BRANCH   6   7
HETATM    7  C4  UNL     1     -13.524  78.159 121.492  1.00  0.00     0.215 C 
BRANCH   7   8
HETATM    8  N1  UNL     1     -13.982  79.063 122.422  1.00  0.00    -0.379 NA
HETATM    9  C3  UNL     1     -14.451  79.982 123.372  1.00  0.00     0.435 C 
HETATM   10  O2  UNL     1     -14.906  79.655 124.537  1.00  0.00    -0.221 OA
BRANCH   9  11
HETATM   11  O1  UNL     1     -14.494  81.293 123.224  1.00  0.00    -0.293 OA
BRANCH  11  12
HETATM   12  C2  UNL     1     -14.629  82.538 123.122  1.00  0.00     0.177 C 
HETATM   13  C1  UNL     1     -15.655  82.935 122.047  1.00  0.00     0.034 C 
ENDBRANCH  11  12
ENDBRANCH   9  11
ENDBRANCH   7   8
BRANCH   7  14
HETATM   14  C5  UNL     1     -14.306  76.821 121.828  1.00  0.00     0.207 C 
BRANCH  14  15
HETATM   15  O3  UNL     1     -14.556  76.795 123.184  1.00  0.00    -0.397 OA
ATOM     16  H3  UNL     1     -14.105  76.046 123.555  1.00  0.00     0.209 HD
ENDBRANCH  14  15
ENDBRANCH   7  14
ENDBRANCH   6   7
ENDBRANCH   4   5
BRANCH   4  17
HETATM   17  O4  UNL     1     -11.478  74.869 121.057  1.00  0.00    -0.374 OA
ATOM     18  H4  UNL     1     -12.183  74.307 120.755  1.00  0.00     0.212 HD
ENDBRANCH   4  17
ENDBRANCH   2   4
ENDBRANCH   1   2
BRANCH   1  19
HETATM   19  C11 UNL     1      -9.279  73.784 118.138  1.00  0.00     0.011 C 
HETATM   20  C12 UNL     1      -9.586  72.848 117.028  1.00  0.00     0.007 C 
HETATM   21  C13 UNL     1      -8.309  72.151 116.632  1.00  0.00     0.000 C 
HETATM   22  C14 UNL     1      -7.825  71.331 117.774  1.00  0.00     0.000 C 
HETATM   23  C15 UNL     1      -8.469  71.621 119.069  1.00  0.00     0.000 C 
HETATM   24  C16 UNL     1      -8.752  73.097 119.328  1.00  0.00     0.007 C 
ENDBRANCH   1  19
BRANCH   1  25
HETATM   25  C17 UNL     1     -10.105  75.898 117.115  1.00  0.00     0.176 C 
HETATM   26  O5  UNL     1      -8.908  75.977 116.473  1.00  0.00    -0.374 OA
HETATM   27  C18 UNL     1      -8.836  76.994 115.549  1.00  0.00     0.149 C 
HETATM   28  C19 UNL     1      -7.563  77.773 115.812  1.00  0.00     0.042 C 
HETATM   29  C20 UNL     1      -9.942  77.982 115.525  1.00  0.00     0.178 C 
HETATM   30  C21 UNL     1     -11.320  77.368 115.585  1.00  0.00     0.180 C 
HETATM   31  C22 UNL     1     -11.249  75.929 116.183  1.00  0.00     0.180 C 
BRANCH  29  32
HETATM   32  O6  UNL     1      -9.845  78.681 114.323  1.00  0.00    -0.390 OA
ATOM     33  H6  UNL     1     -10.694  78.631 113.898  1.00  0.00     0.210 HD
ENDBRANCH  29  32
BRANCH  30  34
HETATM   34  O7  UNL     1     -12.085  78.108 116.478  1.00  0.00    -0.390 OA
ATOM     35  H7  UNL     1     -11.573  78.243 117.266  1.00  0.00     0.210 HD
ENDBRANCH  30  34
BRANCH  31  36
HETATM   36  O8  UNL     1     -11.115  75.148 115.030  1.00  0.00    -0.390 OA
ATOM     37  H8  UNL     1     -10.271  74.728 114.912  1.00  0.00     0.210 HD
ENDBRANCH  31  36
ENDBRANCH   1  25
TORSDOF 15
ENDMDL
MODEL 5
REMARK VINA RESULT: -6.792254427      3.031      8.069
REMARK  15 active torsions:
REMARK  status: ('A' for Active; 'I' for Inactive)
REMARK    1  A    between atoms: C2_2  and  O1_3 
REMARK    2  A    between atoms: O1_3  and  C3_4 
REMARK       I    between atoms: C3_4  and  N1_6 
REMARK    3  A    between atoms: N1_6  and  C4_7 
REMARK    4  A    between atoms: C4_7  and  C5_8 
REMARK    5  A    between atoms: C4_7  and  C6_11 
REMARK    6  A    between atoms: C5_8  and  O3_9 
REMARK    7  A    between atoms: C7_12  and  C8_13 
REMARK    8  A    between atoms: C8_13  and  O4_14 
REMARK    9  A    between atoms: C8_13  and  N2_16 
REMARK   10  A    between atoms: N2_16  and  C10_18 
REMARK   11  A    between atoms: C10_18  and  C11_19 
REMARK   12  A    between atoms: C10_18  and  C17_25 
REMARK   13  A    between atoms: C20_29  and  O6_30 
REMARK   14  A    between atoms: C21_32  and  O7_33 
REMARK   15  A    between atoms: C22_35  and  O8_36 
ROOT
HETATM    1  C10 UNL     1     -11.152  75.442 119.257  1.00  0.00     0.117 C 
ENDROOT
BRANCH   1   2
HETATM    2  N2  UNL     1     -11.708  74.203 118.916  1.00  0.00    -0.382 N 
HETATM    3  C9  UNL     1     -11.972  73.734 117.641  1.00  0.00     0.146 C 
BRANCH   2   4
HETATM    4  C8  UNL     1     -11.321  73.182 119.933  1.00  0.00     0.239 C 
BRANCH   4   5
HETATM    5  C7  UNL     1      -9.849  73.029 119.937  1.00  0.00     0.025 C 
HETATM    6  C6  UNL     1      -8.934  73.020 118.855  1.00  0.00     0.014 C 
BRANCH   6   7
HETATM    7  C4  UNL     1      -9.022  72.040 117.676  1.00  0.00     0.215 C 
BRANCH   7   8
HETATM    8  N1  UNL     1      -9.247  70.773 118.162  1.00  0.00    -0.379 NA
HETATM    9  C3  UNL     1      -9.477  69.483 118.660  1.00  0.00     0.435 C 
HETATM   10  O2  UNL     1      -9.812  69.224 119.882  1.00  0.00    -0.221 OA
BRANCH   9  11
HETATM   11  O1  UNL     1      -9.391  68.360 117.971  1.00  0.00    -0.293 OA
BRANCH  11  12
HETATM   12  C2  UNL     1      -9.262  67.344 117.242  1.00  0.00     0.177 C 
HETATM   13  C1  UNL     1      -8.710  67.683 115.848  1.00  0.00     0.034 C 
ENDBRANCH  11  12
ENDBRANCH   9  11
ENDBRANCH   7   8
BRANCH   7  14
HETATM   14  C5  UNL     1      -7.532  71.992 117.134  1.00  0.00     0.207 C 
BRANCH  14  15
HETATM   15  O3  UNL     1      -7.539  72.391 115.814  1.00  0.00    -0.397 OA
ATOM     16  H3  UNL     1      -7.788  71.645 115.280  1.00  0.00     0.209 HD
ENDBRANCH  14  15
ENDBRANCH   7  14
ENDBRANCH   6   7
ENDBRANCH   4   5
BRANCH   4  17
HETATM   17  O4  UNL     1     -11.903  72.013 119.389  1.00  0.00    -0.374 OA
ATOM     18  H4  UNL     1     -12.844  72.134 119.333  1.00  0.00     0.212 HD
ENDBRANCH   4  17
ENDBRANCH   2   4
ENDBRANCH   1   2
BRANCH   1  19
HETATM   19  C11 UNL     1     -12.127  76.243 120.069  1.00  0.00     0.011 C 
HETATM   20  C12 UNL     1     -11.674  76.632 121.428  1.00  0.00     0.007 C 
HETATM   21  C13 UNL     1     -12.428  77.871 121.840  1.00  0.00     0.000 C 
HETATM   22  C14 UNL     1     -13.877  77.551 121.937  1.00  0.00     0.000 C 
HETATM   23  C15 UNL     1     -14.277  76.271 121.325  1.00  0.00     0.000 C 
HETATM   24  C16 UNL     1     -13.565  75.934 120.019  1.00  0.00     0.007 C 
ENDBRANCH   1  19
BRANCH   1  25
HETATM   25  C17 UNL     1     -10.664  76.218 118.055  1.00  0.00     0.176 C 
HETATM   26  O5  UNL     1     -11.391  77.301 117.665  1.00  0.00    -0.374 OA
HETATM   27  C18 UNL     1     -10.996  77.833 116.459  1.00  0.00     0.149 C 
HETATM   28  C19 UNL     1     -12.232  78.002 115.598  1.00  0.00     0.042 C 
HETATM   29  C20 UNL     1     -10.019  77.062 115.652  1.00  0.00     0.178 C 
HETATM   30  C21 UNL     1      -8.850  76.528 116.445  1.00  0.00     0.180 C 
HETATM   31  C22 UNL     1      -9.209  76.451 117.961  1.00  0.00     0.180 C 
BRANCH  29  32
HETATM   32  O6  UNL     1      -9.510  77.926 114.684  1.00  0.00    -0.390 OA
ATOM     33  H6  UNL     1     -10.171  78.589 114.522  1.00  0.00     0.210 HD
ENDBRANCH  29  32
BRANCH  30  34
HETATM   34  O7  UNL     1      -8.621  75.217 116.047  1.00  0.00    -0.390 OA
ATOM     35  H7  UNL     1      -9.450  74.754 116.058  1.00  0.00     0.210 HD
ENDBRANCH  30  34
BRANCH  31  36
HETATM   36  O8  UNL     1      -8.762  77.693 118.422  1.00  0.00    -0.390 OA
ATOM     37  H8  UNL     1      -8.653  77.770 119.363  1.00  0.00     0.210 HD
ENDBRANCH  31  36
ENDBRANCH   1  25
TORSDOF 15
ENDMDL
