MODEL 1
REMARK VINA RESULT: -7.269550641      0.000      0.000
REMARK  8 active torsions:
REMARK  status: ('A' for Active; 'I' for Inactive)
REMARK    1  A    between atoms: C3_5  and  N2_6 
REMARK    2  A    between atoms: C4_11  and  N4_12 
REMARK    3  A    between atoms: N4_12  and  C5_14 
REMARK    4  A    between atoms: C5_14  and  C6_15 
REMARK    5  A    between atoms: C6_15  and  C7_16 
REMARK    6  A    between atoms: C7_16  and  C8_17 
REMARK    7  A    between atoms: C8_17  and  C9_18 
REMARK    8  A    between atoms: C9_18  and  N5_19 
ROOT
HETATM    1  C1  UNL     1      36.531  39.712  65.565  1.00  0.00     0.069 C 
HETATM    2  C2  UNL     1      36.740  39.291  66.948  1.00  0.00     0.032 A 
HETATM    3  N1  UNL     1      35.957  39.740  67.937  1.00  0.00    -0.196 N 
ATOM      4  H1  UNL     1      35.199  40.388  67.725  1.00  0.00     0.184 HD
HETATM    5  C3  UNL     1      36.162  39.339  69.229  1.00  0.00     0.677 A 
HETATM    6  N3  UNL     1      37.151  38.484  69.554  1.00  0.00    -0.177 N 
ATOM      7  H3  UNL     1      37.287  38.198  70.523  1.00  0.00     0.186 HD
HETATM    8  C4  UNL     1      37.946  38.019  68.599  1.00  0.00     0.124 A 
HETATM    9  C15 UNL     1      37.743  38.424  67.274  1.00  0.00     0.005 A 
HETATM   10  C16 UNL     1      38.635  37.895  66.239  1.00  0.00     0.054 C 
ENDROOT
BRANCH   8  11
HETATM   11  N4  UNL     1      38.903  37.197  68.878  1.00  0.00    -0.375 N 
ATOM     12  H4  UNL     1      39.830  37.367  68.489  1.00  0.00     0.161 HD
BRANCH  11  13
HETATM   13  C5  UNL     1      38.699  36.052  69.719  1.00  0.00     0.121 C 
BRANCH  13  14
HETATM   14  C6  UNL     1      38.587  34.779  68.878  1.00  0.00     0.020 C 
BRANCH  14  15
HETATM   15  C7  UNL     1      37.142  34.424  68.837  1.00  0.00     0.003 C 
BRANCH  15  16
HETATM   16  C8  UNL     1      36.858  33.032  69.336  1.00  0.00     0.030 C 
BRANCH  16  17
HETATM   17  C9  UNL     1      35.830  32.389  68.480  1.00  0.00     0.272 C 
BRANCH  17  18
HETATM   18  N5  UNL     1      34.491  32.469  69.013  1.00  0.00     0.088 N 
HETATM   19  C10 UNL     1      34.339  31.862  70.312  1.00  0.00     0.272 C 
HETATM   20  C11 UNL     1      33.037  32.300  70.897  1.00  0.00     0.030 C 
HETATM   21  C12 UNL     1      31.917  31.737  70.054  1.00  0.00     0.003 C 
HETATM   22  C13 UNL     1      32.460  31.175  68.782  1.00  0.00     0.030 C 
HETATM   23  C14 UNL     1      33.475  32.030  68.102  1.00  0.00     0.272 C 
ENDBRANCH  17  18
ENDBRANCH  16  17
ENDBRANCH  15  16
ENDBRANCH  14  15
ENDBRANCH  13  14
ENDBRANCH  11  13
ENDBRANCH   8  11
BRANCH   5  24
HETATM   24  N2  UNL     1      35.374  39.806  70.147  1.00  0.00    -0.234 N 
ATOM     25  H22 UNL     1      34.460  39.381  70.305  1.00  0.00     0.174 HD
ATOM     26  H21 UNL     1      35.694  40.602  70.697  1.00  0.00     0.174 HD
ENDBRANCH   5  24
TORSDOF 8
ENDMDL
MODEL 2
REMARK VINA RESULT: -7.213814295      0.234      1.076
REMARK  8 active torsions:
REMARK  status: ('A' for Active; 'I' for Inactive)
REMARK    1  A    between atoms: C3_5  and  N2_6 
REMARK    2  A    between atoms: C4_11  and  N4_12 
REMARK    3  A    between atoms: N4_12  and  C5_14 
REMARK    4  A    between atoms: C5_14  and  C6_15 
REMARK    5  A    between atoms: C6_15  and  C7_16 
REMARK    6  A    between atoms: C7_16  and  C8_17 
REMARK    7  A    between atoms: C8_17  and  C9_18 
REMARK    8  A    between atoms: C9_18  and  N5_19 
ROOT
HETATM    1  C1  UNL     1      36.567  39.692  65.546  1.00  0.00     0.069 C 
HETATM    2  C2  UNL     1      36.784  39.262  66.924  1.00  0.00     0.032 A 
HETATM    3  N1  UNL     1      36.013  39.710  67.923  1.00  0.00    -0.196 N 
ATOM      4  H1  UNL     1      35.257  40.365  67.721  1.00  0.00     0.184 HD
HETATM    5  C3  UNL     1      36.226  39.301  69.211  1.00  0.00     0.677 A 
HETATM    6  N3  UNL     1      37.212  38.438  69.522  1.00  0.00    -0.177 N 
ATOM      7  H3  UNL     1      37.354  38.145  70.488  1.00  0.00     0.186 HD
HETATM    8  C4  UNL     1      37.995  37.972  68.558  1.00  0.00     0.124 A 
HETATM    9  C15 UNL     1      37.784  38.387  67.237  1.00  0.00     0.005 A 
HETATM   10  C16 UNL     1      38.664  37.858  66.191  1.00  0.00     0.054 C 
ENDROOT
BRANCH   8  11
HETATM   11  N4  UNL     1      38.949  37.143  68.824  1.00  0.00    -0.375 N 
ATOM     12  H4  UNL     1      39.858  37.275  68.381  1.00  0.00     0.161 HD
BRANCH  11  13
HETATM   13  C5  UNL     1      38.767  36.041  69.725  1.00  0.00     0.121 C 
BRANCH  13  14
HETATM   14  C6  UNL     1      38.583  34.734  68.949  1.00  0.00     0.020 C 
BRANCH  14  15
HETATM   15  C7  UNL     1      37.115  34.520  68.826  1.00  0.00     0.003 C 
BRANCH  15  16
HETATM   16  C8  UNL     1      36.698  33.099  69.099  1.00  0.00     0.030 C 
BRANCH  16  17
HETATM   17  C9  UNL     1      35.588  32.714  68.192  1.00  0.00     0.272 C 
BRANCH  17  18
HETATM   18  N5  UNL     1      34.503  32.028  68.851  1.00  0.00     0.088 N 
HETATM   19  C10 UNL     1      33.210  32.271  68.262  1.00  0.00     0.272 C 
HETATM   20  C11 UNL     1      32.243  31.266  68.795  1.00  0.00     0.030 C 
HETATM   21  C12 UNL     1      32.065  31.507  70.276  1.00  0.00     0.003 C 
HETATM   22  C13 UNL     1      33.097  32.465  70.771  1.00  0.00     0.030 C 
HETATM   23  C14 UNL     1      34.479  32.210  70.274  1.00  0.00     0.272 C 
ENDBRANCH  17  18
ENDBRANCH  16  17
ENDBRANCH  15  16
ENDBRANCH  14  15
ENDBRANCH  13  14
ENDBRANCH  11  13
ENDBRANCH   8  11
BRANCH   5  24
HETATM   24  N2  UNL     1      35.448  39.767  70.137  1.00  0.00    -0.234 N 
ATOM     25  H22 UNL     1      35.163  40.747  70.125  1.00  0.00     0.174 HD
ATOM     26  H21 UNL     1      35.136  39.130  70.870  1.00  0.00     0.174 HD
ENDBRANCH   5  24
TORSDOF 8
ENDMDL
MODEL 3
REMARK VINA RESULT: -7.152626750      2.155      7.361
REMARK  8 active torsions:
REMARK  status: ('A' for Active; 'I' for Inactive)
REMARK    1  A    between atoms: C3_5  and  N2_6 
REMARK    2  A    between atoms: C4_11  and  N4_12 
REMARK    3  A    between atoms: N4_12  and  C5_14 
REMARK    4  A    between atoms: C5_14  and  C6_15 
REMARK    5  A    between atoms: C6_15  and  C7_16 
REMARK    6  A    between atoms: C7_16  and  C8_17 
REMARK    7  A    between atoms: C8_17  and  C9_18 
REMARK    8  A    between atoms: C9_18  and  N5_19 
ROOT
HETATM    1  C1  UNL     1      31.606  32.017  70.473  1.00  0.00     0.069 C 
HETATM    2  C2  UNL     1      32.907  32.134  71.127  1.00  0.00     0.032 A 
HETATM    3  N1  UNL     1      33.123  33.039  72.089  1.00  0.00    -0.196 N 
ATOM      4  H1  UNL     1      32.367  33.661  72.375  1.00  0.00     0.184 HD
HETATM    5  C3  UNL     1      34.346  33.140  72.694  1.00  0.00     0.677 A 
HETATM    6  N3  UNL     1      35.372  32.339  72.349  1.00  0.00    -0.177 N 
ATOM      7  H3  UNL     1      36.275  32.431  72.812  1.00  0.00     0.186 HD
HETATM    8  C4  UNL     1      35.194  31.430  71.399  1.00  0.00     0.124 A 
HETATM    9  C15 UNL     1      33.945  31.320  70.775  1.00  0.00     0.005 A 
HETATM   10  C16 UNL     1      33.776  30.308  69.728  1.00  0.00     0.054 C 
ENDROOT
BRANCH   8  11
HETATM   11  N4  UNL     1      36.158  30.646  71.045  1.00  0.00    -0.375 N 
ATOM     12  H4  UNL     1      36.020  29.638  71.097  1.00  0.00     0.161 HD
BRANCH  11  13
HETATM   13  C5  UNL     1      37.418  31.154  70.583  1.00  0.00     0.121 C 
BRANCH  13  14
HETATM   14  C6  UNL     1      37.211  32.152  69.441  1.00  0.00     0.020 C 
BRANCH  14  15
HETATM   15  C7  UNL     1      37.621  33.484  69.965  1.00  0.00     0.003 C 
BRANCH  15  16
HETATM   16  C8  UNL     1      37.642  34.557  68.908  1.00  0.00     0.030 C 
BRANCH  16  17
HETATM   17  C9  UNL     1      38.997  35.157  68.823  1.00  0.00     0.272 C 
BRANCH  17  18
HETATM   18  N5  UNL     1      38.993  36.594  68.690  1.00  0.00     0.088 N 
HETATM   19  C10 UNL     1      38.456  37.288  69.835  1.00  0.00     0.272 C 
HETATM   20  C11 UNL     1      38.813  38.734  69.731  1.00  0.00     0.030 C 
HETATM   21  C12 UNL     1      38.104  39.320  68.533  1.00  0.00     0.003 C 
HETATM   22  C13 UNL     1      37.515  38.232  67.698  1.00  0.00     0.030 C 
HETATM   23  C14 UNL     1      38.412  37.064  67.466  1.00  0.00     0.272 C 
ENDBRANCH  17  18
ENDBRANCH  16  17
ENDBRANCH  15  16
ENDBRANCH  14  15
ENDBRANCH  13  14
ENDBRANCH  11  13
ENDBRANCH   8  11
BRANCH   5  24
HETATM   24  N2  UNL     1      34.498  34.035  73.620  1.00  0.00    -0.234 N 
ATOM     25  H22 UNL     1      34.952  33.792  74.501  1.00  0.00     0.174 HD
ATOM     26  H21 UNL     1      34.152  34.978  73.440  1.00  0.00     0.174 HD
ENDBRANCH   5  24
TORSDOF 8
ENDMDL
MODEL 4
REMARK VINA RESULT: -7.088093940      2.056      3.475
REMARK  8 active torsions:
REMARK  status: ('A' for Active; 'I' for Inactive)
REMARK    1  A    between atoms: C3_5  and  N2_6 
REMARK    2  A    between atoms: C4_11  and  N4_12 
REMARK    3  A    between atoms: N4_12  and  C5_14 
REMARK    4  A    between atoms: C5_14  and  C6_15 
REMARK    5  A    between atoms: C6_15  and  C7_16 
REMARK    6  A    between atoms: C7_16  and  C8_17 
REMARK    7  A    between atoms: C8_17  and  C9_18 
REMARK    8  A    between atoms: C9_18  and  N5_19 
ROOT
HETATM    1  C1  UNL     1      39.014  38.924  70.582  1.00  0.00     0.069 C 
HETATM    2  C2  UNL     1      38.768  37.842  69.632  1.00  0.00     0.032 A 
HETATM    3  N1  UNL     1      38.667  38.080  68.318  1.00  0.00    -0.196 N 
ATOM      4  H1  UNL     1      38.764  39.034  67.970  1.00  0.00     0.184 HD
HETATM    5  C3  UNL     1      38.435  37.059  67.437  1.00  0.00     0.677 A 
HETATM    6  N3  UNL     1      38.302  35.785  67.854  1.00  0.00    -0.177 N 
ATOM      7  H3  UNL     1      38.130  35.039  67.181  1.00  0.00     0.186 HD
HETATM    8  C4  UNL     1      38.396  35.513  69.149  1.00  0.00     0.124 A 
HETATM    9  C15 UNL     1      38.633  36.552  70.057  1.00  0.00     0.005 A 
HETATM   10  C16 UNL     1      38.733  36.223  71.482  1.00  0.00     0.054 C 
ENDROOT
BRANCH   8  11
HETATM   11  N4  UNL     1      38.273  34.301  69.579  1.00  0.00    -0.375 N 
ATOM     12  H4  UNL     1      39.094  33.821  69.948  1.00  0.00     0.161 HD
BRANCH  11  13
HETATM   13  C5  UNL     1      37.015  33.610  69.554  1.00  0.00     0.121 C 
BRANCH  13  14
HETATM   14  C6  UNL     1      36.641  33.120  70.954  1.00  0.00     0.020 C 
BRANCH  14  15
HETATM   15  C7  UNL     1      37.177  31.737  71.075  1.00  0.00     0.003 C 
BRANCH  15  16
HETATM   16  C8  UNL     1      36.134  30.674  70.855  1.00  0.00     0.030 C 
BRANCH  16  17
HETATM   17  C9  UNL     1      34.887  31.031  71.577  1.00  0.00     0.272 C 
BRANCH  17  18
HETATM   18  N5  UNL     1      33.697  30.954  70.764  1.00  0.00     0.088 N 
HETATM   19  C10 UNL     1      33.941  31.107  69.351  1.00  0.00     0.272 C 
HETATM   20  C11 UNL     1      32.723  30.674  68.604  1.00  0.00     0.030 C 
HETATM   21  C12 UNL     1      31.596  31.627  68.926  1.00  0.00     0.003 C 
HETATM   22  C13 UNL     1      31.974  32.505  70.073  1.00  0.00     0.030 C 
HETATM   23  C14 UNL     1      32.630  31.801  71.212  1.00  0.00     0.272 C 
ENDBRANCH  17  18
ENDBRANCH  16  17
ENDBRANCH  15  16
ENDBRANCH  14  15
ENDBRANCH  13  14
ENDBRANCH  11  13
ENDBRANCH   8  11
BRANCH   5  24
HETATM   24  N2  UNL     1      38.347  37.348  66.177  1.00  0.00    -0.234 N 
ATOM     25  H22 UNL     1      37.704  38.073  65.858  1.00  0.00     0.174 HD
ATOM     26  H21 UNL     1      38.934  36.831  65.522  1.00  0.00     0.174 HD
ENDBRANCH   5  24
TORSDOF 8
ENDMDL
MODEL 5
REMARK VINA RESULT: -7.039924290      1.626      7.382
REMARK  8 active torsions:
REMARK  status: ('A' for Active; 'I' for Inactive)
REMARK    1  A    between atoms: C3_5  and  N2_6 
REMARK    2  A    between atoms: C4_11  and  N4_12 
REMARK    3  A    between atoms: N4_12  and  C5_14 
REMARK    4  A    between atoms: C5_14  and  C6_15 
REMARK    5  A    between atoms: C6_15  and  C7_16 
REMARK    6  A    between atoms: C7_16  and  C8_17 
REMARK    7  A    between atoms: C8_17  and  C9_18 
REMARK    8  A    between atoms: C9_18  and  N5_19 
ROOT
HETATM    1  C1  UNL     1      31.676  31.962  68.614  1.00  0.00     0.069 C 
HETATM    2  C2  UNL     1      32.734  32.058  69.616  1.00  0.00     0.032 A 
HETATM    3  N1  UNL     1      32.450  32.135  70.922  1.00  0.00    -0.196 N 
ATOM      4  H1  UNL     1      31.477  32.126  71.227  1.00  0.00     0.184 HD
HETATM    5  C3  UNL     1      33.449  32.225  71.853  1.00  0.00     0.677 A 
HETATM    6  N3  UNL     1      34.747  32.240  71.494  1.00  0.00    -0.177 N 
ATOM      7  H3  UNL     1      35.476  32.308  72.203  1.00  0.00     0.186 HD
HETATM    8  C4  UNL     1      35.065  32.166  70.208  1.00  0.00     0.124 A 
HETATM    9  C15 UNL     1      34.049  32.073  69.250  1.00  0.00     0.005 A 
HETATM   10  C16 UNL     1      34.429  31.992  67.836  1.00  0.00     0.054 C 
ENDROOT
BRANCH   8  11
HETATM   11  N4  UNL     1      36.302  32.177  69.832  1.00  0.00    -0.375 N 
ATOM     12  H4  UNL     1      36.655  31.402  69.272  1.00  0.00     0.161 HD
BRANCH  11  13
HETATM   13  C5  UNL     1      37.191  33.248  70.180  1.00  0.00     0.121 C 
BRANCH  13  14
HETATM   14  C6  UNL     1      37.889  33.796  68.933  1.00  0.00     0.020 C 
BRANCH  14  15
HETATM   15  C7  UNL     1      37.601  35.256  68.896  1.00  0.00     0.003 C 
BRANCH  15  16
HETATM   16  C8  UNL     1      38.828  36.097  68.658  1.00  0.00     0.030 C 
BRANCH  16  17
HETATM   17  C9  UNL     1      38.605  37.472  69.172  1.00  0.00     0.272 C 
BRANCH  17  18
HETATM   18  N5  UNL     1      38.313  38.441  68.143  1.00  0.00     0.088 N 
HETATM   19  C10 UNL     1      36.981  38.988  68.213  1.00  0.00     0.272 C 
HETATM   20  C11 UNL     1      36.912  40.197  67.339  1.00  0.00     0.030 C 
HETATM   21  C12 UNL     1      37.098  39.766  65.904  1.00  0.00     0.003 C 
HETATM   22  C13 UNL     1      37.560  38.347  65.846  1.00  0.00     0.030 C 
HETATM   23  C14 UNL     1      38.635  37.998  66.818  1.00  0.00     0.272 C 
ENDBRANCH  17  18
ENDBRANCH  16  17
ENDBRANCH  15  16
ENDBRANCH  14  15
ENDBRANCH  13  14
ENDBRANCH  11  13
ENDBRANCH   8  11
BRANCH   5  24
HETATM   24  N2  UNL     1      33.115  32.296  73.103  1.00  0.00    -0.234 N 
ATOM     25  H22 UNL     1      32.247  31.871  73.429  1.00  0.00     0.174 HD
ATOM     26  H21 UNL     1      33.742  32.786  73.742  1.00  0.00     0.174 HD
ENDBRANCH   5  24
TORSDOF 8
ENDMDL
