MODEL 1
REMARK VINA RESULT: -6.464556337      0.000      0.000
REMARK  6 active torsions:
REMARK  status: ('A' for Active; 'I' for Inactive)
REMARK    1  A    between atoms: C2_2  and  N1_3 
REMARK    2  A    between atoms: N1_3  and  C3_6 
REMARK    3  A    between atoms: C3_6  and  C4_7 
REMARK    4  A    between atoms: C3_6  and  C11_20 
REMARK       I    between atoms: C4_7  and  N2_9 
REMARK    5  A    between atoms: N2_9  and  C5_11 
REMARK    6  A    between atoms: C5_11  and  C6_12 
ROOT
HETATM    1  C4  UNL     1      37.579  34.861  69.963  1.00  0.00     0.248 C 
HETATM    2  O1  UNL     1      37.247  35.143  71.147  1.00  0.00    -0.271 OA
HETATM    3  N2  UNL     1      37.022  33.727  69.335  1.00  0.00    -0.359 N 
ATOM      4  H2  UNL     1      37.278  33.490  68.376  1.00  0.00     0.162 HD
ENDROOT
BRANCH   1   5
HETATM    5  C3  UNL     1      38.551  35.759  69.291  1.00  0.00     0.281 C 
BRANCH   5   6
HETATM    6  N1  UNL     1      37.894  36.908  68.699  1.00  0.00    -0.062 N 
ATOM      7  H12 UNL     1      38.108  37.763  69.212  1.00  0.00     0.278 HD
ATOM      8  H11 UNL     1      36.886  36.878  68.851  1.00  0.00     0.278 HD
BRANCH   6   9
HETATM    9  C2  UNL     1      38.214  37.044  67.284  1.00  0.00     0.229 C 
HETATM   10  C1  UNL     1      38.176  38.554  67.009  1.00  0.00     0.034 C 
ENDBRANCH   6   9
ENDBRANCH   5   6
BRANCH   5  11
HETATM   11  C11 UNL     1      39.418  36.327  70.435  1.00  0.00     0.025 C 
HETATM   12  C12 UNL     1      40.785  35.780  70.267  1.00  0.00     0.007 C 
HETATM   13  C13 UNL     1      41.891  36.485  70.997  1.00  0.00     0.000 C 
HETATM   14  C14 UNL     1      41.642  37.944  71.213  1.00  0.00     0.000 C 
HETATM   15  C15 UNL     1      40.254  38.240  71.681  1.00  0.00     0.000 C 
HETATM   16  C16 UNL     1      39.318  37.826  70.527  1.00  0.00     0.007 C 
ENDBRANCH   5  11
ENDBRANCH   1   5
BRANCH   3  17
HETATM   17  C5  UNL     1      36.085  32.905  70.062  1.00  0.00     0.127 C 
BRANCH  17  18
HETATM   18  C6  UNL     1      35.563  31.831  69.154  1.00  0.00     0.006 C 
HETATM   19  C7  UNL     1      34.471  31.094  69.901  1.00  0.00     0.034 C 
HETATM   20  C8  UNL     1      33.471  30.488  68.971  1.00  0.00     0.232 C 
HETATM   21  N3  UNL     1      32.798  31.527  68.241  1.00  0.00    -0.075 N 
HETATM   22  C9  UNL     1      33.545  32.752  68.161  1.00  0.00     0.232 C 
ATOM     23  H32 UNL     1      32.537  31.202  67.310  1.00  0.00     0.277 HD
ATOM     24  H31 UNL     1      31.869  31.696  68.628  1.00  0.00     0.277 HD
HETATM   25  C10 UNL     1      35.016  32.478  67.902  1.00  0.00     0.034 C 
ENDBRANCH  17  18
ENDBRANCH   3  17
TORSDOF 6
ENDMDL
MODEL 2
REMARK VINA RESULT: -6.305889851      1.108      1.667
REMARK  6 active torsions:
REMARK  status: ('A' for Active; 'I' for Inactive)
REMARK    1  A    between atoms: C2_2  and  N1_3 
REMARK    2  A    between atoms: N1_3  and  C3_6 
REMARK    3  A    between atoms: C3_6  and  C4_7 
REMARK    4  A    between atoms: C3_6  and  C11_20 
REMARK       I    between atoms: C4_7  and  N2_9 
REMARK    5  A    between atoms: N2_9  and  C5_11 
REMARK    6  A    between atoms: C5_11  and  C6_12 
ROOT
HETATM    1  C4  UNL     1      37.921  34.201  69.654  1.00  0.00     0.248 C 
HETATM    2  O1  UNL     1      38.284  33.607  70.706  1.00  0.00    -0.271 OA
HETATM    3  N2  UNL     1      36.920  33.628  68.840  1.00  0.00    -0.359 N 
ATOM      4  H2  UNL     1      36.614  34.101  67.990  1.00  0.00     0.162 HD
ENDROOT
BRANCH   1   5
HETATM    5  C3  UNL     1      38.578  35.493  69.334  1.00  0.00     0.281 C 
BRANCH   5   6
HETATM    6  N1  UNL     1      37.675  36.395  68.646  1.00  0.00    -0.062 N 
ATOM      7  H12 UNL     1      37.296  37.097  69.282  1.00  0.00     0.278 HD
ATOM      8  H11 UNL     1      36.807  35.926  68.389  1.00  0.00     0.278 HD
BRANCH   6   9
HETATM    9  C2  UNL     1      38.307  37.014  67.489  1.00  0.00     0.229 C 
HETATM   10  C1  UNL     1      38.265  38.523  67.770  1.00  0.00     0.034 C 
ENDBRANCH   6   9
ENDBRANCH   5   6
BRANCH   5  11
HETATM   11  C11 UNL     1      38.846  36.148  70.706  1.00  0.00     0.025 C 
HETATM   12  C12 UNL     1      40.158  36.832  70.621  1.00  0.00     0.007 C 
HETATM   13  C13 UNL     1      40.453  37.864  71.670  1.00  0.00     0.000 C 
HETATM   14  C14 UNL     1      39.236  38.548  72.208  1.00  0.00     0.000 C 
HETATM   15  C15 UNL     1      38.118  37.605  72.512  1.00  0.00     0.000 C 
HETATM   16  C16 UNL     1      37.690  37.000  71.159  1.00  0.00     0.007 C 
ENDBRANCH   5  11
ENDBRANCH   1   5
BRANCH   3  17
HETATM   17  C5  UNL     1      36.334  32.367  69.224  1.00  0.00     0.127 C 
BRANCH  17  18
HETATM   18  C6  UNL     1      34.840  32.502  69.240  1.00  0.00     0.006 C 
HETATM   19  C7  UNL     1      34.334  32.113  67.866  1.00  0.00     0.034 C 
HETATM   20  C8  UNL     1      32.937  31.587  67.916  1.00  0.00     0.232 C 
HETATM   21  N3  UNL     1      32.904  30.375  68.689  1.00  0.00    -0.075 N 
HETATM   22  C9  UNL     1      33.996  30.253  69.615  1.00  0.00     0.232 C 
ATOM     23  H32 UNL     1      32.010  30.280  69.171  1.00  0.00     0.277 HD
ATOM     24  H31 UNL     1      32.856  29.560  68.079  1.00  0.00     0.277 HD
HETATM   25  C10 UNL     1      34.282  31.579  70.299  1.00  0.00     0.034 C 
ENDBRANCH  17  18
ENDBRANCH   3  17
TORSDOF 6
ENDMDL
MODEL 3
REMARK VINA RESULT: -6.283998153      1.937      7.378
REMARK  6 active torsions:
REMARK  status: ('A' for Active; 'I' for Inactive)
REMARK    1  A    between atoms: C2_2  and  N1_3 
REMARK    2  A    between atoms: N1_3  and  C3_6 
REMARK    3  A    between atoms: C3_6  and  C4_7 
REMARK    4  A    between atoms: C3_6  and  C11_20 
REMARK       I    between atoms: C4_7  and  N2_9 
REMARK    5  A    between atoms: N2_9  and  C5_11 
REMARK    6  A    between atoms: C5_11  and  C6_12 
ROOT
HETATM    1  C4  UNL     1      36.680  33.607  70.679  1.00  0.00     0.248 C 
HETATM    2  O1  UNL     1      36.485  33.903  71.889  1.00  0.00    -0.271 OA
HETATM    3  N2  UNL     1      37.360  34.516  69.840  1.00  0.00    -0.359 N 
ATOM      4  H2  UNL     1      37.529  34.287  68.860  1.00  0.00     0.162 HD
ENDROOT
BRANCH   1   5
HETATM    5  C3  UNL     1      36.178  32.293  70.204  1.00  0.00     0.281 C 
BRANCH   5   6
HETATM    6  N1  UNL     1      36.023  31.355  71.298  1.00  0.00    -0.062 N 
ATOM      7  H12 UNL     1      35.056  31.313  71.618  1.00  0.00     0.278 HD
ATOM      8  H11 UNL     1      36.459  31.704  72.151  1.00  0.00     0.278 HD
BRANCH   6   9
HETATM    9  C2  UNL     1      36.524  30.032  70.950  1.00  0.00     0.229 C 
HETATM   10  C1  UNL     1      35.330  29.087  71.149  1.00  0.00     0.034 C 
ENDBRANCH   6   9
ENDBRANCH   5   6
BRANCH   5  11
HETATM   11  C11 UNL     1      34.746  32.579  69.702  1.00  0.00     0.025 C 
HETATM   12  C12 UNL     1      34.578  31.867  68.414  1.00  0.00     0.007 C 
HETATM   13  C13 UNL     1      33.172  31.655  67.934  1.00  0.00     0.000 C 
HETATM   14  C14 UNL     1      32.165  31.549  69.036  1.00  0.00     0.000 C 
HETATM   15  C15 UNL     1      32.347  32.581  70.100  1.00  0.00     0.000 C 
HETATM   16  C16 UNL     1      33.711  32.282  70.755  1.00  0.00     0.007 C 
ENDBRANCH   5  11
ENDBRANCH   1   5
BRANCH   3  17
HETATM   17  C5  UNL     1      37.813  35.774  70.382  1.00  0.00     0.127 C 
BRANCH  17  18
HETATM   18  C6  UNL     1      38.711  36.445  69.385  1.00  0.00     0.006 C 
HETATM   19  C7  UNL     1      38.034  36.359  68.033  1.00  0.00     0.034 C 
HETATM   20  C8  UNL     1      38.443  37.479  67.132  1.00  0.00     0.232 C 
HETATM   21  N3  UNL     1      38.014  38.731  67.692  1.00  0.00    -0.075 N 
HETATM   22  C9  UNL     1      37.807  38.686  69.113  1.00  0.00     0.232 C 
ATOM     23  H32 UNL     1      38.665  39.477  67.446  1.00  0.00     0.277 HD
ATOM     24  H31 UNL     1      37.178  39.071  67.217  1.00  0.00     0.277 HD
HETATM   25  C10 UNL     1      38.902  37.887  69.799  1.00  0.00     0.034 C 
ENDBRANCH  17  18
ENDBRANCH   3  17
TORSDOF 6
ENDMDL
MODEL 4
REMARK VINA RESULT: -6.270724028      4.274      5.848
REMARK  6 active torsions:
REMARK  status: ('A' for Active; 'I' for Inactive)
REMARK    1  A    between atoms: C2_2  and  N1_3 
REMARK    2  A    between atoms: N1_3  and  C3_6 
REMARK    3  A    between atoms: C3_6  and  C4_7 
REMARK    4  A    between atoms: C3_6  and  C11_20 
REMARK       I    between atoms: C4_7  and  N2_9 
REMARK    5  A    between atoms: N2_9  and  C5_11 
REMARK    6  A    between atoms: C5_11  and  C6_12 
ROOT
HETATM    1  C4  UNL     1      39.562  36.904  70.561  1.00  0.00     0.248 C 
HETATM    2  O1  UNL     1      38.687  37.528  71.220  1.00  0.00    -0.271 OA
HETATM    3  N2  UNL     1      39.364  36.674  69.182  1.00  0.00    -0.359 N 
ATOM      4  H2  UNL     1      40.066  36.175  68.636  1.00  0.00     0.162 HD
ENDROOT
BRANCH   1   5
HETATM    5  C3  UNL     1      40.772  36.445  71.289  1.00  0.00     0.281 C 
BRANCH   5   6
HETATM    6  N1  UNL     1      41.623  35.628  70.446  1.00  0.00    -0.062 N 
ATOM      7  H12 UNL     1      42.485  36.116  70.203  1.00  0.00     0.278 HD
ATOM      8  H11 UNL     1      41.229  35.523  69.511  1.00  0.00     0.278 HD
BRANCH   6   9
HETATM    9  C2  UNL     1      41.901  34.333  71.053  1.00  0.00     0.229 C 
HETATM   10  C1  UNL     1      43.426  34.172  70.972  1.00  0.00     0.034 C 
ENDBRANCH   6   9
ENDBRANCH   5   6
BRANCH   5  11
HETATM   11  C11 UNL     1      41.579  37.733  71.561  1.00  0.00     0.025 C 
HETATM   12  C12 UNL     1      41.574  37.956  73.025  1.00  0.00     0.007 C 
HETATM   13  C13 UNL     1      42.609  38.896  73.571  1.00  0.00     0.000 C 
HETATM   14  C14 UNL     1      43.870  38.945  72.765  1.00  0.00     0.000 C 
HETATM   15  C15 UNL     1      43.624  39.021  71.294  1.00  0.00     0.000 C 
HETATM   16  C16 UNL     1      42.934  37.697  70.907  1.00  0.00     0.007 C 
ENDBRANCH   5  11
ENDBRANCH   1   5
BRANCH   3  17
HETATM   17  C5  UNL     1      38.157  37.152  68.553  1.00  0.00     0.127 C 
BRANCH  17  18
HETATM   18  C6  UNL     1      38.468  38.394  67.771  1.00  0.00     0.006 C 
HETATM   19  C7  UNL     1      38.249  38.077  66.306  1.00  0.00     0.034 C 
HETATM   20  C8  UNL     1      37.891  39.295  65.519  1.00  0.00     0.232 C 
HETATM   21  N3  UNL     1      36.637  39.820  65.985  1.00  0.00    -0.075 N 
HETATM   22  C9  UNL     1      36.315  39.433  67.331  1.00  0.00     0.232 C 
ATOM     23  H32 UNL     1      36.612  40.835  65.886  1.00  0.00     0.277 HD
ATOM     24  H31 UNL     1      35.882  39.568  65.347  1.00  0.00     0.277 HD
HETATM   25  C10 UNL     1      37.540  39.498  68.226  1.00  0.00     0.034 C 
ENDBRANCH  17  18
ENDBRANCH   3  17
TORSDOF 6
ENDMDL
MODEL 5
REMARK VINA RESULT: -6.268743993      1.891      7.184
REMARK  6 active torsions:
REMARK  status: ('A' for Active; 'I' for Inactive)
REMARK    1  A    between atoms: C2_2  and  N1_3 
REMARK    2  A    between atoms: N1_3  and  C3_6 
REMARK    3  A    between atoms: C3_6  and  C4_7 
REMARK    4  A    between atoms: C3_6  and  C11_20 
REMARK       I    between atoms: C4_7  and  N2_9 
REMARK    5  A    between atoms: N2_9  and  C5_11 
REMARK    6  A    between atoms: C5_11  and  C6_12 
ROOT
HETATM    1  C4  UNL     1      36.962  32.330  71.249  1.00  0.00     0.248 C 
HETATM    2  O1  UNL     1      37.819  31.405  71.255  1.00  0.00    -0.271 OA
HETATM    3  N2  UNL     1      37.387  33.675  71.201  1.00  0.00    -0.359 N 
ATOM      4  H2  UNL     1      36.703  34.432  71.190  1.00  0.00     0.162 HD
ENDROOT
BRANCH   1   5
HETATM    5  C3  UNL     1      35.530  31.939  71.290  1.00  0.00     0.281 C 
BRANCH   5   6
HETATM    6  N1  UNL     1      34.673  33.078  71.550  1.00  0.00    -0.062 N 
ATOM      7  H12 UNL     1      33.968  33.187  70.821  1.00  0.00     0.278 HD
ATOM      8  H11 UNL     1      35.173  33.957  71.420  1.00  0.00     0.278 HD
BRANCH   6   9
HETATM    9  C2  UNL     1      34.062  33.006  72.870  1.00  0.00     0.229 C 
HETATM   10  C1  UNL     1      33.026  31.877  72.770  1.00  0.00     0.034 C 
ENDBRANCH   6   9
ENDBRANCH   5   6
BRANCH   5  11
HETATM   11  C11 UNL     1      35.202  31.499  69.847  1.00  0.00     0.025 C 
HETATM   12  C12 UNL     1      33.986  30.654  69.908  1.00  0.00     0.007 C 
HETATM   13  C13 UNL     1      33.244  30.441  68.622  1.00  0.00     0.000 C 
HETATM   14  C14 UNL     1      33.376  31.572  67.651  1.00  0.00     0.000 C 
HETATM   15  C15 UNL     1      34.775  32.078  67.525  1.00  0.00     0.000 C 
HETATM   16  C16 UNL     1      35.141  32.669  68.902  1.00  0.00     0.007 C 
ENDBRANCH   5  11
ENDBRANCH   1   5
BRANCH   3  17
HETATM   17  C5  UNL     1      38.799  33.968  71.166  1.00  0.00     0.127 C 
BRANCH  17  18
HETATM   18  C6  UNL     1      39.154  34.525  69.819  1.00  0.00     0.006 C 
HETATM   19  C7  UNL     1      37.929  35.237  69.284  1.00  0.00     0.034 C 
HETATM   20  C8  UNL     1      38.291  36.333  68.335  1.00  0.00     0.232 C 
HETATM   21  N3  UNL     1      39.045  37.342  69.027  1.00  0.00    -0.075 N 
HETATM   22  C9  UNL     1      39.699  36.861  70.212  1.00  0.00     0.232 C 
ATOM     23  H32 UNL     1      39.716  37.784  68.398  1.00  0.00     0.277 HD
ATOM     24  H31 UNL     1      38.457  38.147  69.241  1.00  0.00     0.277 HD
HETATM   25  C10 UNL     1      40.307  35.488  69.982  1.00  0.00     0.034 C 
ENDBRANCH  17  18
ENDBRANCH   3  17
TORSDOF 6
ENDMDL
