MODEL 1
REMARK VINA RESULT: -6.949768463      0.000      0.000
REMARK  6 active torsions:
REMARK  status: ('A' for Active; 'I' for Inactive)
REMARK    1  A    between atoms: C2_2  and  N1_4 
REMARK    2  A    between atoms: N1_4  and  C4_6 
REMARK    3  A    between atoms: C4_6  and  C5_7 
REMARK    4  A    between atoms: C5_7  and  N2_8 
REMARK    5  A    between atoms: C5_7  and  C14_24 
REMARK    6  A    between atoms: C8_16  and  C9_17 
ROOT
HETATM    1  N2  UNL     1      35.724  34.672  72.899  1.00  0.00    -0.220 N 
ATOM      2  H2  UNL     1      35.373  35.062  73.774  1.00  0.00     0.178 HD
HETATM    3  C6  UNL     1      35.080  33.668  72.457  1.00  0.00     0.676 A 
HETATM    4  N3  UNL     1      33.956  33.215  73.231  1.00  0.00    -0.210 N 
ATOM      5  H3  UNL     1      33.712  33.709  74.089  1.00  0.00     0.179 HD
HETATM    6  C7  UNL     1      33.166  32.081  72.826  1.00  0.00     0.263 A 
HETATM    7  N4  UNL     1      33.597  31.486  71.602  1.00  0.00    -0.362 N 
ATOM      8  H4  UNL     1      33.060  30.686  71.268  1.00  0.00     0.162 HD
HETATM    9  C8  UNL     1      34.583  31.853  70.885  1.00  0.00     0.098 A 
HETATM   10  N5  UNL     1      35.378  32.956  71.264  1.00  0.00    -0.181 N 
ATOM     11  H5  UNL     1      36.166  33.241  70.682  1.00  0.00     0.185 HD
ENDROOT
BRANCH   1  12
HETATM   12  C5  UNL     1      36.858  35.329  72.357  1.00  0.00     0.120 C 
BRANCH  12  13
HETATM   13  C4  UNL     1      36.858  36.814  72.688  1.00  0.00     0.140 C 
BRANCH  13  14
HETATM   14  N1  UNL     1      36.824  37.546  71.465  1.00  0.00    -0.416 N 
ATOM     15  H1  UNL     1      36.181  37.312  70.707  1.00  0.00     0.153 HD
BRANCH  14  16
HETATM   16  C2  UNL     1      37.750  38.628  71.374  1.00  0.00     0.068 C 
HETATM   17  C1  UNL     1      38.934  38.362  70.494  1.00  0.00     0.031 C 
HETATM   18  C3  UNL     1      38.264  38.925  72.767  1.00  0.00     0.031 C 
ENDBRANCH  14  16
ENDBRANCH  13  14
ENDBRANCH  12  13
BRANCH  12  19
HETATM   19  C14 UNL     1      38.133  34.776  73.011  1.00  0.00     0.002 C 
HETATM   20  C15 UNL     1      39.324  34.969  72.093  1.00  0.00     0.011 C 
HETATM   21  C16 UNL     1      38.445  35.500  74.299  1.00  0.00     0.011 C 
ENDBRANCH  12  19
ENDBRANCH   1  12
BRANCH   9  22
HETATM   22  C9  UNL     1      34.936  31.136  69.605  1.00  0.00     0.054 C 
HETATM   23  C10 UNL     1      35.659  32.029  68.641  1.00  0.00     0.012 C 
HETATM   24  C11 UNL     1      34.737  32.237  67.459  1.00  0.00     0.001 C 
HETATM   25  C12 UNL     1      33.383  31.912  68.028  1.00  0.00     0.001 C 
HETATM   26  C13 UNL     1      33.688  30.697  68.902  1.00  0.00     0.012 C 
ENDBRANCH   9  22
TORSDOF 6
ENDMDL
MODEL 2
REMARK VINA RESULT: -6.766362382      1.193      1.578
REMARK  6 active torsions:
REMARK  status: ('A' for Active; 'I' for Inactive)
REMARK    1  A    between atoms: C2_2  and  N1_4 
REMARK    2  A    between atoms: N1_4  and  C4_6 
REMARK    3  A    between atoms: C4_6  and  C5_7 
REMARK    4  A    between atoms: C5_7  and  N2_8 
REMARK    5  A    between atoms: C5_7  and  C14_24 
REMARK    6  A    between atoms: C8_16  and  C9_17 
ROOT
HETATM    1  N2  UNL     1      35.963  34.567  73.043  1.00  0.00    -0.220 N 
ATOM      2  H2  UNL     1      35.603  34.986  73.900  1.00  0.00     0.178 HD
HETATM    3  C6  UNL     1      35.238  33.649  72.542  1.00  0.00     0.676 A 
HETATM    4  N3  UNL     1      34.022  33.321  73.235  1.00  0.00    -0.210 N 
ATOM      5  H3  UNL     1      33.780  33.831  74.084  1.00  0.00     0.179 HD
HETATM    6  C7  UNL     1      33.135  32.290  72.760  1.00  0.00     0.263 A 
HETATM    7  N4  UNL     1      33.575  31.662  71.556  1.00  0.00    -0.362 N 
ATOM      8  H4  UNL     1      32.972  30.933  71.174  1.00  0.00     0.162 HD
HETATM    9  C8  UNL     1      34.641  31.920  70.909  1.00  0.00     0.098 A 
HETATM   10  N5  UNL     1      35.531  32.919  71.358  1.00  0.00    -0.181 N 
ATOM     11  H5  UNL     1      36.383  33.118  70.833  1.00  0.00     0.185 HD
ENDROOT
BRANCH   1  12
HETATM   12  C5  UNL     1      37.198  35.094  72.586  1.00  0.00     0.120 C 
BRANCH  12  13
HETATM   13  C4  UNL     1      37.058  36.540  72.133  1.00  0.00     0.140 C 
BRANCH  13  14
HETATM   14  N1  UNL     1      37.271  36.591  70.724  1.00  0.00    -0.416 N 
ATOM     15  H1  UNL     1      36.779  37.250  70.121  1.00  0.00     0.153 HD
BRANCH  14  16
HETATM   16  C2  UNL     1      38.222  35.655  70.216  1.00  0.00     0.068 C 
HETATM   17  C1  UNL     1      39.602  36.209  70.028  1.00  0.00     0.031 C 
HETATM   18  C3  UNL     1      37.729  35.169  68.869  1.00  0.00     0.031 C 
ENDBRANCH  14  16
ENDBRANCH  13  14
ENDBRANCH  12  13
BRANCH  12  19
HETATM   19  C14 UNL     1      38.200  35.137  73.750  1.00  0.00     0.002 C 
HETATM   20  C15 UNL     1      39.373  34.218  73.472  1.00  0.00     0.011 C 
HETATM   21  C16 UNL     1      38.761  36.526  73.937  1.00  0.00     0.011 C 
ENDBRANCH  12  19
ENDBRANCH   1  12
BRANCH   9  22
HETATM   22  C9  UNL     1      34.992  31.180  69.642  1.00  0.00     0.054 C 
HETATM   23  C10 UNL     1      35.740  32.047  68.674  1.00  0.00     0.012 C 
HETATM   24  C11 UNL     1      34.834  32.258  67.480  1.00  0.00     0.001 C 
HETATM   25  C12 UNL     1      33.468  31.964  68.040  1.00  0.00     0.001 C 
HETATM   26  C13 UNL     1      33.743  30.755  68.933  1.00  0.00     0.012 C 
ENDBRANCH   9  22
TORSDOF 6
ENDMDL
MODEL 3
REMARK VINA RESULT: -6.518280956      2.033      2.668
REMARK  6 active torsions:
REMARK  status: ('A' for Active; 'I' for Inactive)
REMARK    1  A    between atoms: C2_2  and  N1_4 
REMARK    2  A    between atoms: N1_4  and  C4_6 
REMARK    3  A    between atoms: C4_6  and  C5_7 
REMARK    4  A    between atoms: C5_7  and  N2_8 
REMARK    5  A    between atoms: C5_7  and  C14_24 
REMARK    6  A    between atoms: C8_16  and  C9_17 
ROOT
HETATM    1  N2  UNL     1      37.491  33.765  70.866  1.00  0.00    -0.220 N 
ATOM      2  H2  UNL     1      38.124  33.595  71.648  1.00  0.00     0.178 HD
HETATM    3  C6  UNL     1      36.696  32.809  70.597  1.00  0.00     0.676 A 
HETATM    4  N3  UNL     1      36.786  31.628  71.412  1.00  0.00    -0.210 N 
ATOM      5  H3  UNL     1      37.467  31.599  72.171  1.00  0.00     0.179 HD
HETATM    6  C7  UNL     1      35.941  30.485  71.184  1.00  0.00     0.263 A 
HETATM    7  N4  UNL     1      35.021  30.654  70.106  1.00  0.00    -0.362 N 
ATOM      8  H4  UNL     1      34.392  29.874  69.914  1.00  0.00     0.162 HD
HETATM    9  C8  UNL     1      34.905  31.679  69.359  1.00  0.00     0.098 A 
HETATM   10  N5  UNL     1      35.728  32.810  69.556  1.00  0.00    -0.181 N 
ATOM     11  H5  UNL     1      35.627  33.625  68.952  1.00  0.00     0.185 HD
ENDROOT
BRANCH   1  12
HETATM   12  C5  UNL     1      37.629  35.031  70.242  1.00  0.00     0.120 C 
BRANCH  12  13
HETATM   13  C4  UNL     1      38.108  36.091  71.222  1.00  0.00     0.140 C 
BRANCH  13  14
HETATM   14  N1  UNL     1      37.145  37.143  71.251  1.00  0.00    -0.416 N 
ATOM     15  H1  UNL     1      36.147  36.965  71.364  1.00  0.00     0.153 HD
BRANCH  14  16
HETATM   16  C2  UNL     1      37.676  38.460  71.112  1.00  0.00     0.068 C 
HETATM   17  C1  UNL     1      37.582  39.026  69.728  1.00  0.00     0.031 C 
HETATM   18  C3  UNL     1      39.139  38.422  71.499  1.00  0.00     0.031 C 
ENDBRANCH  14  16
ENDBRANCH  13  14
ENDBRANCH  12  13
BRANCH  12  19
HETATM   19  C14 UNL     1      38.724  34.957  69.168  1.00  0.00     0.002 C 
HETATM   20  C15 UNL     1      38.505  36.026  68.116  1.00  0.00     0.011 C 
HETATM   21  C16 UNL     1      40.091  35.196  69.764  1.00  0.00     0.011 C 
ENDBRANCH  12  19
ENDBRANCH   1  12
BRANCH   9  22
HETATM   22  C9  UNL     1      33.887  31.733  68.247  1.00  0.00     0.054 C 
HETATM   23  C10 UNL     1      33.261  33.089  68.123  1.00  0.00     0.012 C 
HETATM   24  C11 UNL     1      31.806  32.940  68.514  1.00  0.00     0.001 C 
HETATM   25  C12 UNL     1      31.806  31.674  69.328  1.00  0.00     0.001 C 
HETATM   26  C13 UNL     1      32.763  30.785  68.534  1.00  0.00     0.012 C 
ENDBRANCH   9  22
TORSDOF 6
ENDMDL
MODEL 4
REMARK VINA RESULT: -6.424591703      1.977      2.757
REMARK  6 active torsions:
REMARK  status: ('A' for Active; 'I' for Inactive)
REMARK    1  A    between atoms: C2_2  and  N1_4 
REMARK    2  A    between atoms: N1_4  and  C4_6 
REMARK    3  A    between atoms: C4_6  and  C5_7 
REMARK    4  A    between atoms: C5_7  and  N2_8 
REMARK    5  A    between atoms: C5_7  and  C14_24 
REMARK    6  A    between atoms: C8_16  and  C9_17 
ROOT
HETATM    1  N2  UNL     1      37.978  35.033  70.917  1.00  0.00    -0.220 N 
ATOM      2  H2  UNL     1      38.128  35.725  71.652  1.00  0.00     0.178 HD
HETATM    3  C6  UNL     1      37.000  34.243  71.110  1.00  0.00     0.676 A 
HETATM    4  N3  UNL     1      36.241  34.418  72.319  1.00  0.00    -0.210 N 
ATOM      5  H3  UNL     1      36.502  35.162  72.966  1.00  0.00     0.179 HD
HETATM    6  C7  UNL     1      35.122  33.569  72.639  1.00  0.00     0.263 A 
HETATM    7  N4  UNL     1      34.848  32.579  71.649  1.00  0.00    -0.362 N 
ATOM      8  H4  UNL     1      34.056  31.961  71.826  1.00  0.00     0.162 HD
HETATM    9  C8  UNL     1      35.491  32.388  70.566  1.00  0.00     0.098 A 
HETATM   10  N5  UNL     1      36.596  33.200  70.233  1.00  0.00    -0.181 N 
ATOM     11  H5  UNL     1      37.105  33.038  69.363  1.00  0.00     0.185 HD
ENDROOT
BRANCH   1  12
HETATM   12  C5  UNL     1      38.890  35.096  69.833  1.00  0.00     0.120 C 
BRANCH  12  13
HETATM   13  C4  UNL     1      38.277  35.783  68.623  1.00  0.00     0.140 C 
BRANCH  13  14
HETATM   14  N1  UNL     1      37.640  36.981  69.061  1.00  0.00    -0.416 N 
ATOM     15  H1  UNL     1      37.130  37.036  69.943  1.00  0.00     0.153 HD
BRANCH  14  16
HETATM   16  C2  UNL     1      37.765  38.097  68.181  1.00  0.00     0.068 C 
HETATM   17  C1  UNL     1      38.398  37.780  66.859  1.00  0.00     0.031 C 
HETATM   18  C3  UNL     1      38.619  39.143  68.866  1.00  0.00     0.031 C 
ENDBRANCH  14  16
ENDBRANCH  13  14
ENDBRANCH  12  13
BRANCH  12  19
HETATM   19  C14 UNL     1      40.091  35.972  70.222  1.00  0.00     0.002 C 
HETATM   20  C15 UNL     1      39.894  36.552  71.609  1.00  0.00     0.011 C 
HETATM   21  C16 UNL     1      41.367  35.167  70.256  1.00  0.00     0.011 C 
ENDBRANCH  12  19
ENDBRANCH   1  12
BRANCH   9  22
HETATM   22  C9  UNL     1      35.097  31.300  69.597  1.00  0.00     0.054 C 
HETATM   23  C10 UNL     1      34.851  31.837  68.219  1.00  0.00     0.012 C 
HETATM   24  C11 UNL     1      33.373  31.667  67.938  1.00  0.00     0.001 C 
HETATM   25  C12 UNL     1      32.781  31.548  69.317  1.00  0.00     0.001 C 
HETATM   26  C13 UNL     1      33.809  30.670  70.030  1.00  0.00     0.012 C 
ENDBRANCH   9  22
TORSDOF 6
ENDMDL
MODEL 5
REMARK VINA RESULT: -6.344037267      2.286      3.441
REMARK  6 active torsions:
REMARK  status: ('A' for Active; 'I' for Inactive)
REMARK    1  A    between atoms: C2_2  and  N1_4 
REMARK    2  A    between atoms: N1_4  and  C4_6 
REMARK    3  A    between atoms: C4_6  and  C5_7 
REMARK    4  A    between atoms: C5_7  and  N2_8 
REMARK    5  A    between atoms: C5_7  and  C14_24 
REMARK    6  A    between atoms: C8_16  and  C9_17 
ROOT
HETATM    1  N2  UNL     1      37.898  35.647  71.177  1.00  0.00    -0.220 N 
ATOM      2  H2  UNL     1      38.152  36.574  71.519  1.00  0.00     0.178 HD
HETATM    3  C6  UNL     1      36.983  35.059  71.838  1.00  0.00     0.676 A 
HETATM    4  N3  UNL     1      36.430  35.761  72.964  1.00  0.00    -0.210 N 
ATOM      5  H3  UNL     1      36.777  36.693  73.188  1.00  0.00     0.179 HD
HETATM    6  C7  UNL     1      35.398  35.181  73.785  1.00  0.00     0.263 A 
HETATM    7  N4  UNL     1      34.987  33.882  73.361  1.00  0.00    -0.362 N 
ATOM      8  H4  UNL     1      34.248  33.435  73.905  1.00  0.00     0.162 HD
HETATM    9  C8  UNL     1      35.446  33.224  72.372  1.00  0.00     0.098 A 
HETATM   10  N5  UNL     1      36.463  33.766  71.557  1.00  0.00    -0.181 N 
ATOM     11  H5  UNL     1      36.824  33.231  70.768  1.00  0.00     0.185 HD
ENDROOT
BRANCH   1  12
HETATM   12  C5  UNL     1      38.617  35.205  70.038  1.00  0.00     0.120 C 
BRANCH  12  13
HETATM   13  C4  UNL     1      37.890  35.552  68.747  1.00  0.00     0.140 C 
BRANCH  13  14
HETATM   14  N1  UNL     1      38.708  36.449  67.999  1.00  0.00    -0.416 N 
ATOM     15  H1  UNL     1      39.717  36.325  67.913  1.00  0.00     0.153 HD
BRANCH  14  16
HETATM   16  C2  UNL     1      38.016  37.533  67.379  1.00  0.00     0.068 C 
HETATM   17  C1  UNL     1      38.407  37.788  65.955  1.00  0.00     0.031 C 
HETATM   18  C3  UNL     1      38.305  38.790  68.172  1.00  0.00     0.031 C 
ENDBRANCH  14  16
ENDBRANCH  13  14
ENDBRANCH  12  13
BRANCH  12  19
HETATM   19  C14 UNL     1      39.956  35.953  69.953  1.00  0.00     0.002 C 
HETATM   20  C15 UNL     1      40.013  37.054  70.994  1.00  0.00     0.011 C 
HETATM   21  C16 UNL     1      41.117  35.027  70.224  1.00  0.00     0.011 C 
ENDBRANCH  12  19
ENDBRANCH   1  12
BRANCH   9  22
HETATM   22  C9  UNL     1      34.922  31.852  72.027  1.00  0.00     0.054 C 
HETATM   23  C10 UNL     1      35.052  31.552  70.563  1.00  0.00     0.012 C 
HETATM   24  C11 UNL     1      33.648  31.473  70.004  1.00  0.00     0.001 C 
HETATM   25  C12 UNL     1      32.839  32.236  71.017  1.00  0.00     0.001 C 
HETATM   26  C13 UNL     1      33.458  31.770  72.335  1.00  0.00     0.012 C 
ENDBRANCH   9  22
TORSDOF 6
ENDMDL
