MODEL 1
REMARK VINA RESULT: -6.846073305      0.000      0.000
REMARK  5 active torsions:
REMARK  status: ('A' for Active; 'I' for Inactive)
REMARK    1  A    between atoms: C2_2  and  O1_3 
REMARK    2  A    between atoms: O1_3  and  C3_4 
REMARK       I    between atoms: C3_4  and  N1_6 
REMARK    3  A    between atoms: N1_6  and  C4_7 
REMARK    4  A    between atoms: N1_6  and  C5_9 
REMARK    5  A    between atoms: C12_16  and  N2_17 
REMARK       I    between atoms: N2_17  and  C13_18 
ROOT
HETATM    1  C5  UNL     1      42.888  30.146  -0.040  1.00  0.00     0.017 C 
HETATM    2  C6  UNL     1      41.574  29.713   0.536  1.00  0.00     0.034 C 
HETATM    3  C7  UNL     1      40.865  31.042   0.917  1.00  0.00     0.015 C 
HETATM    4  C8  UNL     1      41.767  31.776   1.894  1.00  0.00    -0.012 C 
HETATM    5  C9  UNL     1      41.792  30.934   3.150  1.00  0.00     0.016 C 
HETATM    6  C10 UNL     1      42.520  29.628   2.823  1.00  0.00     0.048 C 
HETATM    7  C11 UNL     1      41.775  28.892   1.767  1.00  0.00     0.022 C 
HETATM    8  C12 UNL     1      43.906  30.025   2.311  1.00  0.00     0.080 C 
HETATM    9  C15 UNL     1      43.802  30.696   0.965  1.00  0.00     0.093 C 
HETATM   10  C16 UNL     1      43.123  32.063   1.330  1.00  0.00     0.022 C 
ENDROOT
BRANCH   1  11
HETATM   11  N1  UNL     1      43.312  29.357  -1.125  1.00  0.00    -0.241 N 
HETATM   12  C3  UNL     1      42.513  29.174  -2.318  1.00  0.00     0.373 C 
HETATM   13  O2  UNL     1      42.958  28.443  -3.215  1.00  0.00    -0.237 OA
BRANCH  12  14
HETATM   14  O1  UNL     1      41.286  29.763  -2.524  1.00  0.00    -0.304 OA
BRANCH  14  15
HETATM   15  C2  UNL     1      41.093  30.888  -3.346  1.00  0.00     0.176 C 
HETATM   16  C1  UNL     1      41.120  32.193  -2.618  1.00  0.00     0.034 C 
ENDBRANCH  14  15
ENDBRANCH  12  14
BRANCH  11  17
HETATM   17  C4  UNL     1      44.533  28.682  -1.159  1.00  0.00     0.364 C 
HETATM   18  O3  UNL     1      44.882  27.696  -0.459  1.00  0.00    -0.283 OA
ENDBRANCH  11  17
ENDBRANCH   1  11
BRANCH   8  19
HETATM   19  N2  UNL     1      44.950  29.234   2.592  1.00  0.00    -0.379 NA
HETATM   20  C13 UNL     1      46.011  28.432   2.876  1.00  0.00     0.287 C 
HETATM   21  C14 UNL     1      46.002  27.582   4.161  1.00  0.00     0.135 C 
HETATM   22  O4  UNL     1      47.084  28.244   2.231  1.00  0.00    -0.258 OA
ENDBRANCH   8  19
TORSDOF 5
ENDMDL
MODEL 2
REMARK VINA RESULT: -6.799913002      2.369      4.709
REMARK  5 active torsions:
REMARK  status: ('A' for Active; 'I' for Inactive)
REMARK    1  A    between atoms: C2_2  and  O1_3 
REMARK    2  A    between atoms: O1_3  and  C3_4 
REMARK       I    between atoms: C3_4  and  N1_6 
REMARK    3  A    between atoms: N1_6  and  C4_7 
REMARK    4  A    between atoms: N1_6  and  C5_9 
REMARK    5  A    between atoms: C12_16  and  N2_17 
REMARK       I    between atoms: N2_17  and  C13_18 
ROOT
HETATM    1  C5  UNL     1      43.512  29.981   1.701  1.00  0.00     0.017 C 
HETATM    2  C6  UNL     1      42.805  28.841   2.371  1.00  0.00     0.034 C 
HETATM    3  C7  UNL     1      43.606  28.610   3.682  1.00  0.00     0.015 C 
HETATM    4  C8  UNL     1      45.044  28.314   3.291  1.00  0.00    -0.012 C 
HETATM    5  C9  UNL     1      45.014  26.983   2.572  1.00  0.00     0.016 C 
HETATM    6  C10 UNL     1      44.263  27.181   1.253  1.00  0.00     0.048 C 
HETATM    7  C11 UNL     1      42.866  27.608   1.532  1.00  0.00     0.022 C 
HETATM    8  C12 UNL     1      45.009  28.282   0.495  1.00  0.00     0.080 C 
HETATM    9  C15 UNL     1      44.833  29.612   1.184  1.00  0.00     0.093 C 
HETATM   10  C16 UNL     1      45.670  29.417   2.497  1.00  0.00     0.022 C 
ENDROOT
BRANCH   1  11
HETATM   11  N1  UNL     1      42.644  30.872   1.045  1.00  0.00    -0.241 N 
HETATM   12  C3  UNL     1      41.914  31.909   1.743  1.00  0.00     0.373 C 
HETATM   13  O2  UNL     1      41.154  32.635   1.085  1.00  0.00    -0.237 OA
BRANCH  12  14
HETATM   14  O1  UNL     1      42.010  32.144   3.096  1.00  0.00    -0.304 OA
BRANCH  14  15
HETATM   15  C2  UNL     1      40.992  31.822   4.013  1.00  0.00     0.176 C 
HETATM   16  C1  UNL     1      40.226  33.001   4.519  1.00  0.00     0.034 C 
ENDBRANCH  14  15
ENDBRANCH  12  14
BRANCH  11  17
HETATM   17  C4  UNL     1      42.404  30.847  -0.330  1.00  0.00     0.364 C 
HETATM   18  O3  UNL     1      41.750  29.988  -0.977  1.00  0.00    -0.283 OA
ENDBRANCH  11  17
ENDBRANCH   1  11
BRANCH   8  19
HETATM   19  N2  UNL     1      45.075  28.218  -0.841  1.00  0.00    -0.379 NA
HETATM   20  C13 UNL     1      45.142  28.153  -2.198  1.00  0.00     0.287 C 
HETATM   21  C14 UNL     1      44.386  29.190  -3.050  1.00  0.00     0.135 C 
HETATM   22  O4  UNL     1      45.756  27.333  -2.943  1.00  0.00    -0.258 OA
ENDBRANCH   8  19
TORSDOF 5
ENDMDL
MODEL 3
REMARK VINA RESULT: -6.638313502      5.264      9.252
REMARK  5 active torsions:
REMARK  status: ('A' for Active; 'I' for Inactive)
REMARK    1  A    between atoms: C2_2  and  O1_3 
REMARK    2  A    between atoms: O1_3  and  C3_4 
REMARK       I    between atoms: C3_4  and  N1_6 
REMARK    3  A    between atoms: N1_6  and  C4_7 
REMARK    4  A    between atoms: N1_6  and  C5_9 
REMARK    5  A    between atoms: C12_16  and  N2_17 
REMARK       I    between atoms: N2_17  and  C13_18 
ROOT
HETATM    1  C5  UNL     1      49.524  25.350   3.893  1.00  0.00     0.017 C 
HETATM    2  C6  UNL     1      50.646  25.844   3.031  1.00  0.00     0.034 C 
HETATM    3  C7  UNL     1      51.806  26.115   4.028  1.00  0.00     0.015 C 
HETATM    4  C8  UNL     1      51.305  27.125   5.047  1.00  0.00    -0.012 C 
HETATM    5  C9  UNL     1      51.092  28.414   4.284  1.00  0.00     0.016 C 
HETATM    6  C10 UNL     1      49.928  28.198   3.315  1.00  0.00     0.048 C 
HETATM    7  C11 UNL     1      50.274  27.120   2.350  1.00  0.00     0.022 C 
HETATM    8  C12 UNL     1      48.731  27.774   4.169  1.00  0.00     0.080 C 
HETATM    9  C15 UNL     1      48.950  26.397   4.743  1.00  0.00     0.093 C 
HETATM   10  C16 UNL     1      50.094  26.653   5.787  1.00  0.00     0.022 C 
ENDROOT
BRANCH   1  11
HETATM   11  N1  UNL     1      48.759  24.335   3.291  1.00  0.00    -0.241 N 
HETATM   12  C3  UNL     1      49.356  23.220   2.586  1.00  0.00     0.373 C 
HETATM   13  O2  UNL     1      48.603  22.383   2.068  1.00  0.00    -0.237 OA
BRANCH  12  14
HETATM   14  O1  UNL     1      50.712  23.027   2.454  1.00  0.00    -0.304 OA
BRANCH  14  15
HETATM   15  C2  UNL     1      51.288  21.803   2.066  1.00  0.00     0.176 C 
HETATM   16  C1  UNL     1      51.679  20.919   3.206  1.00  0.00     0.034 C 
ENDBRANCH  14  15
ENDBRANCH  12  14
BRANCH  11  17
HETATM   17  C4  UNL     1      47.364  24.299   3.315  1.00  0.00     0.364 C 
HETATM   18  O3  UNL     1      46.569  25.058   2.704  1.00  0.00    -0.283 OA
ENDBRANCH  11  17
ENDBRANCH   1  11
BRANCH   8  19
HETATM   19  N2  UNL     1      47.503  28.165   3.803  1.00  0.00    -0.379 NA
HETATM   20  C13 UNL     1      46.257  28.561   3.431  1.00  0.00     0.287 C 
HETATM   21  C14 UNL     1      45.023  27.842   4.007  1.00  0.00     0.135 C 
HETATM   22  O4  UNL     1      45.899  29.482   2.637  1.00  0.00    -0.258 OA
ENDBRANCH   8  19
TORSDOF 5
ENDMDL
MODEL 4
REMARK VINA RESULT: -6.541987582      1.095      1.209
REMARK  5 active torsions:
REMARK  status: ('A' for Active; 'I' for Inactive)
REMARK    1  A    between atoms: C2_2  and  O1_3 
REMARK    2  A    between atoms: O1_3  and  C3_4 
REMARK       I    between atoms: C3_4  and  N1_6 
REMARK    3  A    between atoms: N1_6  and  C4_7 
REMARK    4  A    between atoms: N1_6  and  C5_9 
REMARK    5  A    between atoms: C12_16  and  N2_17 
REMARK       I    between atoms: N2_17  and  C13_18 
ROOT
HETATM    1  C5  UNL     1      43.088  29.699   0.088  1.00  0.00     0.017 C 
HETATM    2  C6  UNL     1      41.693  29.496   0.596  1.00  0.00     0.034 C 
HETATM    3  C7  UNL     1      41.112  30.932   0.710  1.00  0.00     0.015 C 
HETATM    4  C8  UNL     1      42.014  31.715   1.649  1.00  0.00    -0.012 C 
HETATM    5  C9  UNL     1      41.846  31.080   3.012  1.00  0.00     0.016 C 
HETATM    6  C10 UNL     1      42.443  29.672   2.949  1.00  0.00     0.048 C 
HETATM    7  C11 UNL     1      41.703  28.860   1.946  1.00  0.00     0.022 C 
HETATM    8  C12 UNL     1      43.900  29.843   2.517  1.00  0.00     0.080 C 
HETATM    9  C15 UNL     1      43.978  30.304   1.083  1.00  0.00     0.093 C 
HETATM   10  C16 UNL     1      43.433  31.773   1.179  1.00  0.00     0.022 C 
ENDROOT
BRANCH   1  11
HETATM   11  N1  UNL     1      43.503  28.713  -0.824  1.00  0.00    -0.241 N 
HETATM   12  C3  UNL     1      43.763  28.998  -2.220  1.00  0.00     0.373 C 
HETATM   13  O2  UNL     1      44.104  28.061  -2.956  1.00  0.00    -0.237 OA
BRANCH  12  14
HETATM   14  O1  UNL     1      43.657  30.249  -2.785  1.00  0.00    -0.304 OA
BRANCH  14  15
HETATM   15  C2  UNL     1      42.616  30.621  -3.656  1.00  0.00     0.176 C 
HETATM   16  C1  UNL     1      41.255  30.586  -3.037  1.00  0.00     0.034 C 
ENDBRANCH  14  15
ENDBRANCH  12  14
BRANCH  11  17
HETATM   17  C4  UNL     1      43.706  27.375  -0.480  1.00  0.00     0.364 C 
HETATM   18  O3  UNL     1      44.536  26.916   0.347  1.00  0.00    -0.283 OA
ENDBRANCH  11  17
ENDBRANCH   1  11
BRANCH   8  19
HETATM   19  N2  UNL     1      44.823  29.005   3.007  1.00  0.00    -0.379 NA
HETATM   20  C13 UNL     1      45.761  28.154   3.504  1.00  0.00     0.287 C 
HETATM   21  C14 UNL     1      47.097  27.970   2.760  1.00  0.00     0.135 C 
HETATM   22  O4  UNL     1      45.732  27.430   4.543  1.00  0.00    -0.258 OA
ENDBRANCH   8  19
TORSDOF 5
ENDMDL
MODEL 5
REMARK VINA RESULT: -6.429810013      2.387      4.647
REMARK  5 active torsions:
REMARK  status: ('A' for Active; 'I' for Inactive)
REMARK    1  A    between atoms: C2_2  and  O1_3 
REMARK    2  A    between atoms: O1_3  and  C3_4 
REMARK       I    between atoms: C3_4  and  N1_6 
REMARK    3  A    between atoms: N1_6  and  C4_7 
REMARK    4  A    between atoms: N1_6  and  C5_9 
REMARK    5  A    between atoms: C12_16  and  N2_17 
REMARK       I    between atoms: N2_17  and  C13_18 
ROOT
HETATM    1  C5  UNL     1      43.863  27.900   0.607  1.00  0.00     0.017 C 
HETATM    2  C6  UNL     1      45.293  27.866   1.054  1.00  0.00     0.034 C 
HETATM    3  C7  UNL     1      45.347  26.699   2.079  1.00  0.00     0.015 C 
HETATM    4  C8  UNL     1      44.352  27.014   3.182  1.00  0.00    -0.012 C 
HETATM    5  C9  UNL     1      44.896  28.231   3.897  1.00  0.00     0.016 C 
HETATM    6  C10 UNL     1      44.822  29.415   2.929  1.00  0.00     0.048 C 
HETATM    7  C11 UNL     1      45.669  29.138   1.738  1.00  0.00     0.022 C 
HETATM    8  C12 UNL     1      43.355  29.539   2.514  1.00  0.00     0.080 C 
HETATM    9  C15 UNL     1      42.947  28.373   1.650  1.00  0.00     0.093 C 
HETATM   10  C16 UNL     1      42.955  27.184   2.674  1.00  0.00     0.022 C 
ENDROOT
BRANCH   1  11
HETATM   11  N1  UNL     1      43.708  28.206  -0.757  1.00  0.00    -0.241 N 
HETATM   12  C3  UNL     1      44.081  27.286  -1.811  1.00  0.00     0.373 C 
HETATM   13  O2  UNL     1      43.930  27.649  -2.986  1.00  0.00    -0.237 OA
BRANCH  12  14
HETATM   14  O1  UNL     1      44.595  26.028  -1.593  1.00  0.00    -0.304 OA
BRANCH  14  15
HETATM   15  C2  UNL     1      44.557  24.997  -2.550  1.00  0.00     0.176 C 
HETATM   16  C1  UNL     1      45.825  24.829  -3.323  1.00  0.00     0.034 C 
ENDBRANCH  14  15
ENDBRANCH  12  14
BRANCH  11  17
HETATM   17  C4  UNL     1      43.183  29.411  -1.225  1.00  0.00     0.364 C 
HETATM   18  O3  UNL     1      41.970  29.722  -1.346  1.00  0.00    -0.283 OA
ENDBRANCH  11  17
ENDBRANCH   1  11
BRANCH   8  19
HETATM   19  N2  UNL     1      42.848  30.758   2.285  1.00  0.00    -0.379 NA
HETATM   20  C13 UNL     1      42.333  31.995   2.053  1.00  0.00     0.287 C 
HETATM   21  C14 UNL     1      42.524  32.655   0.674  1.00  0.00     0.135 C 
HETATM   22  O4  UNL     1      41.679  32.761   2.821  1.00  0.00    -0.258 OA
ENDBRANCH   8  19
TORSDOF 5
ENDMDL
