MODEL 1
REMARK VINA RESULT: -7.969574050      0.000      0.000
REMARK  4 active torsions:
REMARK  status: ('A' for Active; 'I' for Inactive)
REMARK       I    between atoms: C1_2  and  N1_3 
REMARK    1  A    between atoms: C1_2  and  C8_13 
REMARK    2  A    between atoms: N1_3  and  C2_5 
REMARK    3  A    between atoms: C2_5  and  C3_6 
REMARK    4  A    between atoms: C3_6  and  N2_7 
ROOT
HETATM    1  O1  UNL     1      45.606  26.403   2.057  1.00  0.00    -0.273 OA
HETATM    2  C1  UNL     1      45.253  27.409   2.722  1.00  0.00     0.226 C 
HETATM    3  N1  UNL     1      45.809  27.574   4.016  1.00  0.00    -0.359 N 
ATOM      4  H1  UNL     1      45.514  28.387   4.558  1.00  0.00     0.162 HD
ENDROOT
BRANCH   2   5
HETATM    5  C8  UNL     1      44.284  28.381   2.146  1.00  0.00     0.042 C 
HETATM    6  C9  UNL     1      44.168  28.290   0.658  1.00  0.00     0.024 C 
HETATM    7  C10 UNL     1      43.123  29.294   0.205  1.00  0.00    -0.013 C 
HETATM    8  C11 UNL     1      43.539  30.709   0.563  1.00  0.00     0.009 C 
HETATM    9  C15 UNL     1      41.774  29.044   0.851  1.00  0.00     0.009 C 
HETATM   10  C12 UNL     1      43.738  30.803   2.040  1.00  0.00    -0.013 C 
HETATM   11  C13 UNL     1      42.449  30.495   2.767  1.00  0.00     0.009 C 
HETATM   12  C17 UNL     1      44.771  29.781   2.463  1.00  0.00     0.024 C 
HETATM   13  C14 UNL     1      41.929  29.152   2.357  1.00  0.00    -0.013 C 
HETATM   14  C16 UNL     1      42.946  28.110   2.774  1.00  0.00     0.024 C 
ENDBRANCH   2   5
BRANCH   3  15
HETATM   15  C2  UNL     1      46.756  26.678   4.619  1.00  0.00     0.152 C 
BRANCH  15  16
HETATM   16  C3  UNL     1      48.000  27.326   5.140  1.00  0.00     0.292 C 
BRANCH  16  17
HETATM   17  N2  UNL     1      49.207  26.900   4.496  1.00  0.00     0.091 N 
HETATM   18  C4  UNL     1      50.098  27.975   4.136  1.00  0.00     0.282 C 
HETATM   19  C5  UNL     1      51.511  27.436   4.409  1.00  0.00     0.104 C 
HETATM   20  S1  UNL     1      51.697  25.994   3.315  1.00  0.00    -0.166 SA
HETATM   21  C6  UNL     1      50.120  25.259   2.899  1.00  0.00     0.104 C 
HETATM   22  C7  UNL     1      48.934  26.002   3.414  1.00  0.00     0.282 C 
ENDBRANCH  16  17
ENDBRANCH  15  16
ENDBRANCH   3  15
TORSDOF 4
ENDMDL
MODEL 2
REMARK VINA RESULT: -7.963601190      0.662      1.279
REMARK  4 active torsions:
REMARK  status: ('A' for Active; 'I' for Inactive)
REMARK       I    between atoms: C1_2  and  N1_3 
REMARK    1  A    between atoms: C1_2  and  C8_13 
REMARK    2  A    between atoms: N1_3  and  C2_5 
REMARK    3  A    between atoms: C2_5  and  C3_6 
REMARK    4  A    between atoms: C3_6  and  N2_7 
ROOT
HETATM    1  O1  UNL     1      46.756  27.653   2.015  1.00  0.00    -0.273 OA
HETATM    2  C1  UNL     1      45.721  27.839   2.702  1.00  0.00     0.226 C 
HETATM    3  N1  UNL     1      45.684  27.282   4.006  1.00  0.00    -0.359 N 
ATOM      4  H1  UNL     1      44.839  27.427   4.559  1.00  0.00     0.162 HD
ENDROOT
BRANCH   2   5
HETATM    5  C8  UNL     1      44.587  28.626   2.144  1.00  0.00     0.042 C 
HETATM    6  C9  UNL     1      44.472  28.524   0.656  1.00  0.00     0.024 C 
HETATM    7  C10 UNL     1      43.259  29.328   0.223  1.00  0.00    -0.013 C 
HETATM    8  C11 UNL     1      43.419  30.792   0.588  1.00  0.00     0.009 C 
HETATM    9  C15 UNL     1      41.985  28.836   0.880  1.00  0.00     0.009 C 
HETATM   10  C12 UNL     1      43.615  30.911   2.063  1.00  0.00    -0.013 C 
HETATM   11  C13 UNL     1      42.410  30.373   2.800  1.00  0.00     0.009 C 
HETATM   12  C17 UNL     1      44.819  30.088   2.467  1.00  0.00     0.024 C 
HETATM   13  C14 UNL     1      42.135  28.961   2.385  1.00  0.00    -0.013 C 
HETATM   14  C16 UNL     1      43.327  28.115   2.783  1.00  0.00     0.024 C 
ENDBRANCH   2   5
BRANCH   3  15
HETATM   15  C2  UNL     1      46.750  26.527   4.602  1.00  0.00     0.152 C 
BRANCH  15  16
HETATM   16  C3  UNL     1      47.895  27.342   5.115  1.00  0.00     0.292 C 
BRANCH  16  17
HETATM   17  N2  UNL     1      49.174  26.967   4.590  1.00  0.00     0.091 N 
HETATM   18  C4  UNL     1      49.162  25.758   3.804  1.00  0.00     0.282 C 
HETATM   19  C5  UNL     1      50.138  26.019   2.646  1.00  0.00     0.104 C 
HETATM   20  S1  UNL     1      51.753  26.310   3.433  1.00  0.00    -0.166 SA
HETATM   21  C6  UNL     1      51.584  26.916   5.109  1.00  0.00     0.104 C 
HETATM   22  C7  UNL     1      50.180  26.972   5.609  1.00  0.00     0.282 C 
ENDBRANCH  16  17
ENDBRANCH  15  16
ENDBRANCH   3  15
TORSDOF 4
ENDMDL
MODEL 3
REMARK VINA RESULT: -7.913980639      0.270      1.708
REMARK  4 active torsions:
REMARK  status: ('A' for Active; 'I' for Inactive)
REMARK       I    between atoms: C1_2  and  N1_3 
REMARK    1  A    between atoms: C1_2  and  C8_13 
REMARK    2  A    between atoms: N1_3  and  C2_5 
REMARK    3  A    between atoms: C2_5  and  C3_6 
REMARK    4  A    between atoms: C3_6  and  N2_7 
ROOT
HETATM    1  O1  UNL     1      45.653  26.345   2.145  1.00  0.00    -0.273 OA
HETATM    2  C1  UNL     1      45.274  27.305   2.862  1.00  0.00     0.226 C 
HETATM    3  N1  UNL     1      45.861  27.444   4.145  1.00  0.00    -0.359 N 
ATOM      4  H1  UNL     1      45.546  28.219   4.729  1.00  0.00     0.162 HD
ENDROOT
BRANCH   2   5
HETATM    5  C8  UNL     1      44.244  28.252   2.354  1.00  0.00     0.042 C 
HETATM    6  C9  UNL     1      42.965  28.205   3.127  1.00  0.00     0.024 C 
HETATM    7  C10 UNL     1      42.023  29.243   2.541  1.00  0.00    -0.013 C 
HETATM    8  C11 UNL     1      41.712  28.934   1.088  1.00  0.00     0.009 C 
HETATM    9  C15 UNL     1      42.612  30.639   2.589  1.00  0.00     0.009 C 
HETATM   10  C12 UNL     1      42.986  28.897   0.311  1.00  0.00    -0.013 C 
HETATM   11  C13 UNL     1      43.677  30.240   0.367  1.00  0.00     0.009 C 
HETATM   12  C17 UNL     1      43.909  27.868   0.927  1.00  0.00     0.024 C 
HETATM   13  C14 UNL     1      43.902  30.649   1.790  1.00  0.00    -0.013 C 
HETATM   14  C16 UNL     1      44.827  29.634   2.428  1.00  0.00     0.024 C 
ENDBRANCH   2   5
BRANCH   3  15
HETATM   15  C2  UNL     1      46.867  26.571   4.682  1.00  0.00     0.152 C 
BRANCH  15  16
HETATM   16  C3  UNL     1      48.107  27.253   5.167  1.00  0.00     0.292 C 
BRANCH  16  17
HETATM   17  N2  UNL     1      49.310  26.836   4.511  1.00  0.00     0.091 N 
HETATM   18  C4  UNL     1      50.212  27.913   4.185  1.00  0.00     0.282 C 
HETATM   19  C5  UNL     1      51.620  27.352   4.442  1.00  0.00     0.104 C 
HETATM   20  S1  UNL     1      51.793  25.943   3.303  1.00  0.00    -0.166 SA
HETATM   21  C6  UNL     1      50.209  25.236   2.864  1.00  0.00     0.104 C 
HETATM   22  C7  UNL     1      49.030  25.975   3.401  1.00  0.00     0.282 C 
ENDBRANCH  16  17
ENDBRANCH  15  16
ENDBRANCH   3  15
TORSDOF 4
ENDMDL
MODEL 4
REMARK VINA RESULT: -7.887841519      0.650      2.102
REMARK  4 active torsions:
REMARK  status: ('A' for Active; 'I' for Inactive)
REMARK       I    between atoms: C1_2  and  N1_3 
REMARK    1  A    between atoms: C1_2  and  C8_13 
REMARK    2  A    between atoms: N1_3  and  C2_5 
REMARK    3  A    between atoms: C2_5  and  C3_6 
REMARK    4  A    between atoms: C3_6  and  N2_7 
ROOT
HETATM    1  O1  UNL     1      46.448  27.722   1.878  1.00  0.00    -0.273 OA
HETATM    2  C1  UNL     1      45.480  27.889   2.662  1.00  0.00     0.226 C 
HETATM    3  N1  UNL     1      45.558  27.289   3.945  1.00  0.00    -0.359 N 
ATOM      4  H1  UNL     1      44.767  27.417   4.576  1.00  0.00     0.162 HD
ENDROOT
BRANCH   2   5
HETATM    5  C8  UNL     1      44.305  28.695   2.234  1.00  0.00     0.042 C 
HETATM    6  C9  UNL     1      43.078  28.432   3.048  1.00  0.00     0.024 C 
HETATM    7  C10 UNL     1      41.974  29.344   2.542  1.00  0.00    -0.013 C 
HETATM    8  C11 UNL     1      41.651  29.051   1.088  1.00  0.00     0.009 C 
HETATM    9  C15 UNL     1      42.358  30.808   2.633  1.00  0.00     0.009 C 
HETATM   10  C12 UNL     1      42.885  29.232   0.267  1.00  0.00    -0.013 C 
HETATM   11  C13 UNL     1      43.378  30.658   0.360  1.00  0.00     0.009 C 
HETATM   12  C17 UNL     1      43.970  28.323   0.803  1.00  0.00     0.024 C 
HETATM   13  C14 UNL     1      43.599  31.038   1.791  1.00  0.00    -0.013 C 
HETATM   14  C16 UNL     1      44.686  30.144   2.351  1.00  0.00     0.024 C 
ENDBRANCH   2   5
BRANCH   3  15
HETATM   15  C2  UNL     1      46.670  26.512   4.418  1.00  0.00     0.152 C 
BRANCH  15  16
HETATM   16  C3  UNL     1      47.794  27.305   5.005  1.00  0.00     0.292 C 
BRANCH  16  17
HETATM   17  N2  UNL     1      49.094  26.934   4.531  1.00  0.00     0.091 N 
HETATM   18  C4  UNL     1      49.123  25.703   3.781  1.00  0.00     0.282 C 
HETATM   19  C5  UNL     1      50.132  25.945   2.647  1.00  0.00     0.104 C 
HETATM   20  S1  UNL     1      51.717  26.282   3.475  1.00  0.00    -0.166 SA
HETATM   21  C6  UNL     1      51.487  26.933   5.126  1.00  0.00     0.104 C 
HETATM   22  C7  UNL     1      50.067  26.983   5.581  1.00  0.00     0.282 C 
ENDBRANCH  16  17
ENDBRANCH  15  16
ENDBRANCH   3  15
TORSDOF 4
ENDMDL
MODEL 5
REMARK VINA RESULT: -7.887264067      1.288      1.488
REMARK  4 active torsions:
REMARK  status: ('A' for Active; 'I' for Inactive)
REMARK       I    between atoms: C1_2  and  N1_3 
REMARK    1  A    between atoms: C1_2  and  C8_13 
REMARK    2  A    between atoms: N1_3  and  C2_5 
REMARK    3  A    between atoms: C2_5  and  C3_6 
REMARK    4  A    between atoms: C3_6  and  N2_7 
ROOT
HETATM    1  O1  UNL     1      46.756  28.592   3.948  1.00  0.00    -0.273 OA
HETATM    2  C1  UNL     1      45.977  27.824   3.329  1.00  0.00     0.226 C 
HETATM    3  N1  UNL     1      46.183  26.427   3.460  1.00  0.00    -0.359 N 
ATOM      4  H1  UNL     1      45.554  25.806   2.950  1.00  0.00     0.162 HD
ENDROOT
BRANCH   2   5
HETATM    5  C8  UNL     1      44.880  28.389   2.495  1.00  0.00     0.042 C 
HETATM    6  C9  UNL     1      44.937  27.951   1.067  1.00  0.00     0.024 C 
HETATM    7  C10 UNL     1      43.748  28.556   0.342  1.00  0.00    -0.013 C 
HETATM    8  C11 UNL     1      43.805  30.072   0.376  1.00  0.00     0.009 C 
HETATM    9  C15 UNL     1      42.429  28.140   0.964  1.00  0.00     0.009 C 
HETATM   10  C12 UNL     1      43.829  30.530   1.798  1.00  0.00    -0.013 C 
HETATM   11  C13 UNL     1      42.573  30.091   2.515  1.00  0.00     0.009 C 
HETATM   12  C17 UNL     1      45.014  29.899   2.497  1.00  0.00     0.024 C 
HETATM   13  C14 UNL     1      42.405  28.607   2.408  1.00  0.00    -0.013 C 
HETATM   14  C16 UNL     1      43.580  27.952   3.106  1.00  0.00     0.024 C 
ENDBRANCH   2   5
BRANCH   3  15
HETATM   15  C2  UNL     1      47.213  25.825   4.259  1.00  0.00     0.152 C 
BRANCH  15  16
HETATM   16  C3  UNL     1      48.457  25.454   3.516  1.00  0.00     0.292 C 
BRANCH  16  17
HETATM   17  N2  UNL     1      49.621  26.197   3.899  1.00  0.00     0.091 N 
HETATM   18  C4  UNL     1      49.491  26.901   5.150  1.00  0.00     0.282 C 
HETATM   19  C5  UNL     1      50.863  26.770   5.832  1.00  0.00     0.104 C 
HETATM   20  S1  UNL     1      52.040  27.581   4.707  1.00  0.00    -0.166 SA
HETATM   21  C6  UNL     1      51.462  27.578   3.013  1.00  0.00     0.104 C 
HETATM   22  C7  UNL     1      50.090  27.024   2.827  1.00  0.00     0.282 C 
ENDBRANCH  16  17
ENDBRANCH  15  16
ENDBRANCH   3  15
TORSDOF 4
ENDMDL
