MODEL 1
REMARK VINA RESULT: -7.767884789      0.000      0.000
REMARK  4 active torsions:
REMARK  status: ('A' for Active; 'I' for Inactive)
REMARK    1  A    between atoms: C7_7  and  N1_8 
REMARK       I    between atoms: N1_8  and  C9_10 
REMARK    2  A    between atoms: C9_10  and  C10_12 
REMARK    3  A    between atoms: C10_12  and  S1_13 
REMARK    4  A    between atoms: S1_13  and  C11_14 
ROOT
HETATM    1  C1  UNL     1      48.524  23.884   3.239  1.00  0.00     0.013 C 
HETATM    2  C2  UNL     1      49.047  24.954   3.344  1.00  0.00    -0.105 C 
HETATM    3  C3  UNL     1      49.700  26.232   3.456  1.00  0.00     0.045 A 
HETATM    4  C4  UNL     1      50.853  26.409   2.465  1.00  0.00     0.032 C 
HETATM    5  C5  UNL     1      50.080  26.635   4.900  1.00  0.00     0.028 A 
HETATM    6  C6  UNL     1      51.487  27.129   5.125  1.00  0.00     0.014 C 
HETATM    7  C7  UNL     1      49.127  27.436   4.045  1.00  0.00     0.112 A 
ENDROOT
BRANCH   7   8
HETATM    8  N1  UNL     1      47.801  27.578   4.552  1.00  0.00    -0.349 N 
HETATM    9  C8  UNL     1      47.460  27.316   5.936  1.00  0.00     0.153 C 
HETATM   10  C9  UNL     1      46.760  27.995   3.680  1.00  0.00     0.229 C 
HETATM   11  O1  UNL     1      45.588  28.104   4.175  1.00  0.00    -0.273 OA
BRANCH  10  12
HETATM   12  C10 UNL     1      46.929  28.307   2.250  1.00  0.00     0.185 C 
BRANCH  12  13
HETATM   13  S1  UNL     1      45.434  27.976   1.316  1.00  0.00    -0.085 SA
BRANCH  13  14
HETATM   14  C11 UNL     1      44.412  29.391   1.076  1.00  0.00     0.147 A 
HETATM   15  N2  UNL     1      44.124  30.227   2.086  1.00  0.00    -0.304 N 
HETATM   16  C12 UNL     1      43.349  31.299   1.893  1.00  0.00     0.249 A 
ATOM     17  H2  UNL     1      44.501  30.041   3.015  1.00  0.00     0.171 HD
HETATM   18  O2  UNL     1      43.048  32.112   2.796  1.00  0.00    -0.268 OA
HETATM   19  C13 UNL     1      42.845  31.541   0.632  1.00  0.00     0.099 A 
HETATM   20  C14 UNL     1      43.133  30.695  -0.402  1.00  0.00     0.012 A 
HETATM   21  C15 UNL     1      42.572  30.984  -1.749  1.00  0.00     0.068 C 
HETATM   22  N3  UNL     1      43.915  29.635  -0.148  1.00  0.00    -0.341 N 
ATOM     23  H3  UNL     1      44.140  28.994  -0.908  1.00  0.00     0.167 HD
ENDBRANCH  13  14
ENDBRANCH  12  13
ENDBRANCH  10  12
ENDBRANCH   7   8
TORSDOF 4
ENDMDL
MODEL 2
REMARK VINA RESULT: -7.457857640      2.540      7.660
REMARK  4 active torsions:
REMARK  status: ('A' for Active; 'I' for Inactive)
REMARK    1  A    between atoms: C7_7  and  N1_8 
REMARK       I    between atoms: N1_8  and  C9_10 
REMARK    2  A    between atoms: C9_10  and  C10_12 
REMARK    3  A    between atoms: C10_12  and  S1_13 
REMARK    4  A    between atoms: S1_13  and  C11_14 
ROOT
HETATM    1  C1  UNL     1      41.570  30.152  -0.145  1.00  0.00     0.013 C 
HETATM    2  C2  UNL     1      42.571  29.506  -0.243  1.00  0.00    -0.105 C 
HETATM    3  C3  UNL     1      43.779  28.736  -0.387  1.00  0.00     0.045 A 
HETATM    4  C4  UNL     1      44.591  29.116  -1.628  1.00  0.00     0.032 C 
HETATM    5  C5  UNL     1      43.589  27.208  -0.237  1.00  0.00     0.028 A 
HETATM    6  C6  UNL     1      44.209  26.334  -1.298  1.00  0.00     0.014 C 
HETATM    7  C7  UNL     1      44.472  28.024   0.678  1.00  0.00     0.112 A 
ENDROOT
BRANCH   7   8
HETATM    8  N1  UNL     1      44.115  28.018   2.060  1.00  0.00    -0.349 N 
HETATM    9  C8  UNL     1      42.739  27.963   2.512  1.00  0.00     0.153 C 
HETATM   10  C9  UNL     1      45.136  28.064   3.046  1.00  0.00     0.229 C 
HETATM   11  O1  UNL     1      44.771  28.062   4.270  1.00  0.00    -0.273 OA
BRANCH  10  12
HETATM   12  C10 UNL     1      46.582  28.117   2.765  1.00  0.00     0.185 C 
BRANCH  12  13
HETATM   13  S1  UNL     1      47.556  27.921   4.257  1.00  0.00    -0.085 SA
BRANCH  13  14
HETATM   14  C11 UNL     1      49.159  27.244   3.981  1.00  0.00     0.147 A 
HETATM   15  N2  UNL     1      50.266  27.861   4.421  1.00  0.00    -0.304 N 
HETATM   16  C12 UNL     1      51.477  27.337   4.209  1.00  0.00     0.249 A 
ATOM     17  H2  UNL     1      50.183  28.743   4.926  1.00  0.00     0.171 HD
HETATM   18  O2  UNL     1      52.543  27.868   4.597  1.00  0.00    -0.268 OA
HETATM   19  C13 UNL     1      51.579  26.143   3.526  1.00  0.00     0.099 A 
HETATM   20  C14 UNL     1      50.457  25.507   3.073  1.00  0.00     0.012 A 
HETATM   21  C15 UNL     1      50.601  24.222   2.340  1.00  0.00     0.068 C 
HETATM   22  N3  UNL     1      49.268  26.082   3.316  1.00  0.00    -0.341 N 
ATOM     23  H3  UNL     1      48.421  25.620   2.986  1.00  0.00     0.167 HD
ENDBRANCH  13  14
ENDBRANCH  12  13
ENDBRANCH  10  12
ENDBRANCH   7   8
TORSDOF 4
ENDMDL
MODEL 3
REMARK VINA RESULT: -7.371778608      1.405      1.493
REMARK  4 active torsions:
REMARK  status: ('A' for Active; 'I' for Inactive)
REMARK    1  A    between atoms: C7_7  and  N1_8 
REMARK       I    between atoms: N1_8  and  C9_10 
REMARK    2  A    between atoms: C9_10  and  C10_12 
REMARK    3  A    between atoms: C10_12  and  S1_13 
REMARK    4  A    between atoms: S1_13  and  C11_14 
ROOT
HETATM    1  C1  UNL     1      50.241  23.694   2.283  1.00  0.00     0.013 C 
HETATM    2  C2  UNL     1      50.079  24.816   2.661  1.00  0.00    -0.105 C 
HETATM    3  C3  UNL     1      49.911  26.173   3.111  1.00  0.00     0.045 A 
HETATM    4  C4  UNL     1      51.069  27.090   2.707  1.00  0.00     0.032 C 
HETATM    5  C5  UNL     1      49.526  26.313   4.602  1.00  0.00     0.028 A 
HETATM    6  C6  UNL     1      50.318  27.299   5.425  1.00  0.00     0.014 C 
HETATM    7  C7  UNL     1      48.649  26.804   3.475  1.00  0.00     0.112 A 
ENDROOT
BRANCH   7   8
HETATM    8  N1  UNL     1      47.354  26.211   3.387  1.00  0.00    -0.349 N 
HETATM    9  C8  UNL     1      47.075  24.868   3.853  1.00  0.00     0.153 C 
HETATM   10  C9  UNL     1      46.282  26.954   2.824  1.00  0.00     0.229 C 
HETATM   11  O1  UNL     1      45.142  26.383   2.760  1.00  0.00    -0.273 OA
BRANCH  10  12
HETATM   12  C10 UNL     1      46.386  28.329   2.307  1.00  0.00     0.185 C 
BRANCH  12  13
HETATM   13  S1  UNL     1      45.232  28.625   0.967  1.00  0.00    -0.085 SA
BRANCH  13  14
HETATM   14  C11 UNL     1      44.083  29.922   1.285  1.00  0.00     0.147 A 
HETATM   15  N2  UNL     1      43.453  30.027   2.465  1.00  0.00    -0.304 N 
HETATM   16  C12 UNL     1      42.585  31.017   2.697  1.00  0.00     0.249 A 
ATOM     17  H2  UNL     1      43.639  29.341   3.197  1.00  0.00     0.171 HD
HETATM   18  O2  UNL     1      41.970  31.164   3.778  1.00  0.00    -0.268 OA
HETATM   19  C13 UNL     1      42.341  31.939   1.701  1.00  0.00     0.099 A 
HETATM   20  C14 UNL     1      42.977  31.840   0.496  1.00  0.00     0.012 A 
HETATM   21  C15 UNL     1      42.691  32.851  -0.557  1.00  0.00     0.068 C 
HETATM   22  N3  UNL     1      43.838  30.825   0.321  1.00  0.00    -0.341 N 
ATOM     23  H3  UNL     1      44.322  30.737  -0.572  1.00  0.00     0.167 HD
ENDBRANCH  13  14
ENDBRANCH  12  13
ENDBRANCH  10  12
ENDBRANCH   7   8
TORSDOF 4
ENDMDL
MODEL 4
REMARK VINA RESULT: -7.331433237      2.484      7.586
REMARK  4 active torsions:
REMARK  status: ('A' for Active; 'I' for Inactive)
REMARK    1  A    between atoms: C7_7  and  N1_8 
REMARK       I    between atoms: N1_8  and  C9_10 
REMARK    2  A    between atoms: C9_10  and  C10_12 
REMARK    3  A    between atoms: C10_12  and  S1_13 
REMARK    4  A    between atoms: S1_13  and  C11_14 
ROOT
HETATM    1  C1  UNL     1      41.930  30.277  -1.360  1.00  0.00     0.013 C 
HETATM    2  C2  UNL     1      42.864  29.550  -1.194  1.00  0.00    -0.105 C 
HETATM    3  C3  UNL     1      43.995  28.676  -1.020  1.00  0.00     0.045 A 
HETATM    4  C4  UNL     1      44.999  28.756  -2.173  1.00  0.00     0.032 C 
HETATM    5  C5  UNL     1      43.632  27.222  -0.638  1.00  0.00     0.028 A 
HETATM    6  C6  UNL     1      44.295  26.121  -1.427  1.00  0.00     0.014 C 
HETATM    7  C7  UNL     1      44.464  28.124   0.244  1.00  0.00     0.112 A 
ENDROOT
BRANCH   7   8
HETATM    8  N1  UNL     1      43.927  28.402   1.537  1.00  0.00    -0.349 N 
HETATM    9  C8  UNL     1      42.506  28.359   1.819  1.00  0.00     0.153 C 
HETATM   10  C9  UNL     1      44.806  28.735   2.602  1.00  0.00     0.229 C 
HETATM   11  O1  UNL     1      44.282  28.981   3.740  1.00  0.00    -0.273 OA
BRANCH  10  12
HETATM   12  C10 UNL     1      46.273  28.819   2.493  1.00  0.00     0.185 C 
BRANCH  12  13
HETATM   13  S1  UNL     1      47.089  28.019   3.873  1.00  0.00    -0.085 SA
BRANCH  13  14
HETATM   14  C11 UNL     1      48.659  27.328   3.473  1.00  0.00     0.147 A 
HETATM   15  N2  UNL     1      48.804  26.020   3.211  1.00  0.00    -0.304 N 
HETATM   16  C12 UNL     1      49.999  25.506   2.906  1.00  0.00     0.249 A 
ATOM     17  H2  UNL     1      47.989  25.407   3.245  1.00  0.00     0.171 HD
HETATM   18  O2  UNL     1      50.192  24.295   2.652  1.00  0.00    -0.268 OA
HETATM   19  C13 UNL     1      51.095  26.342   2.863  1.00  0.00     0.099 A 
HETATM   20  C14 UNL     1      50.958  27.675   3.129  1.00  0.00     0.012 A 
HETATM   21  C15 UNL     1      52.160  28.550   3.074  1.00  0.00     0.068 C 
HETATM   22  N3  UNL     1      49.733  28.134   3.429  1.00  0.00    -0.341 N 
ATOM     23  H3  UNL     1      49.613  29.127   3.630  1.00  0.00     0.167 HD
ENDBRANCH  13  14
ENDBRANCH  12  13
ENDBRANCH  10  12
ENDBRANCH   7   8
TORSDOF 4
ENDMDL
MODEL 5
REMARK VINA RESULT: -7.298427490      1.837      2.127
REMARK  4 active torsions:
REMARK  status: ('A' for Active; 'I' for Inactive)
REMARK    1  A    between atoms: C7_7  and  N1_8 
REMARK       I    between atoms: N1_8  and  C9_10 
REMARK    2  A    between atoms: C9_10  and  C10_12 
REMARK    3  A    between atoms: C10_12  and  S1_13 
REMARK    4  A    between atoms: S1_13  and  C11_14 
ROOT
HETATM    1  C1  UNL     1      50.245  23.629   2.225  1.00  0.00     0.013 C 
HETATM    2  C2  UNL     1      50.124  24.746   2.632  1.00  0.00    -0.105 C 
HETATM    3  C3  UNL     1      50.005  26.096   3.119  1.00  0.00     0.045 A 
HETATM    4  C4  UNL     1      51.229  26.960   2.803  1.00  0.00     0.032 C 
HETATM    5  C5  UNL     1      49.553  26.210   4.593  1.00  0.00     0.028 A 
HETATM    6  C6  UNL     1      50.352  27.125   5.486  1.00  0.00     0.014 C 
HETATM    7  C7  UNL     1      48.762  26.783   3.441  1.00  0.00     0.112 A 
ENDROOT
BRANCH   7   8
HETATM    8  N1  UNL     1      47.443  26.266   3.268  1.00  0.00    -0.349 N 
HETATM    9  C8  UNL     1      47.086  24.905   3.615  1.00  0.00     0.153 C 
HETATM   10  C9  UNL     1      46.426  27.104   2.739  1.00  0.00     0.229 C 
HETATM   11  O1  UNL     1      45.262  26.598   2.597  1.00  0.00    -0.273 OA
BRANCH  10  12
HETATM   12  C10 UNL     1      46.612  28.510   2.339  1.00  0.00     0.185 C 
BRANCH  12  13
HETATM   13  S1  UNL     1      45.069  29.421   2.373  1.00  0.00    -0.085 SA
BRANCH  13  14
HETATM   14  C11 UNL     1      44.178  29.376   0.854  1.00  0.00     0.147 A 
HETATM   15  N2  UNL     1      42.894  29.760   0.783  1.00  0.00    -0.304 N 
HETATM   16  C12 UNL     1      42.227  29.725  -0.375  1.00  0.00     0.249 A 
ATOM     17  H2  UNL     1      42.419  30.085   1.625  1.00  0.00     0.171 HD
HETATM   18  O2  UNL     1      41.031  30.072  -0.500  1.00  0.00    -0.268 OA
HETATM   19  C13 UNL     1      42.879  29.285  -1.508  1.00  0.00     0.099 A 
HETATM   20  C14 UNL     1      44.185  28.891  -1.446  1.00  0.00     0.012 A 
HETATM   21  C15 UNL     1      44.859  28.420  -2.686  1.00  0.00     0.068 C 
HETATM   22  N3  UNL     1      44.803  28.948  -0.255  1.00  0.00    -0.341 N 
ATOM     23  H3  UNL     1      45.779  28.658  -0.191  1.00  0.00     0.167 HD
ENDBRANCH  13  14
ENDBRANCH  12  13
ENDBRANCH  10  12
ENDBRANCH   7   8
TORSDOF 4
ENDMDL
