MODEL 1
REMARK VINA RESULT: -7.158961235      0.000      0.000
REMARK  10 active torsions:
REMARK  status: ('A' for Active; 'I' for Inactive)
REMARK    1  A    between atoms: C2_2  and  C3_3 
REMARK    2  A    between atoms: C3_3  and  N1_4 
REMARK    3  A    between atoms: C4_9  and  C5_10 
REMARK    4  A    between atoms: C5_10  and  N4_11 
REMARK    5  A    between atoms: N4_11  and  C6_13 
REMARK    6  A    between atoms: C6_13  and  C7_14 
REMARK    7  A    between atoms: C7_14  and  C8_15 
REMARK    8  A    between atoms: C8_15  and  N5_16 
REMARK    9  A    between atoms: N5_16  and  C9_18 
REMARK   10  A    between atoms: C10_21  and  N7_22 
ROOT
HETATM    1  C8  UNL     1      32.785  18.755  45.027  1.00  0.00     0.128 C 
ENDROOT
BRANCH   1   2
HETATM    2  C7  UNL     1      31.721  18.322  44.040  1.00  0.00     0.064 C 
BRANCH   2   3
HETATM    3  C6  UNL     1      30.405  18.596  44.670  1.00  0.00     0.057 C 
BRANCH   3   4
HETATM    4  N4  UNL     1      30.021  19.800  45.190  1.00  0.00    -0.395 N 
ATOM      5  H4  UNL     1      29.726  19.857  46.165  1.00  0.00     0.159 HD
BRANCH   4   6
HETATM    6  C5  UNL     1      30.026  20.971  44.394  1.00  0.00     0.198 C 
BRANCH   6   7
HETATM    7  C4  UNL     1      29.522  22.115  45.136  1.00  0.00     0.131 A 
HETATM    8  N3  UNL     1      30.529  22.904  46.003  1.00  0.00    -0.271 N 
HETATM    9  N2  UNL     1      29.813  23.866  46.438  1.00  0.00    -0.225 N 
ATOM     10  H3  UNL     1      31.513  22.706  46.181  1.00  0.00     0.190 HD
HETATM   11  N1  UNL     1      28.539  23.869  46.034  1.00  0.00    -0.218 N 
ATOM     12  H2  UNL     1      30.188  24.585  47.056  1.00  0.00     0.210 HD
HETATM   13  N11 UNL     1      28.537  22.842  45.319  1.00  0.00    -0.269 N 
ATOM     14  H11 UNL     1      27.665  22.587  44.856  1.00  0.00     0.190 HD
BRANCH  11  15
HETATM   15  C3  UNL     1      27.555  24.901  46.364  1.00  0.00     0.171 C 
BRANCH  15  16
HETATM   16  C2  UNL     1      28.289  26.195  46.054  1.00  0.00     0.019 C 
HETATM   17  C1  UNL     1      27.542  27.427  46.408  1.00  0.00     0.007 C 
ENDBRANCH  15  16
ENDBRANCH  11  15
ENDBRANCH   6   7
ENDBRANCH   4   6
ENDBRANCH   3   4
ENDBRANCH   2   3
ENDBRANCH   1   2
BRANCH   1  18
HETATM   18  N5  UNL     1      33.510  19.925  44.661  1.00  0.00    -0.361 N 
ATOM     19  H5  UNL     1      33.797  20.123  43.702  1.00  0.00     0.162 HD
BRANCH  18  20
HETATM   20  C9  UNL     1      33.792  20.772  45.721  1.00  0.00     0.208 A 
HETATM   21  N6  UNL     1      33.107  20.426  46.878  1.00  0.00    -0.160 N 
HETATM   22  C10 UNL     1      33.237  21.467  47.868  1.00  0.00     0.693 A 
ATOM     23  H6  UNL     1      32.586  19.559  47.009  1.00  0.00     0.187 HD
HETATM   24  N8  UNL     1      33.922  22.563  47.683  1.00  0.00    -0.023 N 
HETATM   25  C11 UNL     1      34.559  22.820  46.533  1.00  0.00     0.693 A 
ATOM     26  H8  UNL     1      33.973  23.246  48.439  1.00  0.00     0.203 HD
HETATM   27  N9  UNL     1      35.176  23.853  46.207  1.00  0.00    -0.234 N 
HETATM   28  N10 UNL     1      34.418  21.794  45.578  1.00  0.00    -0.160 N 
ATOM     29  H92 UNL     1      35.278  24.596  46.899  1.00  0.00     0.174 HD
ATOM     30  H91 UNL     1      35.661  24.049  45.331  1.00  0.00     0.174 HD
ATOM     31  H10 UNL     1      34.888  21.926  44.683  1.00  0.00     0.187 HD
BRANCH  22  32
HETATM   32  N7  UNL     1      32.651  21.255  48.927  1.00  0.00    -0.234 N 
ATOM     33  H72 UNL     1      32.784  20.383  49.438  1.00  0.00     0.174 HD
ATOM     34  H71 UNL     1      32.037  22.007  49.240  1.00  0.00     0.174 HD
ENDBRANCH  22  32
ENDBRANCH  18  20
ENDBRANCH   1  18
TORSDOF 10
ENDMDL
MODEL 2
REMARK VINA RESULT: -7.109809060      1.469      2.667
REMARK  10 active torsions:
REMARK  status: ('A' for Active; 'I' for Inactive)
REMARK    1  A    between atoms: C2_2  and  C3_3 
REMARK    2  A    between atoms: C3_3  and  N1_4 
REMARK    3  A    between atoms: C4_9  and  C5_10 
REMARK    4  A    between atoms: C5_10  and  N4_11 
REMARK    5  A    between atoms: N4_11  and  C6_13 
REMARK    6  A    between atoms: C6_13  and  C7_14 
REMARK    7  A    between atoms: C7_14  and  C8_15 
REMARK    8  A    between atoms: C8_15  and  N5_16 
REMARK    9  A    between atoms: N5_16  and  C9_18 
REMARK   10  A    between atoms: C10_21  and  N7_22 
ROOT
HETATM    1  C8  UNL     1      33.012  19.342  44.711  1.00  0.00     0.128 C 
ENDROOT
BRANCH   1   2
HETATM    2  C7  UNL     1      33.171  18.478  43.477  1.00  0.00     0.064 C 
BRANCH   2   3
HETATM    3  C6  UNL     1      32.481  19.177  42.364  1.00  0.00     0.057 C 
BRANCH   3   4
HETATM    4  N4  UNL     1      31.142  19.101  42.101  1.00  0.00    -0.395 N 
ATOM      5  H4  UNL     1      30.701  18.187  41.994  1.00  0.00     0.159 HD
BRANCH   4   6
HETATM    6  C5  UNL     1      30.358  20.273  41.975  1.00  0.00     0.198 C 
BRANCH   6   7
HETATM    7  C4  UNL     1      30.132  20.896  43.269  1.00  0.00     0.131 A 
HETATM    8  N3  UNL     1      29.627  19.995  44.418  1.00  0.00    -0.271 N 
HETATM    9  N2  UNL     1      29.615  20.800  45.407  1.00  0.00    -0.225 N 
ATOM     10  H3  UNL     1      29.369  19.008  44.391  1.00  0.00     0.190 HD
HETATM   11  N1  UNL     1      30.010  22.049  45.142  1.00  0.00    -0.218 N 
ATOM     12  H2  UNL     1      29.322  20.509  46.340  1.00  0.00     0.210 HD
HETATM   13  N11 UNL     1      30.265  21.939  43.922  1.00  0.00    -0.269 N 
ATOM     14  H11 UNL     1      30.607  22.766  43.432  1.00  0.00     0.190 HD
BRANCH  11  15
HETATM   15  C3  UNL     1      30.128  23.121  46.131  1.00  0.00     0.171 C 
BRANCH  15  16
HETATM   16  C2  UNL     1      28.804  23.856  46.008  1.00  0.00     0.019 C 
HETATM   17  C1  UNL     1      28.776  25.189  46.660  1.00  0.00     0.007 C 
ENDBRANCH  15  16
ENDBRANCH  11  15
ENDBRANCH   6   7
ENDBRANCH   4   6
ENDBRANCH   3   4
ENDBRANCH   2   3
ENDBRANCH   1   2
BRANCH   1  18
HETATM   18  N5  UNL     1      33.689  20.595  44.664  1.00  0.00    -0.361 N 
ATOM     19  H5  UNL     1      34.109  20.967  43.813  1.00  0.00     0.162 HD
BRANCH  18  20
HETATM   20  C9  UNL     1      33.727  21.263  45.878  1.00  0.00     0.208 A 
HETATM   21  N6  UNL     1      34.809  22.126  45.979  1.00  0.00    -0.160 N 
HETATM   22  C10 UNL     1      34.945  22.604  47.333  1.00  0.00     0.693 A 
ATOM     23  H6  UNL     1      35.422  22.385  45.206  1.00  0.00     0.187 HD
HETATM   24  N8  UNL     1      34.139  22.270  48.305  1.00  0.00    -0.023 N 
HETATM   25  C11 UNL     1      33.111  21.431  48.122  1.00  0.00     0.693 A 
ATOM     26  H8  UNL     1      34.297  22.661  49.234  1.00  0.00     0.203 HD
HETATM   27  N9  UNL     1      32.324  20.978  48.975  1.00  0.00    -0.234 N 
HETATM   28  N10 UNL     1      32.998  20.973  46.794  1.00  0.00    -0.160 N 
ATOM     29  H92 UNL     1      32.406  21.310  49.936  1.00  0.00     0.174 HD
ATOM     30  H91 UNL     1      31.541  20.339  48.836  1.00  0.00     0.174 HD
ATOM     31  H10 UNL     1      32.228  20.336  46.588  1.00  0.00     0.187 HD
BRANCH  22  32
HETATM   32  N7  UNL     1      35.888  23.368  47.525  1.00  0.00    -0.234 N 
ATOM     33  H72 UNL     1      36.798  23.200  47.095  1.00  0.00     0.174 HD
ATOM     34  H71 UNL     1      35.687  24.161  48.135  1.00  0.00     0.174 HD
ENDBRANCH  22  32
ENDBRANCH  18  20
ENDBRANCH   1  18
TORSDOF 10
ENDMDL
MODEL 3
REMARK VINA RESULT: -7.091350420      1.142      1.713
REMARK  10 active torsions:
REMARK  status: ('A' for Active; 'I' for Inactive)
REMARK    1  A    between atoms: C2_2  and  C3_3 
REMARK    2  A    between atoms: C3_3  and  N1_4 
REMARK    3  A    between atoms: C4_9  and  C5_10 
REMARK    4  A    between atoms: C5_10  and  N4_11 
REMARK    5  A    between atoms: N4_11  and  C6_13 
REMARK    6  A    between atoms: C6_13  and  C7_14 
REMARK    7  A    between atoms: C7_14  and  C8_15 
REMARK    8  A    between atoms: C8_15  and  N5_16 
REMARK    9  A    between atoms: N5_16  and  C9_18 
REMARK   10  A    between atoms: C10_21  and  N7_22 
ROOT
HETATM    1  C8  UNL     1      32.098  19.878  44.600  1.00  0.00     0.128 C 
ENDROOT
BRANCH   1   2
HETATM    2  C7  UNL     1      31.495  20.629  43.431  1.00  0.00     0.064 C 
BRANCH   2   3
HETATM    3  C6  UNL     1      30.701  21.748  43.995  1.00  0.00     0.057 C 
BRANCH   3   4
HETATM    4  N4  UNL     1      30.302  21.847  45.299  1.00  0.00    -0.395 N 
ATOM      5  H4  UNL     1      29.829  21.060  45.742  1.00  0.00     0.159 HD
BRANCH   4   6
HETATM    6  C5  UNL     1      30.536  23.029  46.043  1.00  0.00     0.198 C 
BRANCH   6   7
HETATM    7  C4  UNL     1      29.315  23.800  46.205  1.00  0.00     0.131 A 
HETATM    8  N3  UNL     1      28.000  23.173  45.689  1.00  0.00    -0.271 N 
HETATM    9  N2  UNL     1      27.131  24.034  46.049  1.00  0.00    -0.225 N 
ATOM     10  H3  UNL     1      27.863  22.295  45.188  1.00  0.00     0.190 HD
HETATM   11  N1  UNL     1      27.607  25.101  46.698  1.00  0.00    -0.218 N 
ATOM     12  H2  UNL     1      26.137  23.916  45.855  1.00  0.00     0.210 HD
HETATM   13  N11 UNL     1      28.826  24.821  46.707  1.00  0.00    -0.269 N 
ATOM     14  H11 UNL     1      29.462  25.478  47.159  1.00  0.00     0.190 HD
BRANCH  11  15
HETATM   15  C3  UNL     1      26.791  26.183  47.250  1.00  0.00     0.171 C 
BRANCH  15  16
HETATM   16  C2  UNL     1      27.356  27.424  46.579  1.00  0.00     0.019 C 
HETATM   17  C1  UNL     1      26.629  27.850  45.359  1.00  0.00     0.007 C 
ENDBRANCH  15  16
ENDBRANCH  11  15
ENDBRANCH   6   7
ENDBRANCH   4   6
ENDBRANCH   3   4
ENDBRANCH   2   3
ENDBRANCH   1   2
BRANCH   1  18
HETATM   18  N5  UNL     1      33.499  20.066  44.783  1.00  0.00    -0.361 N 
ATOM     19  H5  UNL     1      34.200  19.608  44.201  1.00  0.00     0.162 HD
BRANCH  18  20
HETATM   20  C9  UNL     1      33.824  20.925  45.821  1.00  0.00     0.208 A 
HETATM   21  N6  UNL     1      33.205  20.581  47.014  1.00  0.00    -0.160 N 
HETATM   22  C10 UNL     1      33.374  21.631  47.988  1.00  0.00     0.693 A 
ATOM     23  H6  UNL     1      32.703  19.709  47.179  1.00  0.00     0.187 HD
HETATM   24  N8  UNL     1      34.035  22.734  47.758  1.00  0.00    -0.023 N 
HETATM   25  C11 UNL     1      34.607  22.989  46.575  1.00  0.00     0.693 A 
ATOM     26  H8  UNL     1      34.117  23.424  48.505  1.00  0.00     0.203 HD
HETATM   27  N9  UNL     1      35.194  24.026  46.209  1.00  0.00    -0.234 N 
HETATM   28  N10 UNL     1      34.429  21.953  45.637  1.00  0.00    -0.160 N 
ATOM     29  H92 UNL     1      35.323  24.776  46.889  1.00  0.00     0.174 HD
ATOM     30  H91 UNL     1      35.630  24.220  45.307  1.00  0.00     0.174 HD
ATOM     31  H10 UNL     1      34.851  22.083  44.717  1.00  0.00     0.187 HD
BRANCH  22  32
HETATM   32  N7  UNL     1      32.847  21.422  49.078  1.00  0.00    -0.234 N 
ATOM     33  H72 UNL     1      31.832  21.413  49.180  1.00  0.00     0.174 HD
ATOM     34  H71 UNL     1      33.495  21.263  49.850  1.00  0.00     0.174 HD
ENDBRANCH  22  32
ENDBRANCH  18  20
ENDBRANCH   1  18
TORSDOF 10
ENDMDL
MODEL 4
REMARK VINA RESULT: -7.089989805      1.477      2.513
REMARK  10 active torsions:
REMARK  status: ('A' for Active; 'I' for Inactive)
REMARK    1  A    between atoms: C2_2  and  C3_3 
REMARK    2  A    between atoms: C3_3  and  N1_4 
REMARK    3  A    between atoms: C4_9  and  C5_10 
REMARK    4  A    between atoms: C5_10  and  N4_11 
REMARK    5  A    between atoms: N4_11  and  C6_13 
REMARK    6  A    between atoms: C6_13  and  C7_14 
REMARK    7  A    between atoms: C7_14  and  C8_15 
REMARK    8  A    between atoms: C8_15  and  N5_16 
REMARK    9  A    between atoms: N5_16  and  C9_18 
REMARK   10  A    between atoms: C10_21  and  N7_22 
ROOT
HETATM    1  C8  UNL     1      32.554  20.148  44.681  1.00  0.00     0.128 C 
ENDROOT
BRANCH   1   2
HETATM    2  C7  UNL     1      31.091  20.434  44.955  1.00  0.00     0.064 C 
BRANCH   2   3
HETATM    3  C6  UNL     1      30.675  21.508  44.019  1.00  0.00     0.057 C 
BRANCH   3   4
HETATM    4  N4  UNL     1      30.441  22.808  44.371  1.00  0.00    -0.395 N 
ATOM      5  H4  UNL     1      30.230  23.495  43.647  1.00  0.00     0.159 HD
BRANCH   4   6
HETATM    6  C5  UNL     1      30.488  23.214  45.726  1.00  0.00     0.198 C 
BRANCH   6   7
HETATM    7  C4  UNL     1      29.246  23.855  46.127  1.00  0.00     0.131 A 
HETATM    8  N3  UNL     1      27.924  23.220  45.641  1.00  0.00    -0.271 N 
HETATM    9  N2  UNL     1      27.048  23.945  46.219  1.00  0.00    -0.225 N 
ATOM     10  H3  UNL     1      27.787  22.424  45.019  1.00  0.00     0.190 HD
HETATM   11  N1  UNL     1      27.526  24.930  46.986  1.00  0.00    -0.218 N 
ATOM     12  H2  UNL     1      26.048  23.784  46.102  1.00  0.00     0.210 HD
HETATM   13  N11 UNL     1      28.754  24.745  46.834  1.00  0.00    -0.269 N 
ATOM     14  H11 UNL     1      29.393  25.369  47.325  1.00  0.00     0.190 HD
BRANCH  11  15
HETATM   15  C3  UNL     1      26.709  25.847  47.782  1.00  0.00     0.171 C 
BRANCH  15  16
HETATM   16  C2  UNL     1      26.197  26.841  46.753  1.00  0.00     0.019 C 
HETATM   17  C1  UNL     1      27.014  28.073  46.627  1.00  0.00     0.007 C 
ENDBRANCH  15  16
ENDBRANCH  11  15
ENDBRANCH   6   7
ENDBRANCH   4   6
ENDBRANCH   3   4
ENDBRANCH   2   3
ENDBRANCH   1   2
BRANCH   1  18
HETATM   18  N5  UNL     1      33.371  20.008  45.839  1.00  0.00    -0.361 N 
ATOM     19  H5  UNL     1      33.782  19.119  46.123  1.00  0.00     0.162 HD
BRANCH  18  20
HETATM   20  C9  UNL     1      33.559  21.186  46.545  1.00  0.00     0.208 A 
HETATM   21  N6  UNL     1      34.225  22.153  45.806  1.00  0.00    -0.160 N 
HETATM   22  C10 UNL     1      34.612  23.254  46.654  1.00  0.00     0.693 A 
ATOM     23  H6  UNL     1      34.415  22.093  44.806  1.00  0.00     0.187 HD
HETATM   24  N8  UNL     1      34.346  23.315  47.931  1.00  0.00    -0.023 N 
HETATM   25  C11 UNL     1      33.692  22.337  48.570  1.00  0.00     0.693 A 
ATOM     26  H8  UNL     1      34.646  24.135  48.458  1.00  0.00     0.203 HD
HETATM   27  N9  UNL     1      33.446  22.242  49.788  1.00  0.00    -0.234 N 
HETATM   28  N10 UNL     1      33.325  21.270  47.726  1.00  0.00    -0.160 N 
ATOM     29  H92 UNL     1      33.711  23.014  50.399  1.00  0.00     0.174 HD
ATOM     30  H91 UNL     1      32.948  21.496  50.275  1.00  0.00     0.174 HD
ATOM     31  H10 UNL     1      32.816  20.496  48.153  1.00  0.00     0.187 HD
BRANCH  22  32
HETATM   32  N7  UNL     1      35.223  24.158  46.088  1.00  0.00    -0.234 N 
ATOM     33  H72 UNL     1      35.047  24.380  45.108  1.00  0.00     0.174 HD
ATOM     34  H71 UNL     1      35.903  24.651  46.668  1.00  0.00     0.174 HD
ENDBRANCH  22  32
ENDBRANCH  18  20
ENDBRANCH   1  18
TORSDOF 10
ENDMDL
MODEL 5
REMARK VINA RESULT: -7.082278967      0.416      1.703
REMARK  10 active torsions:
REMARK  status: ('A' for Active; 'I' for Inactive)
REMARK    1  A    between atoms: C2_2  and  C3_3 
REMARK    2  A    between atoms: C3_3  and  N1_4 
REMARK    3  A    between atoms: C4_9  and  C5_10 
REMARK    4  A    between atoms: C5_10  and  N4_11 
REMARK    5  A    between atoms: N4_11  and  C6_13 
REMARK    6  A    between atoms: C6_13  and  C7_14 
REMARK    7  A    between atoms: C7_14  and  C8_15 
REMARK    8  A    between atoms: C8_15  and  N5_16 
REMARK    9  A    between atoms: N5_16  and  C9_18 
REMARK   10  A    between atoms: C10_21  and  N7_22 
ROOT
HETATM    1  C8  UNL     1      33.004  18.920  44.607  1.00  0.00     0.128 C 
ENDROOT
BRANCH   1   2
HETATM    2  C7  UNL     1      31.843  18.746  43.650  1.00  0.00     0.064 C 
BRANCH   2   3
HETATM    3  C6  UNL     1      30.605  18.712  44.468  1.00  0.00     0.057 C 
BRANCH   3   4
HETATM    4  N4  UNL     1      29.888  19.812  44.851  1.00  0.00    -0.395 N 
ATOM      5  H4  UNL     1      29.197  19.728  45.596  1.00  0.00     0.159 HD
BRANCH   4   6
HETATM    6  C5  UNL     1      30.092  21.066  44.227  1.00  0.00     0.198 C 
BRANCH   6   7
HETATM    7  C4  UNL     1      29.548  22.148  45.030  1.00  0.00     0.131 A 
HETATM    8  N3  UNL     1      30.537  22.970  45.887  1.00  0.00    -0.271 N 
HETATM    9  N2  UNL     1      29.781  23.868  46.385  1.00  0.00    -0.225 N 
ATOM     10  H3  UNL     1      31.538  22.830  46.019  1.00  0.00     0.190 HD
HETATM   11  N1  UNL     1      28.494  23.804  46.030  1.00  0.00    -0.218 N 
ATOM     12  H2  UNL     1      30.135  24.588  47.014  1.00  0.00     0.210 HD
HETATM   13  N11 UNL     1      28.527  22.804  45.279  1.00  0.00    -0.269 N 
ATOM     14  H11 UNL     1      27.655  22.510  44.840  1.00  0.00     0.190 HD
BRANCH  11  15
HETATM   15  C3  UNL     1      27.461  24.758  46.436  1.00  0.00     0.171 C 
BRANCH  15  16
HETATM   16  C2  UNL     1      28.012  26.092  45.961  1.00  0.00     0.019 C 
HETATM   17  C1  UNL     1      27.298  27.278  46.494  1.00  0.00     0.007 C 
ENDBRANCH  15  16
ENDBRANCH  11  15
ENDBRANCH   6   7
ENDBRANCH   4   6
ENDBRANCH   3   4
ENDBRANCH   2   3
ENDBRANCH   1   2
BRANCH   1  18
HETATM   18  N5  UNL     1      33.693  20.162  44.504  1.00  0.00    -0.361 N 
ATOM     19  H5  UNL     1      34.175  20.460  43.656  1.00  0.00     0.162 HD
BRANCH  18  20
HETATM   20  C9  UNL     1      33.653  20.930  45.657  1.00  0.00     0.208 A 
HETATM   21  N6  UNL     1      34.635  21.911  45.681  1.00  0.00    -0.160 N 
HETATM   22  C10 UNL     1      34.711  22.513  46.990  1.00  0.00     0.693 A 
ATOM     23  H6  UNL     1      35.219  22.169  44.886  1.00  0.00     0.187 HD
HETATM   24  N8  UNL     1      33.942  22.175  47.990  1.00  0.00    -0.023 N 
HETATM   25  C11 UNL     1      33.013  21.216  47.882  1.00  0.00     0.693 A 
ATOM     26  H8  UNL     1      34.052  22.657  48.882  1.00  0.00     0.203 HD
HETATM   27  N9  UNL     1      32.275  20.753  48.774  1.00  0.00    -0.234 N 
HETATM   28  N10 UNL     1      32.956  20.639  46.598  1.00  0.00    -0.160 N 
ATOM     29  H92 UNL     1      32.317  21.172  49.704  1.00  0.00     0.174 HD
ATOM     30  H91 UNL     1      31.568  20.023  48.692  1.00  0.00     0.174 HD
ATOM     31  H10 UNL     1      32.261  19.907  46.449  1.00  0.00     0.187 HD
BRANCH  22  32
HETATM   32  N7  UNL     1      35.565  23.388  47.112  1.00  0.00    -0.234 N 
ATOM     33  H72 UNL     1      36.558  23.157  47.135  1.00  0.00     0.174 HD
ATOM     34  H71 UNL     1      35.202  24.339  47.188  1.00  0.00     0.174 HD
ENDBRANCH  22  32
ENDBRANCH  18  20
ENDBRANCH   1  18
TORSDOF 10
ENDMDL
