MODEL 1
REMARK VINA RESULT: -7.709295506      0.000      0.000
REMARK  10 active torsions:
REMARK  status: ('A' for Active; 'I' for Inactive)
REMARK    1  A    between atoms: N1_1  and  C1_5 
REMARK    2  A    between atoms: C1_5  and  C2_6 
REMARK    3  A    between atoms: C2_6  and  C3_7 
REMARK    4  A    between atoms: C3_7  and  C4_8 
REMARK    5  A    between atoms: C4_8  and  N2_9 
REMARK    6  A    between atoms: C4_8  and  C6_20 
REMARK       I    between atoms: N2_9  and  C5_11 
REMARK       I    between atoms: C5_11  and  N3_12 
REMARK       I    between atoms: C5_11  and  N4_16 
REMARK    7  A    between atoms: C6_20  and  O1_21 
REMARK    8  A    between atoms: C6_20  and  N5_23 
REMARK    9  A    between atoms: N5_23  and  C7_25 
REMARK   10  A    between atoms: C10_28  and  N6_29 
ROOT
HETATM    1  C4  UNL     1      27.204  25.513  46.350  1.00  0.00     0.128 C 
ENDROOT
BRANCH   1   2
HETATM    2  C3  UNL     1      26.638  25.694  44.960  1.00  0.00     0.031 C 
BRANCH   2   3
HETATM    3  C2  UNL     1      25.945  27.038  44.882  1.00  0.00     0.029 C 
BRANCH   3   4
HETATM    4  C1  UNL     1      24.430  26.866  44.953  1.00  0.00     0.230 C 
BRANCH   4   5
HETATM    5  N1  UNL     1      23.998  25.798  44.072  1.00  0.00    -0.079 N 
ATOM      6  H13 UNL     1      23.245  26.098  43.452  1.00  0.00     0.274 HD
ATOM      7  H12 UNL     1      24.700  25.582  43.365  1.00  0.00     0.274 HD
ATOM      8  H11 UNL     1      23.738  24.972  44.612  1.00  0.00     0.274 HD
ENDBRANCH   4   5
ENDBRANCH   3   4
ENDBRANCH   2   3
ENDBRANCH   1   2
BRANCH   1   9
HETATM    9  N2  UNL     1      26.351  24.958  47.288  1.00  0.00    -0.366 N 
HETATM   10  C5  UNL     1      26.110  25.499  48.551  1.00  0.00     0.476 C 
HETATM   11  N3  UNL     1      25.281  24.504  49.282  1.00  0.00    -0.033 N 
HETATM   12  N4  UNL     1      25.345  26.716  48.624  1.00  0.00    -0.033 N 
ATOM     13  H33 UNL     1      24.429  24.243  48.785  1.00  0.00     0.278 HD
ATOM     14  H32 UNL     1      25.699  23.575  49.314  1.00  0.00     0.278 HD
ATOM     15  H31 UNL     1      25.104  24.900  50.206  1.00  0.00     0.278 HD
ATOM     16  H43 UNL     1      25.782  27.423  48.034  1.00  0.00     0.278 HD
ATOM     17  H42 UNL     1      24.457  26.584  48.140  1.00  0.00     0.278 HD
ATOM     18  H41 UNL     1      25.168  27.111  49.548  1.00  0.00     0.278 HD
ATOM     19  H2  UNL     1      25.866  24.095  47.039  1.00  0.00     0.157 HD
ENDBRANCH   1   9
BRANCH   1  20
HETATM   20  C6  UNL     1      28.505  24.766  46.206  1.00  0.00     0.240 C 
BRANCH  20  21
HETATM   21  O1  UNL     1      29.329  25.397  45.301  1.00  0.00    -0.375 OA
ATOM     22  H1  UNL     1      29.660  24.778  44.661  1.00  0.00     0.212 HD
ENDBRANCH  20  21
BRANCH  20  23
HETATM   23  N5  UNL     1      28.303  23.390  45.798  1.00  0.00    -0.362 N 
ATOM     24  H5  UNL     1      27.360  23.005  45.849  1.00  0.00     0.162 HD
BRANCH  23  25
HETATM   25  C7  UNL     1      29.339  22.552  45.333  1.00  0.00     0.030 A 
HETATM   26  C8  UNL     1      30.408  22.118  46.055  1.00  0.00     0.031 A 
HETATM   27  C9  UNL     1      31.390  21.306  45.496  1.00  0.00     0.034 A 
HETATM   28  C10 UNL     1      31.331  20.903  44.189  1.00  0.00     0.059 A 
HETATM   29  C12 UNL     1      30.254  21.337  43.451  1.00  0.00     0.034 A 
HETATM   30  C13 UNL     1      29.280  22.137  43.991  1.00  0.00     0.031 A 
BRANCH  28  31
HETATM   31  N6  UNL     1      32.346  20.063  43.605  1.00  0.00    -0.235 N 
HETATM   32  C11 UNL     1      32.372  19.591  42.363  1.00  0.00     0.226 A 
HETATM   33  N7  UNL     1      33.502  18.857  42.259  1.00  0.00    -0.279 N 
HETATM   34  N8  UNL     1      34.143  18.883  43.403  1.00  0.00    -0.227 N 
ATOM     35  H7  UNL     1      33.809  18.361  41.422  1.00  0.00     0.189 HD
HETATM   36  N9  UNL     1      33.430  19.623  44.226  1.00  0.00    -0.220 N 
ATOM     37  H8  UNL     1      35.025  18.417  43.616  1.00  0.00     0.210 HD
ATOM     38  H9  UNL     1      33.677  19.827  45.195  1.00  0.00     0.210 HD
ENDBRANCH  28  31
ENDBRANCH  23  25
ENDBRANCH  20  23
ENDBRANCH   1  20
TORSDOF 10
ENDMDL
MODEL 2
REMARK VINA RESULT: -7.688717988      5.307      8.287
REMARK  10 active torsions:
REMARK  status: ('A' for Active; 'I' for Inactive)
REMARK    1  A    between atoms: N1_1  and  C1_5 
REMARK    2  A    between atoms: C1_5  and  C2_6 
REMARK    3  A    between atoms: C2_6  and  C3_7 
REMARK    4  A    between atoms: C3_7  and  C4_8 
REMARK    5  A    between atoms: C4_8  and  N2_9 
REMARK    6  A    between atoms: C4_8  and  C6_20 
REMARK       I    between atoms: N2_9  and  C5_11 
REMARK       I    between atoms: C5_11  and  N3_12 
REMARK       I    between atoms: C5_11  and  N4_16 
REMARK    7  A    between atoms: C6_20  and  O1_21 
REMARK    8  A    between atoms: C6_20  and  N5_23 
REMARK    9  A    between atoms: N5_23  and  C7_25 
REMARK   10  A    between atoms: C10_28  and  N6_29 
ROOT
HETATM    1  C4  UNL     1      31.261  18.635  43.965  1.00  0.00     0.128 C 
ENDROOT
BRANCH   1   2
HETATM    2  C3  UNL     1      31.958  17.336  44.301  1.00  0.00     0.031 C 
BRANCH   2   3
HETATM    3  C2  UNL     1      33.184  17.637  45.137  1.00  0.00     0.029 C 
BRANCH   3   4
HETATM    4  C1  UNL     1      33.857  16.343  45.587  1.00  0.00     0.230 C 
BRANCH   4   5
HETATM    5  N1  UNL     1      34.659  16.573  46.773  1.00  0.00    -0.079 N 
ATOM      6  H13 UNL     1      34.080  16.725  47.599  1.00  0.00     0.274 HD
ATOM      7  H12 UNL     1      35.138  15.726  47.077  1.00  0.00     0.274 HD
ATOM      8  H11 UNL     1      35.311  17.342  46.619  1.00  0.00     0.274 HD
ENDBRANCH   4   5
ENDBRANCH   3   4
ENDBRANCH   2   3
ENDBRANCH   1   2
BRANCH   1   9
HETATM    9  N2  UNL     1      31.009  18.863  42.624  1.00  0.00    -0.366 N 
HETATM   10  C5  UNL     1      31.697  19.789  41.840  1.00  0.00     0.476 C 
HETATM   11  N3  UNL     1      30.998  19.831  40.528  1.00  0.00    -0.033 N 
HETATM   12  N4  UNL     1      33.064  19.496  41.500  1.00  0.00    -0.033 N 
ATOM     13  H33 UNL     1      30.909  18.915  40.088  1.00  0.00     0.278 HD
ATOM     14  H32 UNL     1      30.000  20.031  40.608  1.00  0.00     0.278 HD
ATOM     15  H31 UNL     1      31.501  20.508  39.954  1.00  0.00     0.278 HD
ATOM     16  H43 UNL     1      33.593  19.322  42.354  1.00  0.00     0.278 HD
ATOM     17  H42 UNL     1      33.111  18.580  41.054  1.00  0.00     0.278 HD
ATOM     18  H41 UNL     1      33.568  20.173  40.926  1.00  0.00     0.278 HD
ATOM     19  H2  UNL     1      30.271  18.317  42.178  1.00  0.00     0.157 HD
ENDBRANCH   1   9
BRANCH   1  20
HETATM   20  C6  UNL     1      30.028  18.714  44.829  1.00  0.00     0.240 C 
BRANCH  20  21
HETATM   21  O1  UNL     1      28.891  18.712  44.053  1.00  0.00    -0.375 OA
ATOM     22  H1  UNL     1      28.609  19.600  43.867  1.00  0.00     0.212 HD
ENDBRANCH  20  21
BRANCH  20  23
HETATM   23  N5  UNL     1      30.030  19.890  45.678  1.00  0.00    -0.362 N 
ATOM     24  H5  UNL     1      29.148  20.183  46.096  1.00  0.00     0.162 HD
BRANCH  23  25
HETATM   25  C7  UNL     1      31.185  20.650  45.958  1.00  0.00     0.030 A 
HETATM   26  C8  UNL     1      31.662  21.691  45.223  1.00  0.00     0.031 A 
HETATM   27  C9  UNL     1      32.826  22.366  45.575  1.00  0.00     0.034 A 
HETATM   28  C10 UNL     1      33.553  22.017  46.682  1.00  0.00     0.059 A 
HETATM   29  C12 UNL     1      33.079  20.966  47.432  1.00  0.00     0.034 A 
HETATM   30  C13 UNL     1      31.933  20.292  47.095  1.00  0.00     0.031 A 
BRANCH  28  31
HETATM   31  N6  UNL     1      34.760  22.712  47.050  1.00  0.00    -0.235 N 
HETATM   32  C11 UNL     1      35.615  22.372  48.009  1.00  0.00     0.226 A 
HETATM   33  N7  UNL     1      36.591  23.306  47.997  1.00  0.00    -0.279 N 
HETATM   34  N8  UNL     1      36.337  24.186  47.059  1.00  0.00    -0.227 N 
ATOM     35  H7  UNL     1      37.399  23.323  48.620  1.00  0.00     0.189 HD
HETATM   36  N9  UNL     1      35.213  23.819  46.480  1.00  0.00    -0.220 N 
ATOM     37  H8  UNL     1      36.904  25.001  46.822  1.00  0.00     0.210 HD
ATOM     38  H9  UNL     1      34.761  24.312  45.710  1.00  0.00     0.210 HD
ENDBRANCH  28  31
ENDBRANCH  23  25
ENDBRANCH  20  23
ENDBRANCH   1  20
TORSDOF 10
ENDMDL
MODEL 3
REMARK VINA RESULT: -7.683032470      2.210      8.607
REMARK  10 active torsions:
REMARK  status: ('A' for Active; 'I' for Inactive)
REMARK    1  A    between atoms: N1_1  and  C1_5 
REMARK    2  A    between atoms: C1_5  and  C2_6 
REMARK    3  A    between atoms: C2_6  and  C3_7 
REMARK    4  A    between atoms: C3_7  and  C4_8 
REMARK    5  A    between atoms: C4_8  and  N2_9 
REMARK    6  A    between atoms: C4_8  and  C6_20 
REMARK       I    between atoms: N2_9  and  C5_11 
REMARK       I    between atoms: C5_11  and  N3_12 
REMARK       I    between atoms: C5_11  and  N4_16 
REMARK    7  A    between atoms: C6_20  and  O1_21 
REMARK    8  A    between atoms: C6_20  and  N5_23 
REMARK    9  A    between atoms: N5_23  and  C7_25 
REMARK   10  A    between atoms: C10_28  and  N6_29 
ROOT
HETATM    1  C4  UNL     1      31.831  22.169  45.346  1.00  0.00     0.128 C 
ENDROOT
BRANCH   1   2
HETATM    2  C3  UNL     1      32.445  23.010  46.442  1.00  0.00     0.031 C 
BRANCH   2   3
HETATM    3  C2  UNL     1      33.570  22.231  47.089  1.00  0.00     0.029 C 
BRANCH   3   4
HETATM    4  C1  UNL     1      34.754  23.147  47.389  1.00  0.00     0.230 C 
BRANCH   4   5
HETATM    5  N1  UNL     1      35.075  23.959  46.231  1.00  0.00    -0.079 N 
ATOM      6  H13 UNL     1      34.322  24.610  46.005  1.00  0.00     0.274 HD
ATOM      7  H12 UNL     1      35.807  24.639  46.436  1.00  0.00     0.274 HD
ATOM      8  H11 UNL     1      35.317  23.368  45.437  1.00  0.00     0.274 HD
ENDBRANCH   4   5
ENDBRANCH   3   4
ENDBRANCH   2   3
ENDBRANCH   1   2
BRANCH   1   9
HETATM    9  N2  UNL     1      31.829  20.801  45.556  1.00  0.00    -0.366 N 
HETATM   10  C5  UNL     1      32.249  19.860  44.617  1.00  0.00     0.476 C 
HETATM   11  N3  UNL     1      31.918  18.525  45.184  1.00  0.00    -0.033 N 
HETATM   12  N4  UNL     1      33.657  19.780  44.331  1.00  0.00    -0.033 N 
ATOM     13  H33 UNL     1      32.309  18.372  46.113  1.00  0.00     0.278 HD
ATOM     14  H32 UNL     1      30.936  18.428  45.442  1.00  0.00     0.278 HD
ATOM     15  H31 UNL     1      32.225  17.836  44.497  1.00  0.00     0.278 HD
ATOM     16  H43 UNL     1      33.997  20.702  44.057  1.00  0.00     0.278 HD
ATOM     17  H42 UNL     1      34.169  19.638  45.201  1.00  0.00     0.278 HD
ATOM     18  H41 UNL     1      33.965  19.091  43.645  1.00  0.00     0.278 HD
ATOM     19  H2  UNL     1      31.498  20.459  46.459  1.00  0.00     0.157 HD
ENDBRANCH   1   9
BRANCH   1  20
HETATM   20  C6  UNL     1      30.463  22.735  45.065  1.00  0.00     0.240 C 
BRANCH  20  21
HETATM   21  O1  UNL     1      30.422  23.306  43.812  1.00  0.00    -0.375 OA
ATOM     22  H1  UNL     1      30.993  22.841  43.213  1.00  0.00     0.212 HD
ENDBRANCH  20  21
BRANCH  20  23
HETATM   23  N5  UNL     1      30.063  23.716  46.056  1.00  0.00    -0.362 N 
ATOM     24  H5  UNL     1      30.678  23.873  46.854  1.00  0.00     0.162 HD
BRANCH  23  25
HETATM   25  C7  UNL     1      28.871  24.466  45.976  1.00  0.00     0.030 A 
HETATM   26  C8  UNL     1      28.770  25.823  45.998  1.00  0.00     0.031 A 
HETATM   27  C9  UNL     1      27.540  26.469  45.933  1.00  0.00     0.034 A 
HETATM   28  C10 UNL     1      26.365  25.771  45.843  1.00  0.00     0.059 A 
HETATM   29  C12 UNL     1      26.457  24.398  45.820  1.00  0.00     0.034 A 
HETATM   30  C13 UNL     1      27.664  23.750  45.884  1.00  0.00     0.031 A 
BRANCH  28  31
HETATM   31  N6  UNL     1      25.088  26.435  45.776  1.00  0.00    -0.235 N 
HETATM   32  C11 UNL     1      24.062  26.112  44.996  1.00  0.00     0.226 A 
HETATM   33  N7  UNL     1      23.083  27.002  45.268  1.00  0.00    -0.279 N 
HETATM   34  N8  UNL     1      23.502  27.840  46.186  1.00  0.00    -0.227 N 
ATOM     35  H7  UNL     1      22.162  27.020  44.829  1.00  0.00     0.189 HD
HETATM   36  N9  UNL     1      24.732  27.489  46.495  1.00  0.00    -0.220 N 
ATOM     37  H8  UNL     1      22.974  28.617  46.585  1.00  0.00     0.210 HD
ATOM     38  H9  UNL     1      25.321  27.958  47.183  1.00  0.00     0.210 HD
ENDBRANCH  28  31
ENDBRANCH  23  25
ENDBRANCH  20  23
ENDBRANCH   1  20
TORSDOF 10
ENDMDL
MODEL 4
REMARK VINA RESULT: -7.675546775      1.038      2.595
REMARK  10 active torsions:
REMARK  status: ('A' for Active; 'I' for Inactive)
REMARK    1  A    between atoms: N1_1  and  C1_5 
REMARK    2  A    between atoms: C1_5  and  C2_6 
REMARK    3  A    between atoms: C2_6  and  C3_7 
REMARK    4  A    between atoms: C3_7  and  C4_8 
REMARK    5  A    between atoms: C4_8  and  N2_9 
REMARK    6  A    between atoms: C4_8  and  C6_20 
REMARK       I    between atoms: N2_9  and  C5_11 
REMARK       I    between atoms: C5_11  and  N3_12 
REMARK       I    between atoms: C5_11  and  N4_16 
REMARK    7  A    between atoms: C6_20  and  O1_21 
REMARK    8  A    between atoms: C6_20  and  N5_23 
REMARK    9  A    between atoms: N5_23  and  C7_25 
REMARK   10  A    between atoms: C10_28  and  N6_29 
ROOT
HETATM    1  C4  UNL     1      26.758  25.626  45.815  1.00  0.00     0.128 C 
ENDROOT
BRANCH   1   2
HETATM    2  C3  UNL     1      26.884  26.898  46.622  1.00  0.00     0.031 C 
BRANCH   2   3
HETATM    3  C2  UNL     1      25.641  27.071  47.467  1.00  0.00     0.029 C 
BRANCH   3   4
HETATM    4  C1  UNL     1      25.194  25.731  48.046  1.00  0.00     0.230 C 
BRANCH   4   5
HETATM    5  N1  UNL     1      25.987  25.391  49.212  1.00  0.00    -0.079 N 
ATOM      6  H13 UNL     1      26.965  25.659  49.096  1.00  0.00     0.274 HD
ATOM      7  H12 UNL     1      25.760  25.984  50.010  1.00  0.00     0.274 HD
ATOM      8  H11 UNL     1      25.888  24.401  49.435  1.00  0.00     0.274 HD
ENDBRANCH   4   5
ENDBRANCH   3   4
ENDBRANCH   2   3
ENDBRANCH   1   2
BRANCH   1   9
HETATM    9  N2  UNL     1      26.384  25.778  44.491  1.00  0.00    -0.366 N 
HETATM   10  C5  UNL     1      25.209  25.266  43.941  1.00  0.00     0.476 C 
HETATM   11  N3  UNL     1      25.292  25.508  42.476  1.00  0.00    -0.033 N 
HETATM   12  N4  UNL     1      23.965  25.877  44.328  1.00  0.00    -0.033 N 
ATOM     13  H33 UNL     1      25.458  26.485  42.235  1.00  0.00     0.278 HD
ATOM     14  H32 UNL     1      26.137  25.127  42.050  1.00  0.00     0.278 HD
ATOM     15  H31 UNL     1      24.432  25.134  42.073  1.00  0.00     0.278 HD
ATOM     16  H43 UNL     1      23.890  25.870  45.345  1.00  0.00     0.278 HD
ATOM     17  H42 UNL     1      24.012  26.879  44.145  1.00  0.00     0.278 HD
ATOM     18  H41 UNL     1      23.106  25.503  43.925  1.00  0.00     0.278 HD
ATOM     19  H2  UNL     1      27.010  26.300  43.877  1.00  0.00     0.157 HD
ENDBRANCH   1   9
BRANCH   1  20
HETATM   20  C6  UNL     1      28.043  24.858  45.991  1.00  0.00     0.240 C 
BRANCH  20  21
HETATM   21  O1  UNL     1      29.064  25.452  45.283  1.00  0.00    -0.375 OA
ATOM     22  H1  UNL     1      29.548  24.804  44.785  1.00  0.00     0.212 HD
ENDBRANCH  20  21
BRANCH  20  23
HETATM   23  N5  UNL     1      27.913  23.473  45.580  1.00  0.00    -0.362 N 
ATOM     24  H5  UNL     1      26.977  23.073  45.528  1.00  0.00     0.162 HD
BRANCH  23  25
HETATM   25  C7  UNL     1      29.009  22.650  45.249  1.00  0.00     0.030 A 
HETATM   26  C8  UNL     1      30.017  22.277  46.084  1.00  0.00     0.031 A 
HETATM   27  C9  UNL     1      31.068  21.474  45.653  1.00  0.00     0.034 A 
HETATM   28  C10 UNL     1      31.143  21.018  44.364  1.00  0.00     0.059 A 
HETATM   29  C12 UNL     1      30.128  21.390  43.512  1.00  0.00     0.034 A 
HETATM   30  C13 UNL     1      29.087  22.181  43.925  1.00  0.00     0.031 A 
BRANCH  28  31
HETATM   31  N6  UNL     1      32.230  20.187  43.912  1.00  0.00    -0.235 N 
HETATM   32  C11 UNL     1      32.265  19.454  42.804  1.00  0.00     0.226 A 
HETATM   33  N7  UNL     1      33.472  18.846  42.790  1.00  0.00    -0.279 N 
HETATM   34  N8  UNL     1      34.149  19.199  43.856  1.00  0.00    -0.227 N 
ATOM     35  H7  UNL     1      33.804  18.212  42.063  1.00  0.00     0.189 HD
HETATM   36  N9  UNL     1      33.384  20.022  44.542  1.00  0.00    -0.220 N 
ATOM     37  H8  UNL     1      35.090  18.895  44.106  1.00  0.00     0.210 HD
ATOM     38  H9  UNL     1      33.641  20.464  45.425  1.00  0.00     0.210 HD
ENDBRANCH  28  31
ENDBRANCH  23  25
ENDBRANCH  20  23
ENDBRANCH   1  20
TORSDOF 10
ENDMDL
MODEL 5
REMARK VINA RESULT: -7.665837844      1.130      1.298
REMARK  10 active torsions:
REMARK  status: ('A' for Active; 'I' for Inactive)
REMARK    1  A    between atoms: N1_1  and  C1_5 
REMARK    2  A    between atoms: C1_5  and  C2_6 
REMARK    3  A    between atoms: C2_6  and  C3_7 
REMARK    4  A    between atoms: C3_7  and  C4_8 
REMARK    5  A    between atoms: C4_8  and  N2_9 
REMARK    6  A    between atoms: C4_8  and  C6_20 
REMARK       I    between atoms: N2_9  and  C5_11 
REMARK       I    between atoms: C5_11  and  N3_12 
REMARK       I    between atoms: C5_11  and  N4_16 
REMARK    7  A    between atoms: C6_20  and  O1_21 
REMARK    8  A    between atoms: C6_20  and  N5_23 
REMARK    9  A    between atoms: N5_23  and  C7_25 
REMARK   10  A    between atoms: C10_28  and  N6_29 
ROOT
HETATM    1  C4  UNL     1      27.066  25.544  45.792  1.00  0.00     0.128 C 
ENDROOT
BRANCH   1   2
HETATM    2  C3  UNL     1      26.268  24.826  44.728  1.00  0.00     0.031 C 
BRANCH   2   3
HETATM    3  C2  UNL     1      25.425  25.835  43.979  1.00  0.00     0.029 C 
BRANCH   3   4
HETATM    4  C1  UNL     1      26.283  26.630  42.998  1.00  0.00     0.230 C 
BRANCH   4   5
HETATM    5  N1  UNL     1      26.264  26.010  41.688  1.00  0.00    -0.079 N 
ATOM      6  H13 UNL     1      25.328  25.700  41.428  1.00  0.00     0.274 HD
ATOM      7  H12 UNL     1      26.411  26.691  40.943  1.00  0.00     0.274 HD
ATOM      8  H11 UNL     1      26.942  25.249  41.643  1.00  0.00     0.274 HD
ENDBRANCH   4   5
ENDBRANCH   3   4
ENDBRANCH   2   3
ENDBRANCH   1   2
BRANCH   1   9
HETATM    9  N2  UNL     1      26.386  25.860  46.955  1.00  0.00    -0.366 N 
HETATM   10  C5  UNL     1      26.364  27.128  47.535  1.00  0.00     0.476 C 
HETATM   11  N3  UNL     1      25.672  26.980  48.843  1.00  0.00    -0.033 N 
HETATM   12  N4  UNL     1      25.624  28.162  46.861  1.00  0.00    -0.033 N 
ATOM     13  H33 UNL     1      24.748  26.555  48.766  1.00  0.00     0.278 HD
ATOM     14  H32 UNL     1      26.089  26.268  49.443  1.00  0.00     0.278 HD
ATOM     15  H31 UNL     1      25.656  27.908  49.268  1.00  0.00     0.278 HD
ATOM     16  H43 UNL     1      25.954  28.239  45.899  1.00  0.00     0.278 HD
ATOM     17  H42 UNL     1      24.666  27.846  46.711  1.00  0.00     0.278 HD
ATOM     18  H41 UNL     1      25.608  29.090  47.286  1.00  0.00     0.278 HD
ATOM     19  H2  UNL     1      25.865  25.115  47.419  1.00  0.00     0.157 HD
ENDBRANCH   1   9
BRANCH   1  20
HETATM   20  C6  UNL     1      28.318  24.739  46.029  1.00  0.00     0.240 C 
BRANCH  20  21
HETATM   21  O1  UNL     1      29.378  25.272  45.330  1.00  0.00    -0.375 OA
ATOM     22  H1  UNL     1      30.184  25.185  45.826  1.00  0.00     0.212 HD
ENDBRANCH  20  21
BRANCH  20  23
HETATM   23  N5  UNL     1      28.149  23.346  45.661  1.00  0.00    -0.362 N 
ATOM     24  H5  UNL     1      27.212  22.946  45.706  1.00  0.00     0.162 HD
BRANCH  23  25
HETATM   25  C7  UNL     1      29.210  22.514  45.244  1.00  0.00     0.030 A 
HETATM   26  C8  UNL     1      30.207  22.025  46.031  1.00  0.00     0.031 A 
HETATM   27  C9  UNL     1      31.221  21.225  45.517  1.00  0.00     0.034 A 
HETATM   28  C10 UNL     1      31.270  20.888  44.191  1.00  0.00     0.059 A 
HETATM   29  C12 UNL     1      30.266  21.377  43.387  1.00  0.00     0.034 A 
HETATM   30  C13 UNL     1      29.260  22.167  43.882  1.00  0.00     0.031 A 
BRANCH  28  31
HETATM   31  N6  UNL     1      32.319  20.060  43.654  1.00  0.00    -0.235 N 
HETATM   32  C11 UNL     1      32.348  19.487  42.455  1.00  0.00     0.226 A 
HETATM   33  N7  UNL     1      33.515  18.811  42.384  1.00  0.00    -0.279 N 
HETATM   34  N8  UNL     1      34.176  18.968  43.506  1.00  0.00    -0.227 N 
ATOM     35  H7  UNL     1      33.833  18.264  41.584  1.00  0.00     0.189 HD
HETATM   36  N9  UNL     1      33.439  19.735  44.282  1.00  0.00    -0.220 N 
ATOM     37  H8  UNL     1      35.089  18.572  43.734  1.00  0.00     0.210 HD
ATOM     38  H9  UNL     1      33.693  20.033  45.224  1.00  0.00     0.210 HD
ENDBRANCH  28  31
ENDBRANCH  23  25
ENDBRANCH  20  23
ENDBRANCH   1  20
TORSDOF 10
ENDMDL
