MODEL 1
REMARK VINA RESULT: -7.472245368      0.000      0.000
REMARK  10 active torsions:
REMARK  status: ('A' for Active; 'I' for Inactive)
REMARK    1  A    between atoms: N1_1  and  C1_5 
REMARK    2  A    between atoms: C3_9  and  N3_10 
REMARK    3  A    between atoms: N3_10  and  C4_12 
REMARK    4  A    between atoms: C6_16  and  C7_17 
REMARK    5  A    between atoms: C7_17  and  N5_18 
REMARK    6  A    between atoms: N5_18  and  C8_21 
REMARK    7  A    between atoms: C8_21  and  C9_22 
REMARK    8  A    between atoms: C9_22  and  C10_23 
REMARK    9  A    between atoms: C10_23  and  C11_24 
REMARK   10  A    between atoms: C11_24  and  N6_25 
REMARK       I    between atoms: N6_25  and  C12_28 
REMARK       I    between atoms: C12_28  and  N7_29 
REMARK       I    between atoms: C12_28  and  N8_33 
ROOT
HETATM    1  C7  UNL     1      30.463  20.015  45.051  1.00  0.00     0.298 C 
ENDROOT
BRANCH   1   2
HETATM    2  C6  UNL     1      30.113  21.455  45.162  1.00  0.00     0.098 A 
HETATM    3  C5  UNL     1      30.618  22.487  44.407  1.00  0.00     0.126 A 
HETATM    4  N4  UNL     1      30.059  23.651  44.803  1.00  0.00    -0.329 N 
HETATM    5  C4  UNL     1      29.228  23.320  45.783  1.00  0.00     0.231 A 
ATOM      6  H4  UNL     1      30.236  24.583  44.429  1.00  0.00     0.168 HD
HETATM    7  O1  UNL     1      29.252  22.022  46.003  1.00  0.00    -0.281 OA
BRANCH   5   8
HETATM    8  N3  UNL     1      28.466  24.144  46.473  1.00  0.00    -0.288 N 
ATOM      9  H3  UNL     1      28.800  24.559  47.343  1.00  0.00     0.173 HD
BRANCH   8  10
HETATM   10  C3  UNL     1      27.149  24.444  45.970  1.00  0.00     0.222 C 
HETATM   11  N2  UNL     1      26.179  24.698  46.779  1.00  0.00    -0.354 N 
HETATM   12  C2  UNL     1      24.826  25.008  46.378  1.00  0.00     0.158 C 
ATOM     13  H2  UNL     1      26.382  24.677  47.779  1.00  0.00     0.163 HD
HETATM   14  C1  UNL     1      24.930  25.790  45.090  1.00  0.00     0.225 C 
HETATM   15  C13 UNL     1      25.654  24.878  44.105  1.00  0.00     0.213 C 
HETATM   16  O2  UNL     1      26.892  24.466  44.610  1.00  0.00    -0.320 OA
BRANCH  14  17
HETATM   17  N1  UNL     1      23.670  26.206  44.559  1.00  0.00    -0.071 N 
ATOM     18  H13 UNL     1      23.803  26.765  43.716  1.00  0.00     0.274 HD
ATOM     19  H12 UNL     1      23.169  25.412  44.161  1.00  0.00     0.274 HD
ATOM     20  H11 UNL     1      23.081  26.701  45.228  1.00  0.00     0.274 HD
ENDBRANCH  14  17
ENDBRANCH   8  10
ENDBRANCH   5   8
ENDBRANCH   1   2
BRANCH   1  21
HETATM   21  N5  UNL     1      31.088  19.516  46.244  1.00  0.00    -0.069 N 
ATOM     22  H52 UNL     1      30.620  19.871  47.079  1.00  0.00     0.277 HD
ATOM     23  H51 UNL     1      30.906  18.520  46.363  1.00  0.00     0.277 HD
BRANCH  21  24
HETATM   24  C8  UNL     1      32.501  19.790  46.290  1.00  0.00     0.232 C 
BRANCH  24  25
HETATM   25  C9  UNL     1      32.955  20.226  47.649  1.00  0.00     0.029 C 
BRANCH  25  26
HETATM   26  C10 UNL     1      32.315  21.515  48.120  1.00  0.00     0.029 C 
BRANCH  26  27
HETATM   27  C11 UNL     1      32.945  22.725  47.515  1.00  0.00     0.237 C 
BRANCH  27  28
HETATM   28  N6  UNL     1      34.181  23.023  48.184  1.00  0.00    -0.022 N 
HETATM   29  C12 UNL     1      35.292  23.025  47.258  1.00  0.00     0.575 C 
HETATM   30  N7  UNL     1      35.074  24.038  46.236  1.00  0.00    -0.026 N 
HETATM   31  N8  UNL     1      36.551  23.304  47.975  1.00  0.00    -0.026 N 
ATOM     32  H73 UNL     1      34.178  23.920  45.762  1.00  0.00     0.278 HD
ATOM     33  H72 UNL     1      34.906  24.961  46.638  1.00  0.00     0.278 HD
ATOM     34  H71 UNL     1      35.857  24.039  45.583  1.00  0.00     0.278 HD
ATOM     35  H83 UNL     1      36.500  24.170  48.512  1.00  0.00     0.278 HD
ATOM     36  H82 UNL     1      36.700  22.655  48.749  1.00  0.00     0.278 HD
ATOM     37  H81 UNL     1      37.335  23.305  47.322  1.00  0.00     0.278 HD
ATOM     38  H62 UNL     1      34.124  23.900  48.702  1.00  0.00     0.281 HD
ATOM     39  H61 UNL     1      34.346  22.389  48.966  1.00  0.00     0.281 HD
ENDBRANCH  27  28
ENDBRANCH  26  27
ENDBRANCH  25  26
ENDBRANCH  24  25
ENDBRANCH  21  24
ENDBRANCH   1  21
TORSDOF 10
ENDMDL
MODEL 2
REMARK VINA RESULT: -7.431527577      2.339      8.183
REMARK  10 active torsions:
REMARK  status: ('A' for Active; 'I' for Inactive)
REMARK    1  A    between atoms: N1_1  and  C1_5 
REMARK    2  A    between atoms: C3_9  and  N3_10 
REMARK    3  A    between atoms: N3_10  and  C4_12 
REMARK    4  A    between atoms: C6_16  and  C7_17 
REMARK    5  A    between atoms: C7_17  and  N5_18 
REMARK    6  A    between atoms: N5_18  and  C8_21 
REMARK    7  A    between atoms: C8_21  and  C9_22 
REMARK    8  A    between atoms: C9_22  and  C10_23 
REMARK    9  A    between atoms: C10_23  and  C11_24 
REMARK   10  A    between atoms: C11_24  and  N6_25 
REMARK       I    between atoms: N6_25  and  C12_28 
REMARK       I    between atoms: C12_28  and  N7_29 
REMARK       I    between atoms: C12_28  and  N8_33 
ROOT
HETATM    1  C7  UNL     1      26.313  25.461  47.760  1.00  0.00     0.298 C 
ENDROOT
BRANCH   1   2
HETATM    2  C6  UNL     1      27.380  24.769  46.992  1.00  0.00     0.098 A 
HETATM    3  C5  UNL     1      28.712  25.106  46.942  1.00  0.00     0.126 A 
HETATM    4  N4  UNL     1      29.366  24.243  46.136  1.00  0.00    -0.329 N 
HETATM    5  C4  UNL     1      28.436  23.398  45.708  1.00  0.00     0.231 A 
ATOM      6  H4  UNL     1      30.360  24.240  45.906  1.00  0.00     0.168 HD
HETATM    7  O1  UNL     1      27.258  23.700  46.209  1.00  0.00    -0.281 OA
BRANCH   5   8
HETATM    8  N3  UNL     1      28.621  22.381  44.889  1.00  0.00    -0.288 N 
ATOM      9  H3  UNL     1      27.886  22.089  44.245  1.00  0.00     0.173 HD
BRANCH   8  10
HETATM   10  C3  UNL     1      29.887  21.693  44.926  1.00  0.00     0.222 C 
HETATM   11  N2  UNL     1      30.491  21.372  43.834  1.00  0.00    -0.354 N 
HETATM   12  C2  UNL     1      31.758  20.681  43.761  1.00  0.00     0.158 C 
ATOM     13  H2  UNL     1      30.040  21.624  42.954  1.00  0.00     0.163 HD
HETATM   14  C1  UNL     1      32.575  21.161  44.938  1.00  0.00     0.225 C 
HETATM   15  C13 UNL     1      31.767  20.804  46.181  1.00  0.00     0.213 C 
HETATM   16  O2  UNL     1      30.484  21.358  46.129  1.00  0.00    -0.320 OA
BRANCH  14  17
HETATM   17  N1  UNL     1      33.884  20.592  45.006  1.00  0.00    -0.071 N 
ATOM     18  H13 UNL     1      33.924  19.720  44.477  1.00  0.00     0.274 HD
ATOM     19  H12 UNL     1      34.547  21.150  44.469  1.00  0.00     0.274 HD
ATOM     20  H11 UNL     1      34.225  20.449  45.957  1.00  0.00     0.274 HD
ENDBRANCH  14  17
ENDBRANCH   8  10
ENDBRANCH   5   8
ENDBRANCH   1   2
BRANCH   1  21
HETATM   21  N5  UNL     1      26.441  26.891  47.699  1.00  0.00    -0.069 N 
ATOM     22  H52 UNL     1      26.188  27.319  48.590  1.00  0.00     0.277 HD
ATOM     23  H51 UNL     1      27.421  27.169  47.655  1.00  0.00     0.277 HD
BRANCH  21  24
HETATM   24  C8  UNL     1      25.691  27.472  46.616  1.00  0.00     0.232 C 
BRANCH  24  25
HETATM   25  C9  UNL     1      24.218  27.242  46.753  1.00  0.00     0.029 C 
BRANCH  25  26
HETATM   26  C10 UNL     1      23.533  26.891  45.450  1.00  0.00     0.029 C 
BRANCH  26  27
HETATM   27  C11 UNL     1      24.139  25.701  44.783  1.00  0.00     0.237 C 
BRANCH  27  28
HETATM   28  N6  UNL     1      24.471  26.015  43.421  1.00  0.00    -0.022 N 
HETATM   29  C12 UNL     1      25.810  25.579  43.093  1.00  0.00     0.575 C 
HETATM   30  N7  UNL     1      25.909  24.136  43.262  1.00  0.00    -0.026 N 
HETATM   31  N8  UNL     1      26.136  25.940  41.700  1.00  0.00    -0.026 N 
ATOM     32  H73 UNL     1      25.624  23.838  44.195  1.00  0.00     0.278 HD
ATOM     33  H72 UNL     1      25.198  23.637  42.727  1.00  0.00     0.278 HD
ATOM     34  H71 UNL     1      26.853  23.829  43.030  1.00  0.00     0.278 HD
ATOM     35  H83 UNL     1      25.445  25.581  41.041  1.00  0.00     0.278 HD
ATOM     36  H82 UNL     1      26.006  26.937  41.525  1.00  0.00     0.278 HD
ATOM     37  H81 UNL     1      27.081  25.633  41.468  1.00  0.00     0.278 HD
ATOM     38  H62 UNL     1      23.783  25.635  42.771  1.00  0.00     0.281 HD
ATOM     39  H61 UNL     1      24.342  27.008  43.223  1.00  0.00     0.281 HD
ENDBRANCH  27  28
ENDBRANCH  26  27
ENDBRANCH  25  26
ENDBRANCH  24  25
ENDBRANCH  21  24
ENDBRANCH   1  21
TORSDOF 10
ENDMDL
MODEL 3
REMARK VINA RESULT: -7.419469421      2.455      7.908
REMARK  10 active torsions:
REMARK  status: ('A' for Active; 'I' for Inactive)
REMARK    1  A    between atoms: N1_1  and  C1_5 
REMARK    2  A    between atoms: C3_9  and  N3_10 
REMARK    3  A    between atoms: N3_10  and  C4_12 
REMARK    4  A    between atoms: C6_16  and  C7_17 
REMARK    5  A    between atoms: C7_17  and  N5_18 
REMARK    6  A    between atoms: N5_18  and  C8_21 
REMARK    7  A    between atoms: C8_21  and  C9_22 
REMARK    8  A    between atoms: C9_22  and  C10_23 
REMARK    9  A    between atoms: C10_23  and  C11_24 
REMARK   10  A    between atoms: C11_24  and  N6_25 
REMARK       I    between atoms: N6_25  and  C12_28 
REMARK       I    between atoms: C12_28  and  N7_29 
REMARK       I    between atoms: C12_28  and  N8_33 
ROOT
HETATM    1  C7  UNL     1      26.304  25.350  48.130  1.00  0.00     0.298 C 
ENDROOT
BRANCH   1   2
HETATM    2  C6  UNL     1      27.315  24.773  47.209  1.00  0.00     0.098 A 
HETATM    3  C5  UNL     1      28.585  25.246  46.976  1.00  0.00     0.126 A 
HETATM    4  N4  UNL     1      29.204  24.456  46.073  1.00  0.00    -0.329 N 
HETATM    5  C4  UNL     1      28.314  23.520  45.767  1.00  0.00     0.231 A 
ATOM      6  H4  UNL     1      30.150  24.557  45.705  1.00  0.00     0.168 HD
HETATM    7  O1  UNL     1      27.194  23.698  46.434  1.00  0.00    -0.281 OA
BRANCH   5   8
HETATM    8  N3  UNL     1      28.485  22.529  44.914  1.00  0.00    -0.288 N 
ATOM      9  H3  UNL     1      27.746  22.272  44.259  1.00  0.00     0.173 HD
BRANCH   8  10
HETATM   10  C3  UNL     1      29.739  21.819  44.930  1.00  0.00     0.222 C 
HETATM   11  N2  UNL     1      30.326  21.501  43.828  1.00  0.00    -0.354 N 
HETATM   12  C2  UNL     1      31.581  20.790  43.735  1.00  0.00     0.158 C 
ATOM     13  H2  UNL     1      29.871  21.771  42.956  1.00  0.00     0.163 HD
HETATM   14  C1  UNL     1      32.417  21.241  44.909  1.00  0.00     0.225 C 
HETATM   15  C13 UNL     1      31.615  20.883  46.156  1.00  0.00     0.213 C 
HETATM   16  O2  UNL     1      30.341  21.459  46.123  1.00  0.00    -0.320 OA
BRANCH  14  17
HETATM   17  N1  UNL     1      33.717  20.649  44.958  1.00  0.00    -0.071 N 
ATOM     18  H13 UNL     1      33.721  19.844  45.585  1.00  0.00     0.274 HD
ATOM     19  H12 UNL     1      33.931  20.181  44.077  1.00  0.00     0.274 HD
ATOM     20  H11 UNL     1      34.461  21.301  45.206  1.00  0.00     0.274 HD
ENDBRANCH  14  17
ENDBRANCH   8  10
ENDBRANCH   5   8
ENDBRANCH   1   2
BRANCH   1  21
HETATM   21  N5  UNL     1      25.398  24.355  48.634  1.00  0.00    -0.069 N 
ATOM     22  H52 UNL     1      25.841  23.436  48.657  1.00  0.00     0.277 HD
ATOM     23  H51 UNL     1      25.232  24.484  49.632  1.00  0.00     0.277 HD
BRANCH  21  24
HETATM   24  C8  UNL     1      24.157  24.311  47.906  1.00  0.00     0.232 C 
BRANCH  24  25
HETATM   25  C9  UNL     1      23.791  25.640  47.320  1.00  0.00     0.029 C 
BRANCH  25  26
HETATM   26  C10 UNL     1      23.727  25.640  45.808  1.00  0.00     0.029 C 
BRANCH  26  27
HETATM   27  C11 UNL     1      23.938  26.997  45.223  1.00  0.00     0.237 C 
BRANCH  27  28
HETATM   28  N6  UNL     1      24.854  27.747  46.037  1.00  0.00    -0.022 N 
HETATM   29  C12 UNL     1      26.166  27.810  45.430  1.00  0.00     0.575 C 
HETATM   30  N7  UNL     1      26.072  28.465  44.134  1.00  0.00    -0.026 N 
HETATM   31  N8  UNL     1      27.093  28.558  46.300  1.00  0.00    -0.026 N 
ATOM     32  H73 UNL     1      25.387  28.017  43.525  1.00  0.00     0.278 HD
ATOM     33  H72 UNL     1      25.631  29.383  44.197  1.00  0.00     0.278 HD
ATOM     34  H71 UNL     1      26.996  28.510  43.706  1.00  0.00     0.278 HD
ATOM     35  H83 UNL     1      26.734  29.485  46.532  1.00  0.00     0.278 HD
ATOM     36  H82 UNL     1      27.128  28.170  47.243  1.00  0.00     0.278 HD
ATOM     37  H81 UNL     1      28.018  28.604  45.872  1.00  0.00     0.278 HD
ATOM     38  H62 UNL     1      24.494  28.678  46.247  1.00  0.00     0.281 HD
ATOM     39  H61 UNL     1      24.899  27.378  46.988  1.00  0.00     0.281 HD
ENDBRANCH  27  28
ENDBRANCH  26  27
ENDBRANCH  25  26
ENDBRANCH  24  25
ENDBRANCH  21  24
ENDBRANCH   1  21
TORSDOF 10
ENDMDL
MODEL 4
REMARK VINA RESULT: -7.413561733      1.118      1.132
REMARK  10 active torsions:
REMARK  status: ('A' for Active; 'I' for Inactive)
REMARK    1  A    between atoms: N1_1  and  C1_5 
REMARK    2  A    between atoms: C3_9  and  N3_10 
REMARK    3  A    between atoms: N3_10  and  C4_12 
REMARK    4  A    between atoms: C6_16  and  C7_17 
REMARK    5  A    between atoms: C7_17  and  N5_18 
REMARK    6  A    between atoms: N5_18  and  C8_21 
REMARK    7  A    between atoms: C8_21  and  C9_22 
REMARK    8  A    between atoms: C9_22  and  C10_23 
REMARK    9  A    between atoms: C10_23  and  C11_24 
REMARK   10  A    between atoms: C11_24  and  N6_25 
REMARK       I    between atoms: N6_25  and  C12_28 
REMARK       I    between atoms: C12_28  and  N7_29 
REMARK       I    between atoms: C12_28  and  N8_33 
ROOT
HETATM    1  C7  UNL     1      30.616  20.134  45.414  1.00  0.00     0.298 C 
ENDROOT
BRANCH   1   2
HETATM    2  C6  UNL     1      30.326  21.591  45.405  1.00  0.00     0.098 A 
HETATM    3  C5  UNL     1      30.460  22.453  44.342  1.00  0.00     0.126 A 
HETATM    4  N4  UNL     1      30.102  23.697  44.723  1.00  0.00    -0.329 N 
HETATM    5  C4  UNL     1      29.757  23.583  45.999  1.00  0.00     0.231 A 
ATOM      6  H4  UNL     1      30.097  24.543  44.152  1.00  0.00     0.168 HD
HETATM    7  O1  UNL     1      29.885  22.341  46.412  1.00  0.00    -0.281 OA
BRANCH   5   8
HETATM    8  N3  UNL     1      29.340  24.555  46.786  1.00  0.00    -0.288 N 
ATOM      9  H3  UNL     1      29.901  24.861  47.580  1.00  0.00     0.173 HD
BRANCH   8  10
HETATM   10  C3  UNL     1      28.071  25.175  46.496  1.00  0.00     0.222 C 
HETATM   11  N2  UNL     1      27.131  25.188  47.378  1.00  0.00    -0.354 N 
HETATM   12  C2  UNL     1      25.826  25.780  47.187  1.00  0.00     0.158 C 
ATOM     13  H2  UNL     1      27.323  24.747  48.277  1.00  0.00     0.163 HD
HETATM   14  C1  UNL     1      26.031  26.995  46.314  1.00  0.00     0.225 C 
HETATM   15  C13 UNL     1      26.651  26.481  45.020  1.00  0.00     0.213 C 
HETATM   16  O2  UNL     1      27.828  25.767  45.269  1.00  0.00    -0.320 OA
BRANCH  14  17
HETATM   17  N1  UNL     1      24.832  27.725  46.044  1.00  0.00    -0.071 N 
ATOM     18  H13 UNL     1      24.120  27.110  45.650  1.00  0.00     0.274 HD
ATOM     19  H12 UNL     1      24.369  27.989  46.914  1.00  0.00     0.274 HD
ATOM     20  H11 UNL     1      24.969  28.542  45.449  1.00  0.00     0.274 HD
ENDBRANCH  14  17
ENDBRANCH   8  10
ENDBRANCH   5   8
ENDBRANCH   1   2
BRANCH   1  21
HETATM   21  N5  UNL     1      31.976  19.849  45.049  1.00  0.00    -0.069 N 
ATOM     22  H52 UNL     1      32.150  18.844  45.042  1.00  0.00     0.277 HD
ATOM     23  H51 UNL     1      32.140  20.053  44.064  1.00  0.00     0.277 HD
BRANCH  21  24
HETATM   24  C8  UNL     1      32.931  20.532  45.883  1.00  0.00     0.232 C 
BRANCH  24  25
HETATM   25  C9  UNL     1      32.927  20.023  47.291  1.00  0.00     0.029 C 
BRANCH  25  26
HETATM   26  C10 UNL     1      32.795  21.115  48.332  1.00  0.00     0.029 C 
BRANCH  26  27
HETATM   27  C11 UNL     1      33.140  22.465  47.796  1.00  0.00     0.237 C 
BRANCH  27  28
HETATM   28  N6  UNL     1      34.374  22.923  48.372  1.00  0.00    -0.022 N 
HETATM   29  C12 UNL     1      35.435  22.946  47.390  1.00  0.00     0.575 C 
HETATM   30  N7  UNL     1      35.078  23.850  46.307  1.00  0.00    -0.026 N 
HETATM   31  N8  UNL     1      36.696  23.390  48.014  1.00  0.00    -0.026 N 
ATOM     32  H73 UNL     1      34.175  23.616  45.893  1.00  0.00     0.278 HD
ATOM     33  H72 UNL     1      34.846  24.784  46.645  1.00  0.00     0.278 HD
ATOM     34  H71 UNL     1      35.826  23.866  45.614  1.00  0.00     0.278 HD
ATOM     35  H83 UNL     1      36.592  24.289  48.485  1.00  0.00     0.278 HD
ATOM     36  H82 UNL     1      36.940  22.822  48.826  1.00  0.00     0.278 HD
ATOM     37  H81 UNL     1      37.445  23.406  47.322  1.00  0.00     0.278 HD
ATOM     38  H62 UNL     1      34.262  23.831  48.824  1.00  0.00     0.281 HD
ATOM     39  H61 UNL     1      34.632  22.371  49.191  1.00  0.00     0.281 HD
ENDBRANCH  27  28
ENDBRANCH  26  27
ENDBRANCH  25  26
ENDBRANCH  24  25
ENDBRANCH  21  24
ENDBRANCH   1  21
TORSDOF 10
ENDMDL
MODEL 5
REMARK VINA RESULT: -7.358169931      2.325      8.114
REMARK  10 active torsions:
REMARK  status: ('A' for Active; 'I' for Inactive)
REMARK    1  A    between atoms: N1_1  and  C1_5 
REMARK    2  A    between atoms: C3_9  and  N3_10 
REMARK    3  A    between atoms: N3_10  and  C4_12 
REMARK    4  A    between atoms: C6_16  and  C7_17 
REMARK    5  A    between atoms: C7_17  and  N5_18 
REMARK    6  A    between atoms: N5_18  and  C8_21 
REMARK    7  A    between atoms: C8_21  and  C9_22 
REMARK    8  A    between atoms: C9_22  and  C10_23 
REMARK    9  A    between atoms: C10_23  and  C11_24 
REMARK   10  A    between atoms: C11_24  and  N6_25 
REMARK       I    between atoms: N6_25  and  C12_28 
REMARK       I    between atoms: C12_28  and  N7_29 
REMARK       I    between atoms: C12_28  and  N8_33 
ROOT
HETATM    1  C7  UNL     1      26.232  25.552  48.097  1.00  0.00     0.298 C 
ENDROOT
BRANCH   1   2
HETATM    2  C6  UNL     1      27.201  24.985  47.125  1.00  0.00     0.098 A 
HETATM    3  C5  UNL     1      28.271  25.631  46.553  1.00  0.00     0.126 A 
HETATM    4  N4  UNL     1      28.915  24.787  45.719  1.00  0.00    -0.329 N 
HETATM    5  C4  UNL     1      28.239  23.648  45.790  1.00  0.00     0.231 A 
ATOM      6  H4  UNL     1      29.744  24.983  45.156  1.00  0.00     0.168 HD
HETATM    7  O1  UNL     1      27.223  23.753  46.620  1.00  0.00    -0.281 OA
BRANCH   5   8
HETATM    8  N3  UNL     1      28.510  22.536  45.136  1.00  0.00    -0.288 N 
ATOM      9  H3  UNL     1      27.813  22.107  44.526  1.00  0.00     0.173 HD
BRANCH   8  10
HETATM   10  C3  UNL     1      29.813  21.942  45.301  1.00  0.00     0.222 C 
HETATM   11  N2  UNL     1      30.008  20.700  45.020  1.00  0.00    -0.354 N 
HETATM   12  C2  UNL     1      31.271  20.011  45.152  1.00  0.00     0.158 C 
ATOM     13  H2  UNL     1      29.210  20.163  44.680  1.00  0.00     0.163 HD
HETATM   14  C1  UNL     1      32.345  21.017  44.813  1.00  0.00     0.225 C 
HETATM   15  C13 UNL     1      32.178  22.159  45.810  1.00  0.00     0.213 C 
HETATM   16  O2  UNL     1      30.884  22.687  45.765  1.00  0.00    -0.320 OA
BRANCH  14  17
HETATM   17  N1  UNL     1      33.673  20.490  44.868  1.00  0.00    -0.071 N 
ATOM     18  H13 UNL     1      34.153  20.815  45.708  1.00  0.00     0.274 HD
ATOM     19  H12 UNL     1      33.654  19.488  45.058  1.00  0.00     0.274 HD
ATOM     20  H11 UNL     1      34.231  20.686  44.038  1.00  0.00     0.274 HD
ENDBRANCH  14  17
ENDBRANCH   8  10
ENDBRANCH   5   8
ENDBRANCH   1   2
BRANCH   1  21
HETATM   21  N5  UNL     1      25.081  24.711  48.270  1.00  0.00    -0.069 N 
ATOM     22  H52 UNL     1      25.250  23.778  47.893  1.00  0.00     0.277 HD
ATOM     23  H51 UNL     1      24.948  24.470  49.253  1.00  0.00     0.277 HD
BRANCH  21  24
HETATM   24  C8  UNL     1      23.883  25.283  47.714  1.00  0.00     0.232 C 
BRANCH  24  25
HETATM   25  C9  UNL     1      24.079  26.702  47.274  1.00  0.00     0.029 C 
BRANCH  25  26
HETATM   26  C10 UNL     1      23.739  26.939  45.818  1.00  0.00     0.029 C 
BRANCH  26  27
HETATM   27  C11 UNL     1      24.056  25.764  44.954  1.00  0.00     0.237 C 
BRANCH  27  28
HETATM   28  N6  UNL     1      24.407  26.206  43.632  1.00  0.00    -0.022 N 
HETATM   29  C12 UNL     1      25.667  25.639  43.206  1.00  0.00     0.575 C 
HETATM   30  N7  UNL     1      25.568  24.187  43.188  1.00  0.00    -0.026 N 
HETATM   31  N8  UNL     1      26.017  26.132  41.860  1.00  0.00    -0.026 N 
ATOM     32  H73 UNL     1      25.260  23.811  44.084  1.00  0.00     0.278 HD
ATOM     33  H72 UNL     1      24.787  23.862  42.617  1.00  0.00     0.278 HD
ATOM     34  H71 UNL     1      26.457  23.787  42.887  1.00  0.00     0.278 HD
ATOM     35  H83 UNL     1      25.273  25.957  41.185  1.00  0.00     0.278 HD
ATOM     36  H82 UNL     1      26.023  27.151  41.817  1.00  0.00     0.278 HD
ATOM     37  H81 UNL     1      26.906  25.732  41.559  1.00  0.00     0.278 HD
ATOM     38  H62 UNL     1      23.662  26.010  42.962  1.00  0.00     0.281 HD
ATOM     39  H61 UNL     1      24.412  27.224  43.566  1.00  0.00     0.281 HD
ENDBRANCH  27  28
ENDBRANCH  26  27
ENDBRANCH  25  26
ENDBRANCH  24  25
ENDBRANCH  21  24
ENDBRANCH   1  21
TORSDOF 10
ENDMDL
