MODEL 1
REMARK VINA RESULT: -7.366209906      0.000      0.000
REMARK  12 active torsions:
REMARK  status: ('A' for Active; 'I' for Inactive)
REMARK    1  A    between atoms: N1_1  and  C1_4 
REMARK    2  A    between atoms: C3_8  and  N3_9 
REMARK    3  A    between atoms: N3_9  and  C4_11 
REMARK    4  A    between atoms: C4_11  and  N4_12 
REMARK    5  A    between atoms: C4_11  and  C5_16 
REMARK    6  A    between atoms: C5_16  and  C6_17 
REMARK    7  A    between atoms: C6_17  and  N5_18 
REMARK    8  A    between atoms: N5_18  and  C7_21 
REMARK    9  A    between atoms: C7_21  and  O1_22 
REMARK   10  A    between atoms: C7_21  and  N6_24 
REMARK   11  A    between atoms: N6_24  and  C8_27 
REMARK   12  A    between atoms: C8_27  and  C9_28 
ROOT
HETATM    1  C5  UNL     1      25.981  26.573  47.714  1.00  0.00     0.081 C 
ENDROOT
BRANCH   1   2
HETATM    2  C4  UNL     1      24.525  26.753  47.485  1.00  0.00     0.283 C 
BRANCH   2   3
HETATM    3  N3  UNL     1      24.272  27.529  46.275  1.00  0.00    -0.360 N 
ATOM      4  H3  UNL     1      23.738  28.397  46.313  1.00  0.00     0.161 HD
BRANCH   3   5
HETATM    5  C3  UNL     1      24.784  27.049  45.051  1.00  0.00     0.061 A 
HETATM    6  C2  UNL     1      25.888  27.681  44.468  1.00  0.00     0.136 A 
HETATM    7  N2  UNL     1      26.396  27.259  43.299  1.00  0.00    -0.200 N 
HETATM    8  C1  UNL     1      25.860  26.214  42.652  1.00  0.00     0.675 A 
ATOM      9  H2  UNL     1      27.201  27.740  42.898  1.00  0.00     0.183 HD
HETATM   10  N9  UNL     1      24.800  25.592  43.193  1.00  0.00    -0.200 N 
HETATM   11  C13 UNL     1      24.251  25.989  44.381  1.00  0.00     0.136 A 
ATOM     12  H9  UNL     1      24.391  24.797  42.701  1.00  0.00     0.183 HD
BRANCH   8  13
HETATM   13  N1  UNL     1      26.309  25.769  41.528  1.00  0.00    -0.234 N 
ATOM     14  H12 UNL     1      27.263  26.017  41.265  1.00  0.00     0.174 HD
ATOM     15  H11 UNL     1      25.761  25.184  40.896  1.00  0.00     0.174 HD
ENDBRANCH   8  13
ENDBRANCH   3   5
ENDBRANCH   2   3
BRANCH   2  16
HETATM   16  N4  UNL     1      23.758  25.577  47.459  1.00  0.00    -0.058 N 
ATOM     17  H43 UNL     1      23.206  25.497  46.605  1.00  0.00     0.276 HD
ATOM     18  H42 UNL     1      24.334  24.744  47.340  1.00  0.00     0.276 HD
ATOM     19  H41 UNL     1      23.179  25.529  48.297  1.00  0.00     0.276 HD
ENDBRANCH   2  16
ENDBRANCH   1   2
BRANCH   1  20
HETATM   20  C6  UNL     1      26.386  25.148  47.767  1.00  0.00     0.241 C 
BRANCH  20  21
HETATM   21  N5  UNL     1      27.672  24.910  47.224  1.00  0.00    -0.023 N 
ATOM     22  H52 UNL     1      28.300  25.699  47.381  1.00  0.00     0.282 HD
ATOM     23  H51 UNL     1      28.180  24.202  47.752  1.00  0.00     0.282 HD
BRANCH  21  24
HETATM   24  C7  UNL     1      27.578  24.570  45.826  1.00  0.00     0.522 C 
BRANCH  24  25
HETATM   25  O1  UNL     1      28.445  25.440  45.146  1.00  0.00    -0.349 OA
ATOM     26  H1  UNL     1      27.897  26.095  44.731  1.00  0.00     0.213 HD
ENDBRANCH  24  25
BRANCH  24  27
HETATM   27  N6  UNL     1      27.935  23.204  45.641  1.00  0.00    -0.016 N 
ATOM     28  H62 UNL     1      27.449  22.597  46.301  1.00  0.00     0.282 HD
ATOM     29  H61 UNL     1      27.551  22.830  44.773  1.00  0.00     0.282 HD
BRANCH  27  30
HETATM   30  C8  UNL     1      29.345  23.026  45.708  1.00  0.00     0.313 C 
BRANCH  30  31
HETATM   31  C9  UNL     1      29.764  22.094  44.617  1.00  0.00     0.107 A 
HETATM   32  N7  UNL     1      31.041  21.678  44.495  1.00  0.00    -0.354 N 
HETATM   33  C10 UNL     1      31.401  20.838  43.508  1.00  0.00     0.090 A 
ATOM     34  H7  UNL     1      31.743  22.006  45.158  1.00  0.00     0.166 HD
HETATM   35  C11 UNL     1      30.502  20.357  42.580  1.00  0.00     0.034 A 
HETATM   36  C12 UNL     1      29.191  20.793  42.718  1.00  0.00     0.090 A 
HETATM   37  N8  UNL     1      28.875  21.636  43.721  1.00  0.00    -0.354 N 
ATOM     38  H8  UNL     1      27.906  21.943  43.804  1.00  0.00     0.166 HD
ENDBRANCH  30  31
ENDBRANCH  27  30
ENDBRANCH  24  27
ENDBRANCH  21  24
ENDBRANCH  20  21
ENDBRANCH   1  20
TORSDOF 12
ENDMDL
MODEL 2
REMARK VINA RESULT: -7.350283445      3.074      8.338
REMARK  12 active torsions:
REMARK  status: ('A' for Active; 'I' for Inactive)
REMARK    1  A    between atoms: N1_1  and  C1_4 
REMARK    2  A    between atoms: C3_8  and  N3_9 
REMARK    3  A    between atoms: N3_9  and  C4_11 
REMARK    4  A    between atoms: C4_11  and  N4_12 
REMARK    5  A    between atoms: C4_11  and  C5_16 
REMARK    6  A    between atoms: C5_16  and  C6_17 
REMARK    7  A    between atoms: C6_17  and  N5_18 
REMARK    8  A    between atoms: N5_18  and  C7_21 
REMARK    9  A    between atoms: C7_21  and  O1_22 
REMARK   10  A    between atoms: C7_21  and  N6_24 
REMARK   11  A    between atoms: N6_24  and  C8_27 
REMARK   12  A    between atoms: C8_27  and  C9_28 
ROOT
HETATM    1  C5  UNL     1      31.486  19.732  44.932  1.00  0.00     0.081 C 
ENDROOT
BRANCH   1   2
HETATM    2  C4  UNL     1      32.920  20.112  44.873  1.00  0.00     0.283 C 
BRANCH   2   3
HETATM    3  N3  UNL     1      33.518  20.124  46.205  1.00  0.00    -0.360 N 
ATOM      4  H3  UNL     1      34.012  19.306  46.563  1.00  0.00     0.161 HD
BRANCH   3   5
HETATM    5  C3  UNL     1      33.398  21.293  46.984  1.00  0.00     0.061 A 
HETATM    6  C2  UNL     1      33.118  21.187  48.351  1.00  0.00     0.136 A 
HETATM    7  N2  UNL     1      32.986  22.278  49.122  1.00  0.00    -0.200 N 
HETATM    8  C1  UNL     1      33.120  23.508  48.605  1.00  0.00     0.675 A 
ATOM      9  H2  UNL     1      32.781  22.170  50.116  1.00  0.00     0.183 HD
HETATM   10  N9  UNL     1      33.388  23.634  47.295  1.00  0.00    -0.200 N 
HETATM   11  C13 UNL     1      33.530  22.550  46.475  1.00  0.00     0.136 A 
ATOM     12  H9  UNL     1      33.489  24.569  46.900  1.00  0.00     0.183 HD
BRANCH   8  13
HETATM   13  N1  UNL     1      33.003  24.587  49.301  1.00  0.00    -0.234 N 
ATOM     14  H12 UNL     1      32.888  24.492  50.310  1.00  0.00     0.174 HD
ATOM     15  H11 UNL     1      33.020  25.523  48.894  1.00  0.00     0.174 HD
ENDBRANCH   8  13
ENDBRANCH   3   5
ENDBRANCH   2   3
BRANCH   2  16
HETATM   16  N4  UNL     1      33.722  19.355  44.004  1.00  0.00    -0.058 N 
ATOM     17  H43 UNL     1      34.648  19.178  44.391  1.00  0.00     0.276 HD
ATOM     18  H42 UNL     1      33.406  18.387  43.934  1.00  0.00     0.276 HD
ATOM     19  H41 UNL     1      33.766  19.813  43.094  1.00  0.00     0.276 HD
ENDBRANCH   2  16
ENDBRANCH   1   2
BRANCH   1  20
HETATM   20  C6  UNL     1      30.623  20.606  44.101  1.00  0.00     0.241 C 
BRANCH  20  21
HETATM   21  N5  UNL     1      29.790  21.459  44.865  1.00  0.00    -0.023 N 
ATOM     22  H52 UNL     1      28.829  21.455  44.523  1.00  0.00     0.282 HD
ATOM     23  H51 UNL     1      29.621  21.086  45.799  1.00  0.00     0.282 HD
BRANCH  21  24
HETATM   24  C7  UNL     1      30.335  22.793  44.913  1.00  0.00     0.522 C 
BRANCH  24  25
HETATM   25  O1  UNL     1      30.111  23.359  43.648  1.00  0.00    -0.349 OA
ATOM     26  H1  UNL     1      30.343  24.278  43.720  1.00  0.00     0.213 HD
ENDBRANCH  24  25
BRANCH  24  27
HETATM   27  N6  UNL     1      29.702  23.532  45.952  1.00  0.00    -0.016 N 
ATOM     28  H62 UNL     1      30.017  23.228  46.874  1.00  0.00     0.282 HD
ATOM     29  H61 UNL     1      30.033  24.495  45.983  1.00  0.00     0.282 HD
BRANCH  27  30
HETATM   30  C8  UNL     1      28.285  23.470  45.838  1.00  0.00     0.313 C 
BRANCH  30  31
HETATM   31  C9  UNL     1      27.709  24.775  46.286  1.00  0.00     0.107 A 
HETATM   32  N7  UNL     1      26.662  24.833  47.133  1.00  0.00    -0.354 N 
HETATM   33  C10 UNL     1      26.158  26.016  47.527  1.00  0.00     0.090 A 
ATOM     34  H7  UNL     1      26.247  23.968  47.479  1.00  0.00     0.166 HD
HETATM   35  C11 UNL     1      26.673  27.221  47.097  1.00  0.00     0.034 A 
HETATM   36  C12 UNL     1      27.751  27.147  46.225  1.00  0.00     0.090 A 
HETATM   37  N8  UNL     1      28.223  25.940  45.857  1.00  0.00    -0.354 N 
ATOM     38  H8  UNL     1      29.017  25.909  45.216  1.00  0.00     0.166 HD
ENDBRANCH  30  31
ENDBRANCH  27  30
ENDBRANCH  24  27
ENDBRANCH  21  24
ENDBRANCH  20  21
ENDBRANCH   1  20
TORSDOF 12
ENDMDL
MODEL 3
REMARK VINA RESULT: -7.326532971      3.032      8.282
REMARK  12 active torsions:
REMARK  status: ('A' for Active; 'I' for Inactive)
REMARK    1  A    between atoms: N1_1  and  C1_4 
REMARK    2  A    between atoms: C3_8  and  N3_9 
REMARK    3  A    between atoms: N3_9  and  C4_11 
REMARK    4  A    between atoms: C4_11  and  N4_12 
REMARK    5  A    between atoms: C4_11  and  C5_16 
REMARK    6  A    between atoms: C5_16  and  C6_17 
REMARK    7  A    between atoms: C6_17  and  N5_18 
REMARK    8  A    between atoms: N5_18  and  C7_21 
REMARK    9  A    between atoms: C7_21  and  O1_22 
REMARK   10  A    between atoms: C7_21  and  N6_24 
REMARK   11  A    between atoms: N6_24  and  C8_27 
REMARK   12  A    between atoms: C8_27  and  C9_28 
ROOT
HETATM    1  C5  UNL     1      31.536  19.883  44.677  1.00  0.00     0.081 C 
ENDROOT
BRANCH   1   2
HETATM    2  C4  UNL     1      32.994  20.137  44.803  1.00  0.00     0.283 C 
BRANCH   2   3
HETATM    3  N3  UNL     1      33.428  20.038  46.194  1.00  0.00    -0.360 N 
ATOM      4  H3  UNL     1      33.809  19.167  46.561  1.00  0.00     0.161 HD
BRANCH   3   5
HETATM    5  C3  UNL     1      33.308  21.177  47.017  1.00  0.00     0.061 A 
HETATM    6  C2  UNL     1      33.484  22.451  46.463  1.00  0.00     0.136 A 
HETATM    7  N2  UNL     1      33.387  23.558  47.218  1.00  0.00    -0.200 N 
HETATM    8  C1  UNL     1      33.119  23.477  48.529  1.00  0.00     0.675 A 
ATOM      9  H2  UNL     1      33.520  24.473  46.788  1.00  0.00     0.183 HD
HETATM   10  N9  UNL     1      32.947  22.265  49.082  1.00  0.00    -0.200 N 
HETATM   11  C13 UNL     1      33.037  21.113  48.350  1.00  0.00     0.136 A 
ATOM     12  H9  UNL     1      32.743  22.202  50.079  1.00  0.00     0.183 HD
BRANCH   8  13
HETATM   13  N1  UNL     1      33.016  24.507  49.298  1.00  0.00    -0.234 N 
ATOM     14  H12 UNL     1      33.878  24.945  49.623  1.00  0.00     0.174 HD
ATOM     15  H11 UNL     1      32.123  24.902  49.593  1.00  0.00     0.174 HD
ENDBRANCH   8  13
ENDBRANCH   3   5
ENDBRANCH   2   3
BRANCH   2  16
HETATM   16  N4  UNL     1      33.828  19.350  43.993  1.00  0.00    -0.058 N 
ATOM     17  H43 UNL     1      34.815  19.548  44.151  1.00  0.00     0.276 HD
ATOM     18  H42 UNL     1      33.827  18.370  44.277  1.00  0.00     0.276 HD
ATOM     19  H41 UNL     1      33.564  19.468  43.015  1.00  0.00     0.276 HD
ENDBRANCH   2  16
ENDBRANCH   1   2
BRANCH   1  20
HETATM   20  C6  UNL     1      30.892  20.722  43.638  1.00  0.00     0.241 C 
BRANCH  20  21
HETATM   21  N5  UNL     1      29.588  21.145  43.990  1.00  0.00    -0.023 N 
ATOM     22  H52 UNL     1      28.966  21.168  43.182  1.00  0.00     0.282 HD
ATOM     23  H51 UNL     1      29.097  20.441  44.541  1.00  0.00     0.282 HD
BRANCH  21  24
HETATM   24  C7  UNL     1      29.632  22.418  44.667  1.00  0.00     0.522 C 
BRANCH  24  25
HETATM   25  O1  UNL     1      30.017  23.366  43.706  1.00  0.00    -0.349 OA
ATOM     26  H1  UNL     1      29.633  24.192  43.975  1.00  0.00     0.213 HD
ENDBRANCH  24  25
BRANCH  24  27
HETATM   27  N6  UNL     1      28.354  22.708  45.225  1.00  0.00    -0.016 N 
ATOM     28  H62 UNL     1      27.620  22.676  44.518  1.00  0.00     0.282 HD
ATOM     29  H61 UNL     1      28.027  21.950  45.824  1.00  0.00     0.282 HD
BRANCH  27  30
HETATM   30  C8  UNL     1      28.363  23.952  45.914  1.00  0.00     0.313 C 
BRANCH  30  31
HETATM   31  C9  UNL     1      26.955  24.435  46.052  1.00  0.00     0.107 A 
HETATM   32  N7  UNL     1      26.354  24.527  47.256  1.00  0.00    -0.354 N 
HETATM   33  C10 UNL     1      25.087  24.966  47.362  1.00  0.00     0.090 A 
ATOM     34  H7  UNL     1      26.867  24.261  48.096  1.00  0.00     0.166 HD
HETATM   35  C11 UNL     1      24.339  25.342  46.267  1.00  0.00     0.034 A 
HETATM   36  C12 UNL     1      24.970  25.242  45.034  1.00  0.00     0.090 A 
HETATM   37  N8  UNL     1      26.241  24.797  44.974  1.00  0.00    -0.354 N 
ATOM     38  H8  UNL     1      26.685  24.732  44.059  1.00  0.00     0.166 HD
ENDBRANCH  30  31
ENDBRANCH  27  30
ENDBRANCH  24  27
ENDBRANCH  21  24
ENDBRANCH  20  21
ENDBRANCH   1  20
TORSDOF 12
ENDMDL
MODEL 4
REMARK VINA RESULT: -7.308507077      3.035      8.354
REMARK  12 active torsions:
REMARK  status: ('A' for Active; 'I' for Inactive)
REMARK    1  A    between atoms: N1_1  and  C1_4 
REMARK    2  A    between atoms: C3_8  and  N3_9 
REMARK    3  A    between atoms: N3_9  and  C4_11 
REMARK    4  A    between atoms: C4_11  and  N4_12 
REMARK    5  A    between atoms: C4_11  and  C5_16 
REMARK    6  A    between atoms: C5_16  and  C6_17 
REMARK    7  A    between atoms: C6_17  and  N5_18 
REMARK    8  A    between atoms: N5_18  and  C7_21 
REMARK    9  A    between atoms: C7_21  and  O1_22 
REMARK   10  A    between atoms: C7_21  and  N6_24 
REMARK   11  A    between atoms: N6_24  and  C8_27 
REMARK   12  A    between atoms: C8_27  and  C9_28 
ROOT
HETATM    1  C5  UNL     1      31.567  19.831  44.575  1.00  0.00     0.081 C 
ENDROOT
BRANCH   1   2
HETATM    2  C4  UNL     1      33.010  20.117  44.776  1.00  0.00     0.283 C 
BRANCH   2   3
HETATM    3  N3  UNL     1      33.374  20.035  46.187  1.00  0.00    -0.360 N 
ATOM      4  H3  UNL     1      33.679  19.153  46.597  1.00  0.00     0.161 HD
BRANCH   3   5
HETATM    5  C3  UNL     1      33.293  21.205  46.970  1.00  0.00     0.061 A 
HETATM    6  C2  UNL     1      33.072  21.101  48.348  1.00  0.00     0.136 A 
HETATM    7  N2  UNL     1      32.979  22.194  49.123  1.00  0.00    -0.200 N 
HETATM    8  C1  UNL     1      33.096  23.423  48.599  1.00  0.00     0.675 A 
ATOM      9  H2  UNL     1      32.816  22.088  50.125  1.00  0.00     0.183 HD
HETATM   10  N9  UNL     1      33.308  23.547  47.279  1.00  0.00    -0.200 N 
HETATM   11  C13 UNL     1      33.409  22.461  46.454  1.00  0.00     0.136 A 
ATOM     12  H9  UNL     1      33.397  24.481  46.879  1.00  0.00     0.183 HD
BRANCH   8  13
HETATM   13  N1  UNL     1      33.015  24.503  49.298  1.00  0.00    -0.234 N 
ATOM     14  H12 UNL     1      33.543  24.546  50.170  1.00  0.00     0.174 HD
ATOM     15  H11 UNL     1      32.453  25.310  49.023  1.00  0.00     0.174 HD
ENDBRANCH   8  13
ENDBRANCH   3   5
ENDBRANCH   2   3
BRANCH   2  16
HETATM   16  N4  UNL     1      33.902  19.344  44.015  1.00  0.00    -0.058 N 
ATOM     17  H43 UNL     1      34.182  19.815  43.155  1.00  0.00     0.276 HD
ATOM     18  H42 UNL     1      34.821  19.276  44.451  1.00  0.00     0.276 HD
ATOM     19  H41 UNL     1      33.492  18.428  43.836  1.00  0.00     0.276 HD
ENDBRANCH   2  16
ENDBRANCH   1   2
BRANCH   1  20
HETATM   20  C6  UNL     1      30.912  20.788  43.651  1.00  0.00     0.241 C 
BRANCH  20  21
HETATM   21  N5  UNL     1      29.604  21.149  44.054  1.00  0.00    -0.023 N 
ATOM     22  H52 UNL     1      28.939  21.083  43.283  1.00  0.00     0.282 HD
ATOM     23  H51 UNL     1      29.191  20.450  44.672  1.00  0.00     0.282 HD
BRANCH  21  24
HETATM   24  C7  UNL     1      29.600  22.460  44.654  1.00  0.00     0.522 C 
BRANCH  24  25
HETATM   25  O1  UNL     1      30.083  23.345  43.677  1.00  0.00    -0.349 OA
ATOM     26  H1  UNL     1      30.680  22.845  43.134  1.00  0.00     0.213 HD
ENDBRANCH  24  25
BRANCH  24  27
HETATM   27  N6  UNL     1      28.280  22.791  45.073  1.00  0.00    -0.016 N 
ATOM     28  H62 UNL     1      27.671  22.982  44.277  1.00  0.00     0.282 HD
ATOM     29  H61 UNL     1      27.792  21.979  45.451  1.00  0.00     0.282 HD
BRANCH  27  30
HETATM   30  C8  UNL     1      28.288  23.872  45.996  1.00  0.00     0.313 C 
BRANCH  30  31
HETATM   31  C9  UNL     1      26.900  24.415  46.114  1.00  0.00     0.107 A 
HETATM   32  N7  UNL     1      26.180  24.758  45.026  1.00  0.00    -0.354 N 
HETATM   33  C10 UNL     1      24.931  25.243  45.150  1.00  0.00     0.090 A 
ATOM     34  H7  UNL     1      26.588  24.648  44.098  1.00  0.00     0.166 HD
HETATM   35  C11 UNL     1      24.322  25.415  46.375  1.00  0.00     0.034 A 
HETATM   36  C12 UNL     1      25.074  25.058  47.486  1.00  0.00     0.090 A 
HETATM   37  N8  UNL     1      26.321  24.576  47.315  1.00  0.00    -0.354 N 
ATOM     38  H8  UNL     1      26.856  24.320  48.145  1.00  0.00     0.166 HD
ENDBRANCH  30  31
ENDBRANCH  27  30
ENDBRANCH  24  27
ENDBRANCH  21  24
ENDBRANCH  20  21
ENDBRANCH   1  20
TORSDOF 12
ENDMDL
MODEL 5
REMARK VINA RESULT: -7.270511495      1.484      1.935
REMARK  12 active torsions:
REMARK  status: ('A' for Active; 'I' for Inactive)
REMARK    1  A    between atoms: N1_1  and  C1_4 
REMARK    2  A    between atoms: C3_8  and  N3_9 
REMARK    3  A    between atoms: N3_9  and  C4_11 
REMARK    4  A    between atoms: C4_11  and  N4_12 
REMARK    5  A    between atoms: C4_11  and  C5_16 
REMARK    6  A    between atoms: C5_16  and  C6_17 
REMARK    7  A    between atoms: C6_17  and  N5_18 
REMARK    8  A    between atoms: N5_18  and  C7_21 
REMARK    9  A    between atoms: C7_21  and  O1_22 
REMARK   10  A    between atoms: C7_21  and  N6_24 
REMARK   11  A    between atoms: N6_24  and  C8_27 
REMARK   12  A    between atoms: C8_27  and  C9_28 
ROOT
HETATM    1  C5  UNL     1      25.953  26.597  47.815  1.00  0.00     0.081 C 
ENDROOT
BRANCH   1   2
HETATM    2  C4  UNL     1      24.494  26.701  47.557  1.00  0.00     0.283 C 
BRANCH   2   3
HETATM    3  N3  UNL     1      24.226  27.480  46.352  1.00  0.00    -0.360 N 
ATOM      4  H3  UNL     1      23.673  28.336  46.395  1.00  0.00     0.161 HD
BRANCH   3   5
HETATM    5  C3  UNL     1      24.749  27.020  45.126  1.00  0.00     0.061 A 
HETATM    6  C2  UNL     1      25.836  27.684  44.546  1.00  0.00     0.136 A 
HETATM    7  N2  UNL     1      26.354  27.280  43.374  1.00  0.00    -0.200 N 
HETATM    8  C1  UNL     1      25.845  26.226  42.721  1.00  0.00     0.675 A 
ATOM      9  H2  UNL     1      27.147  27.784  42.975  1.00  0.00     0.183 HD
HETATM   10  N9  UNL     1      24.801  25.574  43.259  1.00  0.00    -0.200 N 
HETATM   11  C13 UNL     1      24.243  25.951  44.449  1.00  0.00     0.136 A 
ATOM     12  H9  UNL     1      24.412  24.772  42.764  1.00  0.00     0.183 HD
BRANCH   8  13
HETATM   13  N1  UNL     1      26.304  25.798  41.595  1.00  0.00    -0.234 N 
ATOM     14  H12 UNL     1      25.633  25.602  40.852  1.00  0.00     0.174 HD
ATOM     15  H11 UNL     1      27.297  25.650  41.413  1.00  0.00     0.174 HD
ENDBRANCH   8  13
ENDBRANCH   3   5
ENDBRANCH   2   3
BRANCH   2  16
HETATM   16  N4  UNL     1      23.792  25.487  47.498  1.00  0.00    -0.058 N 
ATOM     17  H43 UNL     1      24.204  24.775  48.100  1.00  0.00     0.276 HD
ATOM     18  H42 UNL     1      22.878  25.549  47.948  1.00  0.00     0.276 HD
ATOM     19  H41 UNL     1      23.724  25.179  46.529  1.00  0.00     0.276 HD
ENDBRANCH   2  16
ENDBRANCH   1   2
BRANCH   1  20
HETATM   20  C6  UNL     1      26.442  25.198  47.801  1.00  0.00     0.241 C 
BRANCH  20  21
HETATM   21  N5  UNL     1      27.735  25.062  47.239  1.00  0.00    -0.023 N 
ATOM     22  H52 UNL     1      28.287  25.913  47.351  1.00  0.00     0.282 HD
ATOM     23  H51 UNL     1      28.320  24.428  47.784  1.00  0.00     0.282 HD
BRANCH  21  24
HETATM   24  C7  UNL     1      27.649  24.657  45.858  1.00  0.00     0.522 C 
BRANCH  24  25
HETATM   25  O1  UNL     1      28.418  25.576  45.126  1.00  0.00    -0.349 OA
ATOM     26  H1  UNL     1      28.596  26.303  45.711  1.00  0.00     0.213 HD
ENDBRANCH  24  25
BRANCH  24  27
HETATM   27  N6  UNL     1      28.130  23.324  45.719  1.00  0.00    -0.016 N 
ATOM     28  H62 UNL     1      27.930  22.766  46.549  1.00  0.00     0.282 HD
ATOM     29  H61 UNL     1      27.582  22.797  45.041  1.00  0.00     0.282 HD
BRANCH  27  30
HETATM   30  C8  UNL     1      29.516  23.307  45.398  1.00  0.00     0.313 C 
BRANCH  30  31
HETATM   31  C9  UNL     1      30.145  22.117  46.049  1.00  0.00     0.107 A 
HETATM   32  N7  UNL     1      29.705  20.865  45.811  1.00  0.00    -0.354 N 
HETATM   33  C10 UNL     1      30.285  19.806  46.403  1.00  0.00     0.090 A 
ATOM     34  H7  UNL     1      28.923  20.720  45.173  1.00  0.00     0.166 HD
HETATM   35  C11 UNL     1      31.346  19.933  47.274  1.00  0.00     0.034 A 
HETATM   36  C12 UNL     1      31.789  21.228  47.510  1.00  0.00     0.090 A 
HETATM   37  N8  UNL     1      31.179  22.260  46.895  1.00  0.00    -0.354 N 
ATOM     38  H8  UNL     1      31.521  23.202  47.082  1.00  0.00     0.166 HD
ENDBRANCH  30  31
ENDBRANCH  27  30
ENDBRANCH  24  27
ENDBRANCH  21  24
ENDBRANCH  20  21
ENDBRANCH   1  20
TORSDOF 12
ENDMDL
