MODEL 1
REMARK VINA RESULT: -7.264063931      0.000      0.000
REMARK  13 active torsions:
REMARK  status: ('A' for Active; 'I' for Inactive)
REMARK    1  A    between atoms: N1_1  and  C1_4 
REMARK    2  A    between atoms: C2_7  and  N3_8 
REMARK    3  A    between atoms: N3_8  and  C3_10 
REMARK    4  A    between atoms: C3_10  and  C4_11 
REMARK    5  A    between atoms: C4_11  and  C5_12 
REMARK    6  A    between atoms: C5_12  and  N4_13 
REMARK    7  A    between atoms: N4_13  and  C6_15 
REMARK    8  A    between atoms: C6_15  and  C7_16 
REMARK    9  A    between atoms: C7_16  and  C8_17 
REMARK   10  A    between atoms: C8_17  and  N5_18 
REMARK   11  A    between atoms: N6_22  and  N7_23 
REMARK   12  A    between atoms: C10_29  and  N9_30 
REMARK   13  A    between atoms: N10_32  and  N11_34 
ROOT
HETATM    1  C1  UNL     1      28.755  18.797  42.694  1.00  0.00     0.146 A 
HETATM    2  N2  UNL     1      29.308  18.794  43.927  1.00  0.00    -0.173 N 
ATOM      3  H2  UNL     1      28.729  18.490  44.709  1.00  0.00     0.186 HD
HETATM    4  C2  UNL     1      30.565  19.164  44.187  1.00  0.00     0.702 A 
HETATM    5  N6  UNL     1      31.350  19.576  43.149  1.00  0.00    -0.073 N 
HETATM    6  C9  UNL     1      30.841  19.596  41.905  1.00  0.00     0.191 A 
HETATM    7  N8  UNL     1      31.356  19.946  40.704  1.00  0.00    -0.170 N 
ATOM      8  H8  UNL     1      32.308  20.278  40.555  1.00  0.00     0.186 HD
HETATM    9  C10 UNL     1      30.428  19.791  39.725  1.00  0.00     0.700 A 
HETATM   10  N12 UNL     1      29.331  19.343  40.316  1.00  0.00    -0.183 N 
ATOM     11  H12 UNL     1      28.456  19.128  39.838  1.00  0.00     0.184 HD
HETATM   12  C11 UNL     1      29.540  19.211  41.645  1.00  0.00     0.140 A 
ENDROOT
BRANCH   4  13
HETATM   13  N3  UNL     1      31.111  19.151  45.373  1.00  0.00    -0.224 N 
ATOM     14  H3  UNL     1      32.050  18.771  45.498  1.00  0.00     0.177 HD
BRANCH  13  15
HETATM   15  C3  UNL     1      30.391  19.671  46.501  1.00  0.00     0.139 C 
BRANCH  15  16
HETATM   16  C4  UNL     1      31.203  20.858  47.052  1.00  0.00     0.039 C 
BRANCH  16  17
HETATM   17  C5  UNL     1      32.358  20.276  47.876  1.00  0.00     0.115 C 
BRANCH  17  18
HETATM   18  N4  UNL     1      32.727  21.202  48.870  1.00  0.00    -0.421 N 
ATOM     19  H4  UNL     1      32.750  20.951  49.858  1.00  0.00     0.153 HD
BRANCH  18  20
HETATM   20  C6  UNL     1      33.067  22.516  48.412  1.00  0.00     0.115 C 
BRANCH  20  21
HETATM   21  C7  UNL     1      34.459  22.558  47.812  1.00  0.00     0.046 C 
BRANCH  21  22
HETATM   22  C8  UNL     1      34.485  22.840  46.345  1.00  0.00     0.231 C 
BRANCH  22  23
HETATM   23  N5  UNL     1      35.208  24.113  46.182  1.00  0.00    -0.079 N 
ATOM     24  H53 UNL     1      35.772  24.366  46.993  1.00  0.00     0.274 HD
ATOM     25  H52 UNL     1      35.973  24.060  45.509  1.00  0.00     0.274 HD
ATOM     26  H51 UNL     1      34.506  24.813  45.942  1.00  0.00     0.274 HD
ENDBRANCH  22  23
ENDBRANCH  21  22
ENDBRANCH  20  21
ENDBRANCH  18  20
ENDBRANCH  17  18
ENDBRANCH  16  17
ENDBRANCH  15  16
ENDBRANCH  13  15
ENDBRANCH   4  13
BRANCH   5  27
HETATM   27  N7  UNL     1      32.683  19.987  43.342  1.00  0.00    -0.322 N 
ATOM     28  H72 UNL     1      33.329  19.352  43.811  1.00  0.00     0.178 HD
ATOM     29  H71 UNL     1      33.017  20.897  43.025  1.00  0.00     0.178 HD
ENDBRANCH   5  27
BRANCH   1  30
HETATM   30  N1  UNL     1      27.550  18.427  42.542  1.00  0.00    -0.383 N 
ATOM     31  H12 UNL     1      26.870  18.974  42.015  1.00  0.00     0.157 HD
ATOM     32  H11 UNL     1      27.232  17.552  42.959  1.00  0.00     0.157 HD
ENDBRANCH   1  30
BRANCH   9  33
HETATM   33  N9  UNL     1      30.667  20.082  38.342  1.00  0.00    -0.118 N 
HETATM   34  N10 UNL     1      30.677  19.256  37.418  1.00  0.00    -0.235 N 
ATOM     35  H10 UNL     1      30.860  19.615  36.482  1.00  0.00     0.208 HD
ATOM     36  H9  UNL     1      30.846  21.055  38.096  1.00  0.00     0.207 HD
BRANCH  34  37
HETATM   37  N11 UNL     1      30.465  17.905  37.534  1.00  0.00    -0.330 N 
ATOM     38 2H11 UNL     1      29.569  17.566  37.184  1.00  0.00     0.178 HD
ATOM     39 1H11 UNL     1      31.112  17.223  37.931  1.00  0.00     0.178 HD
ENDBRANCH  34  37
ENDBRANCH   9  33
TORSDOF 13
ENDMDL
MODEL 2
REMARK VINA RESULT: -7.140875740      2.820      6.756
REMARK  13 active torsions:
REMARK  status: ('A' for Active; 'I' for Inactive)
REMARK    1  A    between atoms: N1_1  and  C1_4 
REMARK    2  A    between atoms: C2_7  and  N3_8 
REMARK    3  A    between atoms: N3_8  and  C3_10 
REMARK    4  A    between atoms: C3_10  and  C4_11 
REMARK    5  A    between atoms: C4_11  and  C5_12 
REMARK    6  A    between atoms: C5_12  and  N4_13 
REMARK    7  A    between atoms: N4_13  and  C6_15 
REMARK    8  A    between atoms: C6_15  and  C7_16 
REMARK    9  A    between atoms: C7_16  and  C8_17 
REMARK   10  A    between atoms: C8_17  and  N5_18 
REMARK   11  A    between atoms: N6_22  and  N7_23 
REMARK   12  A    between atoms: C10_29  and  N9_30 
REMARK   13  A    between atoms: N10_32  and  N11_34 
ROOT
HETATM    1  C1  UNL     1      31.883  20.248  47.632  1.00  0.00     0.146 A 
HETATM    2  N2  UNL     1      31.402  19.314  46.783  1.00  0.00    -0.173 N 
ATOM      3  H2  UNL     1      30.671  18.690  47.125  1.00  0.00     0.186 HD
HETATM    4  C2  UNL     1      31.821  19.154  45.525  1.00  0.00     0.702 A 
HETATM    5  N6  UNL     1      32.801  19.980  45.056  1.00  0.00    -0.073 N 
HETATM    6  C9  UNL     1      33.310  20.925  45.865  1.00  0.00     0.191 A 
HETATM    7  N8  UNL     1      34.265  21.868  45.695  1.00  0.00    -0.170 N 
ATOM      8  H8  UNL     1      34.790  22.013  44.833  1.00  0.00     0.186 HD
HETATM    9  C10 UNL     1      34.426  22.594  46.831  1.00  0.00     0.700 A 
HETATM   10  N12 UNL     1      33.568  22.103  47.713  1.00  0.00    -0.183 N 
ATOM     11  H12 UNL     1      33.452  22.444  48.668  1.00  0.00     0.184 HD
HETATM   12  C11 UNL     1      32.870  21.083  47.165  1.00  0.00     0.140 A 
ENDROOT
BRANCH   4  13
HETATM   13  N3  UNL     1      31.351  18.262  44.695  1.00  0.00    -0.224 N 
ATOM     14  H3  UNL     1      31.918  17.452  44.442  1.00  0.00     0.177 HD
BRANCH  13  15
HETATM   15  C3  UNL     1      30.038  18.420  44.138  1.00  0.00     0.139 C 
BRANCH  15  16
HETATM   16  C4  UNL     1      30.210  18.643  42.623  1.00  0.00     0.039 C 
BRANCH  16  17
HETATM   17  C5  UNL     1      29.912  20.123  42.345  1.00  0.00     0.115 C 
BRANCH  17  18
HETATM   18  N4  UNL     1      29.302  20.690  43.480  1.00  0.00    -0.421 N 
ATOM     19  H4  UNL     1      28.530  20.231  43.963  1.00  0.00     0.153 HD
BRANCH  18  20
HETATM   20  C6  UNL     1      29.829  21.949  43.916  1.00  0.00     0.115 C 
BRANCH  20  21
HETATM   21  C7  UNL     1      29.543  22.198  45.384  1.00  0.00     0.046 C 
BRANCH  21  22
HETATM   22  C8  UNL     1      30.319  23.330  45.975  1.00  0.00     0.231 C 
BRANCH  22  23
HETATM   23  N5  UNL     1      29.326  24.299  46.469  1.00  0.00    -0.079 N 
ATOM     24  H53 UNL     1      29.046  24.134  47.436  1.00  0.00     0.274 HD
ATOM     25  H52 UNL     1      29.708  25.235  46.607  1.00  0.00     0.274 HD
ATOM     26  H51 UNL     1      28.548  24.272  45.811  1.00  0.00     0.274 HD
ENDBRANCH  22  23
ENDBRANCH  21  22
ENDBRANCH  20  21
ENDBRANCH  18  20
ENDBRANCH  17  18
ENDBRANCH  16  17
ENDBRANCH  15  16
ENDBRANCH  13  15
ENDBRANCH   4  13
BRANCH   5  27
HETATM   27  N7  UNL     1      33.300  19.871  43.744  1.00  0.00    -0.322 N 
ATOM     28  H72 UNL     1      34.069  19.226  43.564  1.00  0.00     0.178 HD
ATOM     29  H71 UNL     1      32.913  20.415  42.974  1.00  0.00     0.178 HD
ENDBRANCH   5  27
BRANCH   1  30
HETATM   30  N1  UNL     1      31.422  20.327  48.811  1.00  0.00    -0.383 N 
ATOM     31  H12 UNL     1      31.994  20.149  49.637  1.00  0.00     0.157 HD
ATOM     32  H11 UNL     1      30.444  20.575  48.959  1.00  0.00     0.157 HD
ENDBRANCH   1  30
BRANCH   9  33
HETATM   33  N9  UNL     1      35.365  23.667  46.969  1.00  0.00    -0.118 N 
HETATM   34  N10 UNL     1      36.397  23.644  47.656  1.00  0.00    -0.235 N 
ATOM     35  H10 UNL     1      36.971  24.487  47.652  1.00  0.00     0.208 HD
ATOM     36  H9  UNL     1      35.168  24.526  46.457  1.00  0.00     0.207 HD
BRANCH  34  37
HETATM   37  N11 UNL     1      36.842  22.594  48.420  1.00  0.00    -0.330 N 
ATOM     38 2H11 UNL     1      36.191  22.256  49.129  1.00  0.00     0.178 HD
ATOM     39 1H11 UNL     1      37.747  22.131  48.342  1.00  0.00     0.178 HD
ENDBRANCH  34  37
ENDBRANCH   9  33
TORSDOF 13
ENDMDL
MODEL 3
REMARK VINA RESULT: -7.096703110      2.977      6.791
REMARK  13 active torsions:
REMARK  status: ('A' for Active; 'I' for Inactive)
REMARK    1  A    between atoms: N1_1  and  C1_4 
REMARK    2  A    between atoms: C2_7  and  N3_8 
REMARK    3  A    between atoms: N3_8  and  C3_10 
REMARK    4  A    between atoms: C3_10  and  C4_11 
REMARK    5  A    between atoms: C4_11  and  C5_12 
REMARK    6  A    between atoms: C5_12  and  N4_13 
REMARK    7  A    between atoms: N4_13  and  C6_15 
REMARK    8  A    between atoms: C6_15  and  C7_16 
REMARK    9  A    between atoms: C7_16  and  C8_17 
REMARK   10  A    between atoms: C8_17  and  N5_18 
REMARK   11  A    between atoms: N6_22  and  N7_23 
REMARK   12  A    between atoms: C10_29  and  N9_30 
REMARK   13  A    between atoms: N10_32  and  N11_34 
ROOT
HETATM    1  C1  UNL     1      30.446  19.125  46.988  1.00  0.00     0.146 A 
HETATM    2  N2  UNL     1      30.584  18.618  45.744  1.00  0.00    -0.173 N 
ATOM      3  H2  UNL     1      29.851  18.000  45.397  1.00  0.00     0.186 HD
HETATM    4  C2  UNL     1      31.619  18.874  44.939  1.00  0.00     0.702 A 
HETATM    5  N6  UNL     1      32.608  19.697  45.393  1.00  0.00    -0.073 N 
HETATM    6  C9  UNL     1      32.513  20.225  46.625  1.00  0.00     0.191 A 
HETATM    7  N8  UNL     1      33.311  21.052  47.337  1.00  0.00    -0.170 N 
ATOM      8  H8  UNL     1      34.194  21.437  47.003  1.00  0.00     0.186 HD
HETATM    9  C10 UNL     1      32.772  21.299  48.559  1.00  0.00     0.700 A 
HETATM   10  N12 UNL     1      31.634  20.624  48.609  1.00  0.00    -0.183 N 
ATOM     11  H12 UNL     1      30.996  20.612  49.405  1.00  0.00     0.184 HD
HETATM   12  C11 UNL     1      31.439  19.955  47.450  1.00  0.00     0.140 A 
ENDROOT
BRANCH   4  13
HETATM   13  N3  UNL     1      31.753  18.398  43.730  1.00  0.00    -0.224 N 
ATOM     14  H3  UNL     1      32.615  17.923  43.461  1.00  0.00     0.177 HD
BRANCH  13  15
HETATM   15  C3  UNL     1      30.687  18.543  42.779  1.00  0.00     0.139 C 
BRANCH  15  16
HETATM   16  C4  UNL     1      30.773  19.973  42.213  1.00  0.00     0.039 C 
BRANCH  16  17
HETATM   17  C5  UNL     1      29.346  20.537  42.186  1.00  0.00     0.115 C 
BRANCH  17  18
HETATM   18  N4  UNL     1      28.995  20.962  43.480  1.00  0.00    -0.421 N 
ATOM     19  H4  UNL     1      28.208  20.556  43.986  1.00  0.00     0.153 HD
BRANCH  18  20
HETATM   20  C6  UNL     1      29.807  21.998  44.046  1.00  0.00     0.115 C 
BRANCH  20  21
HETATM   21  C7  UNL     1      29.371  22.345  45.457  1.00  0.00     0.046 C 
BRANCH  21  22
HETATM   22  C8  UNL     1      30.263  23.324  46.149  1.00  0.00     0.231 C 
BRANCH  22  23
HETATM   23  N5  UNL     1      29.388  24.400  46.647  1.00  0.00    -0.079 N 
ATOM     24  H53 UNL     1      29.329  25.198  46.016  1.00  0.00     0.274 HD
ATOM     25  H52 UNL     1      28.398  24.155  46.633  1.00  0.00     0.274 HD
ATOM     26  H51 UNL     1      29.733  24.642  47.576  1.00  0.00     0.274 HD
ENDBRANCH  22  23
ENDBRANCH  21  22
ENDBRANCH  20  21
ENDBRANCH  18  20
ENDBRANCH  17  18
ENDBRANCH  16  17
ENDBRANCH  15  16
ENDBRANCH  13  15
ENDBRANCH   4  13
BRANCH   5  27
HETATM   27  N7  UNL     1      33.734  20.010  44.606  1.00  0.00    -0.322 N 
ATOM     28  H72 UNL     1      34.597  19.489  44.756  1.00  0.00     0.178 HD
ATOM     29  H71 UNL     1      33.706  20.739  43.894  1.00  0.00     0.178 HD
ENDBRANCH   5  27
BRANCH   1  30
HETATM   30  N1  UNL     1      29.426  18.827  47.682  1.00  0.00    -0.383 N 
ATOM     31  H12 UNL     1      28.521  18.612  47.263  1.00  0.00     0.157 HD
ATOM     32  H11 UNL     1      29.495  18.797  48.699  1.00  0.00     0.157 HD
ENDBRANCH   1  30
BRANCH   9  33
HETATM   33  N9  UNL     1      33.382  22.138  49.548  1.00  0.00    -0.118 N 
HETATM   34  N10 UNL     1      33.332  23.376  49.581  1.00  0.00    -0.235 N 
ATOM     35  H10 UNL     1      33.815  23.836  50.352  1.00  0.00     0.208 HD
ATOM     36  H9  UNL     1      33.904  21.675  50.292  1.00  0.00     0.207 HD
BRANCH  34  37
HETATM   37  N11 UNL     1      32.690  24.187  48.679  1.00  0.00    -0.330 N 
ATOM     38 2H11 UNL     1      32.666  23.847  47.717  1.00  0.00     0.178 HD
ATOM     39 1H11 UNL     1      32.244  25.081  48.882  1.00  0.00     0.178 HD
ENDBRANCH  34  37
ENDBRANCH   9  33
TORSDOF 13
ENDMDL
MODEL 4
REMARK VINA RESULT: -6.983804195      1.679      3.400
REMARK  13 active torsions:
REMARK  status: ('A' for Active; 'I' for Inactive)
REMARK    1  A    between atoms: N1_1  and  C1_4 
REMARK    2  A    between atoms: C2_7  and  N3_8 
REMARK    3  A    between atoms: N3_8  and  C3_10 
REMARK    4  A    between atoms: C3_10  and  C4_11 
REMARK    5  A    between atoms: C4_11  and  C5_12 
REMARK    6  A    between atoms: C5_12  and  N4_13 
REMARK    7  A    between atoms: N4_13  and  C6_15 
REMARK    8  A    between atoms: C6_15  and  C7_16 
REMARK    9  A    between atoms: C7_16  and  C8_17 
REMARK   10  A    between atoms: C8_17  and  N5_18 
REMARK   11  A    between atoms: N6_22  and  N7_23 
REMARK   12  A    between atoms: C10_29  and  N9_30 
REMARK   13  A    between atoms: N10_32  and  N11_34 
ROOT
HETATM    1  C1  UNL     1      30.760  21.739  44.085  1.00  0.00     0.146 A 
HETATM    2  N2  UNL     1      31.874  21.802  44.846  1.00  0.00    -0.173 N 
ATOM      3  H2  UNL     1      31.926  22.532  45.556  1.00  0.00     0.186 HD
HETATM    4  C2  UNL     1      32.911  20.968  44.731  1.00  0.00     0.702 A 
HETATM    5  N6  UNL     1      32.855  19.987  43.784  1.00  0.00    -0.073 N 
HETATM    6  C9  UNL     1      31.767  19.886  43.002  1.00  0.00     0.191 A 
HETATM    7  N8  UNL     1      31.425  19.044  42.001  1.00  0.00    -0.170 N 
ATOM      8  H8  UNL     1      32.009  18.280  41.661  1.00  0.00     0.186 HD
HETATM    9  C10 UNL     1      30.198  19.357  41.512  1.00  0.00     0.700 A 
HETATM   10  N12 UNL     1      29.771  20.398  42.211  1.00  0.00    -0.183 N 
ATOM     11  H12 UNL     1      28.873  20.863  42.077  1.00  0.00     0.184 HD
HETATM   12  C11 UNL     1      30.698  20.753  43.129  1.00  0.00     0.140 A 
ENDROOT
BRANCH   4  13
HETATM   13  N3  UNL     1      33.985  21.014  45.472  1.00  0.00    -0.224 N 
ATOM     14  H3  UNL     1      34.478  20.153  45.711  1.00  0.00     0.177 HD
BRANCH  13  15
HETATM   15  C3  UNL     1      34.473  22.277  45.952  1.00  0.00     0.139 C 
BRANCH  15  16
HETATM   16  C4  UNL     1      34.614  22.159  47.481  1.00  0.00     0.039 C 
BRANCH  16  17
HETATM   17  C5  UNL     1      33.294  22.640  48.097  1.00  0.00     0.115 C 
BRANCH  17  18
HETATM   18  N4  UNL     1      32.841  21.679  49.021  1.00  0.00    -0.421 N 
ATOM     19  H4  UNL     1      32.754  21.887  50.016  1.00  0.00     0.153 HD
BRANCH  18  20
HETATM   20  C6  UNL     1      32.508  20.394  48.483  1.00  0.00     0.115 C 
BRANCH  20  21
HETATM   21  C7  UNL     1      31.086  20.356  47.959  1.00  0.00     0.046 C 
BRANCH  21  22
HETATM   22  C8  UNL     1      30.803  19.213  47.039  1.00  0.00     0.231 C 
BRANCH  22  23
HETATM   23  N5  UNL     1      29.433  19.415  46.537  1.00  0.00    -0.079 N 
ATOM     24  H53 UNL     1      28.713  19.134  47.201  1.00  0.00     0.274 HD
ATOM     25  H52 UNL     1      29.167  20.398  46.471  1.00  0.00     0.274 HD
ATOM     26  H51 UNL     1      29.379  18.921  45.646  1.00  0.00     0.274 HD
ENDBRANCH  22  23
ENDBRANCH  21  22
ENDBRANCH  20  21
ENDBRANCH  18  20
ENDBRANCH  17  18
ENDBRANCH  16  17
ENDBRANCH  15  16
ENDBRANCH  13  15
ENDBRANCH   4  13
BRANCH   5  27
HETATM   27  N7  UNL     1      33.911  19.074  43.596  1.00  0.00    -0.322 N 
ATOM     28  H72 UNL     1      33.976  18.267  44.215  1.00  0.00     0.178 HD
ATOM     29  H71 UNL     1      34.604  19.198  42.859  1.00  0.00     0.178 HD
ENDBRANCH   5  27
BRANCH   1  30
HETATM   30  N1  UNL     1      29.823  22.574  44.267  1.00  0.00    -0.383 N 
ATOM     31  H12 UNL     1      29.084  22.429  44.955  1.00  0.00     0.157 HD
ATOM     32  H11 UNL     1      29.790  23.429  43.711  1.00  0.00     0.157 HD
ENDBRANCH   1  30
BRANCH   9  33
HETATM   33  N9  UNL     1      29.557  18.650  40.443  1.00  0.00    -0.118 N 
HETATM   34  N10 UNL     1      29.768  18.817  39.233  1.00  0.00    -0.235 N 
ATOM     35  H10 UNL     1      29.235  18.234  38.588  1.00  0.00     0.208 HD
ATOM     36  H9  UNL     1      28.866  17.945  40.700  1.00  0.00     0.207 HD
BRANCH  34  37
HETATM   37  N11 UNL     1      30.649  19.711  38.678  1.00  0.00    -0.330 N 
ATOM     38 2H11 UNL     1      31.446  19.302  38.190  1.00  0.00     0.178 HD
ATOM     39 1H11 UNL     1      30.579  20.729  38.711  1.00  0.00     0.178 HD
ENDBRANCH  34  37
ENDBRANCH   9  33
TORSDOF 13
ENDMDL
MODEL 5
REMARK VINA RESULT: -6.977068902      1.672      7.769
REMARK  13 active torsions:
REMARK  status: ('A' for Active; 'I' for Inactive)
REMARK    1  A    between atoms: N1_1  and  C1_4 
REMARK    2  A    between atoms: C2_7  and  N3_8 
REMARK    3  A    between atoms: N3_8  and  C3_10 
REMARK    4  A    between atoms: C3_10  and  C4_11 
REMARK    5  A    between atoms: C4_11  and  C5_12 
REMARK    6  A    between atoms: C5_12  and  N4_13 
REMARK    7  A    between atoms: N4_13  and  C6_15 
REMARK    8  A    between atoms: C6_15  and  C7_16 
REMARK    9  A    between atoms: C7_16  and  C8_17 
REMARK   10  A    between atoms: C8_17  and  N5_18 
REMARK   11  A    between atoms: N6_22  and  N7_23 
REMARK   12  A    between atoms: C10_29  and  N9_30 
REMARK   13  A    between atoms: N10_32  and  N11_34 
ROOT
HETATM    1  C1  UNL     1      31.436  19.947  47.578  1.00  0.00     0.146 A 
HETATM    2  N2  UNL     1      30.869  19.200  46.605  1.00  0.00    -0.173 N 
ATOM      3  H2  UNL     1      29.998  18.717  46.822  1.00  0.00     0.186 HD
HETATM    4  C2  UNL     1      31.377  19.054  45.378  1.00  0.00     0.702 A 
HETATM    5  N6  UNL     1      32.544  19.693  45.077  1.00  0.00    -0.073 N 
HETATM    6  C9  UNL     1      33.144  20.447  46.013  1.00  0.00     0.191 A 
HETATM    7  N8  UNL     1      34.279  21.183  46.016  1.00  0.00    -0.170 N 
ATOM      8  H8  UNL     1      34.909  21.282  45.221  1.00  0.00     0.186 HD
HETATM    9  C10 UNL     1      34.462  21.770  47.227  1.00  0.00     0.700 A 
HETATM   10  N12 UNL     1      33.438  21.402  47.981  1.00  0.00    -0.183 N 
ATOM     11  H12 UNL     1      33.293  21.686  48.950  1.00  0.00     0.184 HD
HETATM   12  C11 UNL     1      32.612  20.593  47.279  1.00  0.00     0.140 A 
ENDROOT
BRANCH   4  13
HETATM   13  N3  UNL     1      30.828  18.344  44.429  1.00  0.00    -0.224 N 
ATOM     14  H3  UNL     1      31.241  17.453  44.154  1.00  0.00     0.177 HD
BRANCH  13  15
HETATM   15  C3  UNL     1      29.642  18.818  43.772  1.00  0.00     0.139 C 
BRANCH  15  16
HETATM   16  C4  UNL     1      29.787  18.483  42.275  1.00  0.00     0.039 C 
BRANCH  16  17
HETATM   17  C5  UNL     1      29.973  19.811  41.528  1.00  0.00     0.115 C 
BRANCH  17  18
HETATM   18  N4  UNL     1      30.914  19.629  40.497  1.00  0.00    -0.421 N 
ATOM     19  H4  UNL     1      31.865  19.313  40.684  1.00  0.00     0.153 HD
BRANCH  18  20
HETATM   20  C6  UNL     1      30.457  19.915  39.170  1.00  0.00     0.115 C 
BRANCH  20  21
HETATM   21  C7  UNL     1      28.943  19.925  39.087  1.00  0.00     0.046 C 
BRANCH  21  22
HETATM   22  C8  UNL     1      28.361  18.747  38.375  1.00  0.00     0.231 C 
BRANCH  22  23
HETATM   23  N5  UNL     1      27.590  17.995  39.380  1.00  0.00    -0.079 N 
ATOM     24  H53 UNL     1      28.175  17.463  40.024  1.00  0.00     0.274 HD
ATOM     25  H52 UNL     1      27.146  18.591  40.078  1.00  0.00     0.274 HD
ATOM     26  H51 UNL     1      26.930  17.417  38.861  1.00  0.00     0.274 HD
ENDBRANCH  22  23
ENDBRANCH  21  22
ENDBRANCH  20  21
ENDBRANCH  18  20
ENDBRANCH  17  18
ENDBRANCH  16  17
ENDBRANCH  15  16
ENDBRANCH  13  15
ENDBRANCH   4  13
BRANCH   5  27
HETATM   27  N7  UNL     1      33.145  19.584  43.808  1.00  0.00    -0.322 N 
ATOM     28  H72 UNL     1      33.708  18.759  43.601  1.00  0.00     0.178 HD
ATOM     29  H71 UNL     1      33.030  20.303  43.094  1.00  0.00     0.178 HD
ENDBRANCH   5  27
BRANCH   1  30
HETATM   30  N1  UNL     1      30.880  20.029  48.715  1.00  0.00    -0.383 N 
ATOM     31  H12 UNL     1      30.830  19.241  49.361  1.00  0.00     0.157 HD
ATOM     32  H11 UNL     1      30.460  20.910  49.013  1.00  0.00     0.157 HD
ENDBRANCH   1  30
BRANCH   9  33
HETATM   33  N9  UNL     1      35.577  22.612  47.548  1.00  0.00    -0.118 N 
HETATM   34  N10 UNL     1      35.810  23.726  47.057  1.00  0.00    -0.235 N 
ATOM     35  H10 UNL     1      36.644  24.209  47.389  1.00  0.00     0.208 HD
ATOM     36  H9  UNL     1      36.238  22.263  48.241  1.00  0.00     0.207 HD
BRANCH  34  37
HETATM   37  N11 UNL     1      35.053  24.372  46.112  1.00  0.00    -0.330 N 
ATOM     38 2H11 UNL     1      35.089  23.978  45.172  1.00  0.00     0.178 HD
ATOM     39 1H11 UNL     1      34.470  25.195  46.264  1.00  0.00     0.178 HD
ENDBRANCH  34  37
ENDBRANCH   9  33
TORSDOF 13
ENDMDL
