MODEL 1
REMARK VINA RESULT: -7.015570436      0.000      0.000
REMARK  13 active torsions:
REMARK  status: ('A' for Active; 'I' for Inactive)
REMARK    1  A    between atoms: N1_1  and  C1_4 
REMARK    2  A    between atoms: C1_4  and  C2_5 
REMARK    3  A    between atoms: C2_5  and  N2_6 
REMARK    4  A    between atoms: N2_6  and  C3_8 
REMARK    5  A    between atoms: C6_11  and  N3_12 
REMARK    6  A    between atoms: N3_12  and  N4_14 
REMARK    7  A    between atoms: N4_14  and  C7_16 
REMARK    8  A    between atoms: C7_16  and  C8_17 
REMARK    9  A    between atoms: C8_17  and  N5_18 
REMARK   10  A    between atoms: C10_25  and  C11_26 
REMARK   11  A    between atoms: C11_26  and  N7_27 
REMARK   12  A    between atoms: N7_27  and  N8_28 
REMARK   13  A    between atoms: N10_33  and  O1_34 
ROOT
HETATM    1  C3  UNL     1      29.521  23.262  45.726  1.00  0.00     0.062 A 
HETATM    2  C4  UNL     1      30.506  23.484  46.717  1.00  0.00     0.034 A 
HETATM    3  C5  UNL     1      31.703  22.828  46.663  1.00  0.00     0.036 A 
HETATM    4  C6  UNL     1      32.017  21.933  45.669  1.00  0.00     0.077 A 
HETATM    5  C9  UNL     1      31.052  21.693  44.682  1.00  0.00     0.095 A 
HETATM    6  N6  UNL     1      31.334  20.813  43.706  1.00  0.00    -0.340 N 
ATOM      7  H6  UNL     1      32.238  20.341  43.700  1.00  0.00     0.167 HD
HETATM    8  C10 UNL     1      30.441  20.549  42.739  1.00  0.00     0.115 A 
HETATM    9  N9  UNL     1      29.273  21.192  42.798  1.00  0.00    -0.261 N 
ATOM     10  H9  UNL     1      28.582  21.001  42.073  1.00  0.00     0.191 HD
HETATM   11  N10 UNL     1      28.960  22.067  43.750  1.00  0.00    -0.158 N 
HETATM   12  C12 UNL     1      29.825  22.359  44.728  1.00  0.00     0.136 A 
ENDROOT
BRANCH   4  13
HETATM   13  N3  UNL     1      33.286  21.376  45.484  1.00  0.00    -0.303 N 
ATOM     14  H3  UNL     1      33.225  20.505  44.956  1.00  0.00     0.186 HD
BRANCH  13  15
HETATM   15  N4  UNL     1      34.544  21.650  45.796  1.00  0.00    -0.334 N 
ATOM     16  H4  UNL     1      35.233  21.747  45.050  1.00  0.00     0.180 HD
BRANCH  15  17
HETATM   17  C7  UNL     1      34.952  21.810  47.138  1.00  0.00     0.166 C 
BRANCH  17  18
HETATM   18  C8  UNL     1      35.247  23.308  47.414  1.00  0.00     0.250 C 
BRANCH  18  19
HETATM   19  N5  UNL     1      35.243  24.159  46.291  1.00  0.00    -0.078 N 
ATOM     20  H53 UNL     1      34.456  23.928  45.685  1.00  0.00     0.274 HD
ATOM     21  H52 UNL     1      34.986  25.104  46.575  1.00  0.00     0.274 HD
ATOM     22  H51 UNL     1      36.104  24.185  45.744  1.00  0.00     0.274 HD
ENDBRANCH  18  19
ENDBRANCH  17  18
ENDBRANCH  15  17
ENDBRANCH  13  15
ENDBRANCH   4  13
BRANCH   1  23
HETATM   23  N2  UNL     1      28.380  24.100  45.731  1.00  0.00    -0.383 N 
ATOM     24  H2  UNL     1      27.748  24.099  44.929  1.00  0.00     0.160 HD
BRANCH  23  25
HETATM   25  C2  UNL     1      28.098  24.965  46.874  1.00  0.00     0.163 C 
BRANCH  25  26
HETATM   26  C1  UNL     1      26.665  24.795  47.275  1.00  0.00     0.072 C 
BRANCH  26  27
HETATM   27  N1  UNL     1      26.266  25.127  48.474  1.00  0.00    -0.410 N 
ATOM     28  H12 UNL     1      26.409  26.086  48.791  1.00  0.00     0.155 HD
ATOM     29  H11 UNL     1      25.821  24.440  49.082  1.00  0.00     0.155 HD
ENDBRANCH  26  27
ENDBRANCH  25  26
ENDBRANCH  23  25
ENDBRANCH   1  23
BRANCH   8  30
HETATM   30  C11 UNL     1      30.759  19.561  41.653  1.00  0.00     0.212 C 
BRANCH  30  31
HETATM   31  N7  UNL     1      31.848  20.076  40.890  1.00  0.00    -0.141 NA
BRANCH  31  32
HETATM   32  N8  UNL     1      33.061  19.457  41.235  1.00  0.00    -0.348 N 
ATOM     33  H82 UNL     1      33.115  18.563  41.725  1.00  0.00     0.172 HD
ATOM     34  H81 UNL     1      33.864  20.011  40.937  1.00  0.00     0.172 HD
ENDBRANCH  31  32
ENDBRANCH  30  31
ENDBRANCH   8  30
BRANCH  11  35
HETATM   35  O1  UNL     1      27.722  22.655  43.729  1.00  0.00    -0.267 OA
ATOM     36  H1  UNL     1      27.164  22.579  44.493  1.00  0.00     0.247 HD
ENDBRANCH  11  35
TORSDOF 13
ENDMDL
MODEL 2
REMARK VINA RESULT: -6.960393645      2.311      5.889
REMARK  13 active torsions:
REMARK  status: ('A' for Active; 'I' for Inactive)
REMARK    1  A    between atoms: N1_1  and  C1_4 
REMARK    2  A    between atoms: C1_4  and  C2_5 
REMARK    3  A    between atoms: C2_5  and  N2_6 
REMARK    4  A    between atoms: N2_6  and  C3_8 
REMARK    5  A    between atoms: C6_11  and  N3_12 
REMARK    6  A    between atoms: N3_12  and  N4_14 
REMARK    7  A    between atoms: N4_14  and  C7_16 
REMARK    8  A    between atoms: C7_16  and  C8_17 
REMARK    9  A    between atoms: C8_17  and  N5_18 
REMARK   10  A    between atoms: C10_25  and  C11_26 
REMARK   11  A    between atoms: C11_26  and  N7_27 
REMARK   12  A    between atoms: N7_27  and  N8_28 
REMARK   13  A    between atoms: N10_33  and  O1_34 
ROOT
HETATM    1  C3  UNL     1      32.502  21.297  47.380  1.00  0.00     0.062 A 
HETATM    2  C4  UNL     1      32.650  19.898  47.234  1.00  0.00     0.034 A 
HETATM    3  C5  UNL     1      31.697  19.163  46.588  1.00  0.00     0.036 A 
HETATM    4  C6  UNL     1      30.562  19.724  46.053  1.00  0.00     0.077 A 
HETATM    5  C9  UNL     1      30.392  21.107  46.193  1.00  0.00     0.095 A 
HETATM    6  N6  UNL     1      29.284  21.675  45.687  1.00  0.00    -0.340 N 
ATOM      7  H6  UNL     1      28.593  21.094  45.212  1.00  0.00     0.167 HD
HETATM    8  C10 UNL     1      29.076  22.996  45.798  1.00  0.00     0.115 A 
HETATM    9  N9  UNL     1      30.010  23.708  46.432  1.00  0.00    -0.261 N 
ATOM     10  H9  UNL     1      29.867  24.713  46.527  1.00  0.00     0.191 HD
HETATM   11  N10 UNL     1      31.118  23.179  46.947  1.00  0.00    -0.158 N 
HETATM   12  C12 UNL     1      31.362  21.867  46.853  1.00  0.00     0.136 A 
ENDROOT
BRANCH   4  13
HETATM   13  N3  UNL     1      29.654  19.039  45.240  1.00  0.00    -0.303 N 
ATOM     14  H3  UNL     1      28.859  18.706  45.786  1.00  0.00     0.186 HD
BRANCH  13  15
HETATM   15  N4  UNL     1      29.526  18.695  43.967  1.00  0.00    -0.334 N 
ATOM     16  H4  UNL     1      28.615  18.779  43.516  1.00  0.00     0.180 HD
BRANCH  15  17
HETATM   17  C7  UNL     1      30.624  18.214  43.220  1.00  0.00     0.166 C 
BRANCH  17  18
HETATM   18  C8  UNL     1      31.237  19.375  42.393  1.00  0.00     0.250 C 
BRANCH  18  19
HETATM   19  N5  UNL     1      32.414  19.952  42.911  1.00  0.00    -0.078 N 
ATOM     20  H53 UNL     1      32.490  19.749  43.907  1.00  0.00     0.274 HD
ATOM     21  H52 UNL     1      33.229  19.449  42.559  1.00  0.00     0.274 HD
ATOM     22  H51 UNL     1      32.531  20.953  42.752  1.00  0.00     0.274 HD
ENDBRANCH  18  19
ENDBRANCH  17  18
ENDBRANCH  15  17
ENDBRANCH  13  15
ENDBRANCH   4  13
BRANCH   1  23
HETATM   23  N2  UNL     1      33.601  22.028  47.894  1.00  0.00    -0.383 N 
ATOM     24  H2  UNL     1      33.497  22.554  48.762  1.00  0.00     0.160 HD
BRANCH  23  25
HETATM   25  C2  UNL     1      34.883  22.033  47.192  1.00  0.00     0.163 C 
BRANCH  25  26
HETATM   26  C1  UNL     1      34.815  23.009  46.057  1.00  0.00     0.072 C 
BRANCH  26  27
HETATM   27  N1  UNL     1      35.020  24.283  46.263  1.00  0.00    -0.410 N 
ATOM     28  H12 UNL     1      35.817  24.731  45.810  1.00  0.00     0.155 HD
ATOM     29  H11 UNL     1      34.395  24.818  46.865  1.00  0.00     0.155 HD
ENDBRANCH  26  27
ENDBRANCH  25  26
ENDBRANCH  23  25
ENDBRANCH   1  23
BRANCH   8  30
HETATM   30  C11 UNL     1      27.833  23.626  45.235  1.00  0.00     0.212 C 
BRANCH  30  31
HETATM   31  N7  UNL     1      27.933  25.038  45.411  1.00  0.00    -0.141 NA
BRANCH  31  32
HETATM   32  N8  UNL     1      26.668  25.648  45.425  1.00  0.00    -0.348 N 
ATOM     33  H82 UNL     1      25.843  25.241  44.982  1.00  0.00     0.172 HD
ATOM     34  H81 UNL     1      26.684  26.536  45.928  1.00  0.00     0.172 HD
ENDBRANCH  31  32
ENDBRANCH  30  31
ENDBRANCH   8  30
BRANCH  11  35
HETATM   35  O1  UNL     1      32.003  23.998  47.598  1.00  0.00    -0.267 OA
ATOM     36  H1  UNL     1      32.320  23.742  48.455  1.00  0.00     0.247 HD
ENDBRANCH  11  35
TORSDOF 13
ENDMDL
MODEL 3
REMARK VINA RESULT: -6.895541932      2.090      5.120
REMARK  13 active torsions:
REMARK  status: ('A' for Active; 'I' for Inactive)
REMARK    1  A    between atoms: N1_1  and  C1_4 
REMARK    2  A    between atoms: C1_4  and  C2_5 
REMARK    3  A    between atoms: C2_5  and  N2_6 
REMARK    4  A    between atoms: N2_6  and  C3_8 
REMARK    5  A    between atoms: C6_11  and  N3_12 
REMARK    6  A    between atoms: N3_12  and  N4_14 
REMARK    7  A    between atoms: N4_14  and  C7_16 
REMARK    8  A    between atoms: C7_16  and  C8_17 
REMARK    9  A    between atoms: C8_17  and  N5_18 
REMARK   10  A    between atoms: C10_25  and  C11_26 
REMARK   11  A    between atoms: C11_26  and  N7_27 
REMARK   12  A    between atoms: N7_27  and  N8_28 
REMARK   13  A    between atoms: N10_33  and  O1_34 
ROOT
HETATM    1  C3  UNL     1      31.764  19.952  44.470  1.00  0.00     0.062 A 
HETATM    2  C4  UNL     1      32.657  19.246  45.310  1.00  0.00     0.034 A 
HETATM    3  C5  UNL     1      32.884  19.667  46.589  1.00  0.00     0.036 A 
HETATM    4  C6  UNL     1      32.275  20.776  47.127  1.00  0.00     0.077 A 
HETATM    5  C9  UNL     1      31.393  21.493  46.309  1.00  0.00     0.095 A 
HETATM    6  N6  UNL     1      30.794  22.587  46.811  1.00  0.00    -0.340 N 
ATOM      7  H6  UNL     1      30.990  22.872  47.770  1.00  0.00     0.167 HD
HETATM    8  C10 UNL     1      29.942  23.308  46.065  1.00  0.00     0.115 A 
HETATM    9  N9  UNL     1      29.726  22.893  44.816  1.00  0.00    -0.261 N 
ATOM     10  H9  UNL     1      29.083  23.430  44.234  1.00  0.00     0.191 HD
HETATM   11  N10 UNL     1      30.302  21.817  44.285  1.00  0.00    -0.158 N 
HETATM   12  C12 UNL     1      31.154  21.070  44.998  1.00  0.00     0.136 A 
ENDROOT
BRANCH   4  13
HETATM   13  N3  UNL     1      32.348  21.137  48.475  1.00  0.00    -0.303 N 
ATOM     14  H3  UNL     1      31.559  20.753  48.995  1.00  0.00     0.186 HD
BRANCH  13  15
HETATM   15  N4  UNL     1      33.144  21.832  49.274  1.00  0.00    -0.334 N 
ATOM     16  H4  UNL     1      33.341  21.481  50.211  1.00  0.00     0.180 HD
BRANCH  15  17
HETATM   17  C7  UNL     1      33.725  23.049  48.856  1.00  0.00     0.166 C 
BRANCH  17  18
HETATM   18  C8  UNL     1      35.005  22.755  48.030  1.00  0.00     0.250 C 
BRANCH  18  19
HETATM   19  N5  UNL     1      35.246  23.607  46.933  1.00  0.00    -0.078 N 
ATOM     20  H53 UNL     1      36.010  23.236  46.369  1.00  0.00     0.274 HD
ATOM     21  H52 UNL     1      34.476  23.539  46.268  1.00  0.00     0.274 HD
ATOM     22  H51 UNL     1      35.425  24.587  47.156  1.00  0.00     0.274 HD
ENDBRANCH  18  19
ENDBRANCH  17  18
ENDBRANCH  15  17
ENDBRANCH  13  15
ENDBRANCH   4  13
BRANCH   1  23
HETATM   23  N2  UNL     1      31.430  19.369  43.223  1.00  0.00    -0.383 N 
ATOM     24  H2  UNL     1      31.705  19.834  42.357  1.00  0.00     0.160 HD
BRANCH  23  25
HETATM   25  C2  UNL     1      30.695  18.107  43.167  1.00  0.00     0.163 C 
BRANCH  25  26
HETATM   26  C1  UNL     1      29.444  18.305  42.365  1.00  0.00     0.072 C 
BRANCH  26  27
HETATM   27  N1  UNL     1      28.374  18.812  42.917  1.00  0.00    -0.410 N 
ATOM     28  H12 UNL     1      27.969  18.339  43.726  1.00  0.00     0.155 HD
ATOM     29  H11 UNL     1      27.953  19.663  42.547  1.00  0.00     0.155 HD
ENDBRANCH  26  27
ENDBRANCH  25  26
ENDBRANCH  23  25
ENDBRANCH   1  23
BRANCH   8  30
HETATM   30  C11 UNL     1      29.280  24.533  46.629  1.00  0.00     0.212 C 
BRANCH  30  31
HETATM   31  N7  UNL     1      29.009  25.426  45.550  1.00  0.00    -0.141 NA
BRANCH  31  32
HETATM   32  N8  UNL     1      28.018  26.363  45.890  1.00  0.00    -0.348 N 
ATOM     33  H82 UNL     1      28.095  26.996  46.686  1.00  0.00     0.172 HD
ATOM     34  H81 UNL     1      27.227  26.324  45.246  1.00  0.00     0.172 HD
ENDBRANCH  31  32
ENDBRANCH  30  31
ENDBRANCH   8  30
BRANCH  11  35
HETATM   35  O1  UNL     1      30.027  21.491  42.983  1.00  0.00    -0.267 OA
ATOM     36  H1  UNL     1      30.702  21.611  42.327  1.00  0.00     0.247 HD
ENDBRANCH  11  35
TORSDOF 13
ENDMDL
MODEL 4
REMARK VINA RESULT: -6.887281580      1.943      6.375
REMARK  13 active torsions:
REMARK  status: ('A' for Active; 'I' for Inactive)
REMARK    1  A    between atoms: N1_1  and  C1_4 
REMARK    2  A    between atoms: C1_4  and  C2_5 
REMARK    3  A    between atoms: C2_5  and  N2_6 
REMARK    4  A    between atoms: N2_6  and  C3_8 
REMARK    5  A    between atoms: C6_11  and  N3_12 
REMARK    6  A    between atoms: N3_12  and  N4_14 
REMARK    7  A    between atoms: N4_14  and  C7_16 
REMARK    8  A    between atoms: C7_16  and  C8_17 
REMARK    9  A    between atoms: C8_17  and  N5_18 
REMARK   10  A    between atoms: C10_25  and  C11_26 
REMARK   11  A    between atoms: C11_26  and  N7_27 
REMARK   12  A    between atoms: N7_27  and  N8_28 
REMARK   13  A    between atoms: N10_33  and  O1_34 
ROOT
HETATM    1  C3  UNL     1      32.530  21.521  45.442  1.00  0.00     0.062 A 
HETATM    2  C4  UNL     1      32.608  20.329  44.684  1.00  0.00     0.034 A 
HETATM    3  C5  UNL     1      31.490  19.804  44.101  1.00  0.00     0.036 A 
HETATM    4  C6  UNL     1      30.250  20.386  44.212  1.00  0.00     0.077 A 
HETATM    5  C9  UNL     1      30.150  21.563  44.965  1.00  0.00     0.095 A 
HETATM    6  N6  UNL     1      28.945  22.144  45.095  1.00  0.00    -0.340 N 
ATOM      7  H6  UNL     1      28.132  21.722  44.647  1.00  0.00     0.167 HD
HETATM    8  C10 UNL     1      28.798  23.271  45.808  1.00  0.00     0.115 A 
HETATM    9  N9  UNL     1      29.894  23.778  46.377  1.00  0.00    -0.261 N 
ATOM     10  H9  UNL     1      29.801  24.634  46.924  1.00  0.00     0.191 HD
HETATM   11  N10 UNL     1      31.102  23.230  46.270  1.00  0.00    -0.158 N 
HETATM   12  C12 UNL     1      31.289  22.108  45.565  1.00  0.00     0.136 A 
ENDROOT
BRANCH   4  13
HETATM   13  N3  UNL     1      29.123  19.978  43.494  1.00  0.00    -0.303 N 
ATOM     14  H3  UNL     1      28.540  20.779  43.249  1.00  0.00     0.186 HD
BRANCH  13  15
HETATM   15  N4  UNL     1      28.590  18.854  43.038  1.00  0.00    -0.334 N 
ATOM     16  H4  UNL     1      27.922  18.346  43.619  1.00  0.00     0.180 HD
BRANCH  15  17
HETATM   17  C7  UNL     1      28.927  18.342  41.766  1.00  0.00     0.166 C 
BRANCH  17  18
HETATM   18  C8  UNL     1      29.268  19.515  40.810  1.00  0.00     0.250 C 
BRANCH  18  19
HETATM   19  N5  UNL     1      30.596  19.566  40.339  1.00  0.00    -0.078 N 
ATOM     20  H53 UNL     1      30.938  18.621  40.168  1.00  0.00     0.274 HD
ATOM     21  H52 UNL     1      30.613  19.942  39.392  1.00  0.00     0.274 HD
ATOM     22  H51 UNL     1      31.261  20.074  40.924  1.00  0.00     0.274 HD
ENDBRANCH  18  19
ENDBRANCH  17  18
ENDBRANCH  15  17
ENDBRANCH  13  15
ENDBRANCH   4  13
BRANCH   1  23
HETATM   23  N2  UNL     1      33.744  22.113  45.867  1.00  0.00    -0.383 N 
ATOM     24  H2  UNL     1      34.086  22.955  45.403  1.00  0.00     0.160 HD
BRANCH  23  25
HETATM   25  C2  UNL     1      34.511  21.529  46.966  1.00  0.00     0.163 C 
BRANCH  25  26
HETATM   26  C1  UNL     1      35.346  22.598  47.603  1.00  0.00     0.072 C 
BRANCH  26  27
HETATM   27  N1  UNL     1      35.387  23.800  47.094  1.00  0.00    -0.410 N 
ATOM     28  H12 UNL     1      34.878  23.984  46.229  1.00  0.00     0.155 HD
ATOM     29  H11 UNL     1      35.918  24.540  47.553  1.00  0.00     0.155 HD
ENDBRANCH  26  27
ENDBRANCH  25  26
ENDBRANCH  23  25
ENDBRANCH   1  23
BRANCH   8  30
HETATM   30  C11 UNL     1      27.448  23.914  45.956  1.00  0.00     0.212 C 
BRANCH  30  31
HETATM   31  N7  UNL     1      27.388  25.028  45.068  1.00  0.00    -0.141 NA
BRANCH  31  32
HETATM   32  N8  UNL     1      27.443  26.248  45.763  1.00  0.00    -0.348 N 
ATOM     33  H82 UNL     1      27.785  26.333  46.721  1.00  0.00     0.172 HD
ATOM     34  H81 UNL     1      27.102  27.022  45.192  1.00  0.00     0.172 HD
ENDBRANCH  31  32
ENDBRANCH  30  31
ENDBRANCH   8  30
BRANCH  11  35
HETATM   35  O1  UNL     1      32.158  23.821  46.913  1.00  0.00    -0.267 OA
ATOM     36  H1  UNL     1      33.016  23.419  46.852  1.00  0.00     0.247 HD
ENDBRANCH  11  35
TORSDOF 13
ENDMDL
MODEL 5
REMARK VINA RESULT: -6.835740734      2.274      6.738
REMARK  13 active torsions:
REMARK  status: ('A' for Active; 'I' for Inactive)
REMARK    1  A    between atoms: N1_1  and  C1_4 
REMARK    2  A    between atoms: C1_4  and  C2_5 
REMARK    3  A    between atoms: C2_5  and  N2_6 
REMARK    4  A    between atoms: N2_6  and  C3_8 
REMARK    5  A    between atoms: C6_11  and  N3_12 
REMARK    6  A    between atoms: N3_12  and  N4_14 
REMARK    7  A    between atoms: N4_14  and  C7_16 
REMARK    8  A    between atoms: C7_16  and  C8_17 
REMARK    9  A    between atoms: C8_17  and  N5_18 
REMARK   10  A    between atoms: C10_25  and  C11_26 
REMARK   11  A    between atoms: C11_26  and  N7_27 
REMARK   12  A    between atoms: N7_27  and  N8_28 
REMARK   13  A    between atoms: N10_33  and  O1_34 
ROOT
HETATM    1  C3  UNL     1      32.526  21.446  45.400  1.00  0.00     0.062 A 
HETATM    2  C4  UNL     1      32.598  20.234  44.672  1.00  0.00     0.034 A 
HETATM    3  C5  UNL     1      31.481  19.711  44.085  1.00  0.00     0.036 A 
HETATM    4  C6  UNL     1      30.249  20.314  44.162  1.00  0.00     0.077 A 
HETATM    5  C9  UNL     1      30.154  21.510  44.885  1.00  0.00     0.095 A 
HETATM    6  N6  UNL     1      28.956  22.111  44.982  1.00  0.00    -0.340 N 
ATOM      7  H6  UNL     1      28.144  21.690  44.532  1.00  0.00     0.167 HD
HETATM    8  C10 UNL     1      28.815  23.258  45.665  1.00  0.00     0.115 A 
HETATM    9  N9  UNL     1      29.909  23.762  46.238  1.00  0.00    -0.261 N 
ATOM     10  H9  UNL     1      29.820  24.632  46.763  1.00  0.00     0.191 HD
HETATM   11  N10 UNL     1      31.110  23.194  46.164  1.00  0.00    -0.158 N 
HETATM   12  C12 UNL     1      31.291  22.053  45.489  1.00  0.00     0.136 A 
ENDROOT
BRANCH   4  13
HETATM   13  N3  UNL     1      29.127  19.904  43.436  1.00  0.00    -0.303 N 
ATOM     14  H3  UNL     1      28.572  20.709  43.143  1.00  0.00     0.186 HD
BRANCH  13  15
HETATM   15  N4  UNL     1      28.573  18.775  43.019  1.00  0.00    -0.334 N 
ATOM     16  H4  UNL     1      27.989  18.238  43.661  1.00  0.00     0.180 HD
BRANCH  15  17
HETATM   17  C7  UNL     1      28.774  18.299  41.705  1.00  0.00     0.166 C 
BRANCH  17  18
HETATM   18  C8  UNL     1      27.404  17.951  41.065  1.00  0.00     0.250 C 
BRANCH  18  19
HETATM   19  N5  UNL     1      26.356  17.659  41.961  1.00  0.00    -0.078 N 
ATOM     20  H53 UNL     1      26.472  16.716  42.332  1.00  0.00     0.274 HD
ATOM     21  H52 UNL     1      26.468  18.207  42.814  1.00  0.00     0.274 HD
ATOM     22  H51 UNL     1      25.410  17.774  41.598  1.00  0.00     0.274 HD
ENDBRANCH  18  19
ENDBRANCH  17  18
ENDBRANCH  15  17
ENDBRANCH  13  15
ENDBRANCH   4  13
BRANCH   1  23
HETATM   23  N2  UNL     1      33.742  22.031  45.829  1.00  0.00    -0.383 N 
ATOM     24  H2  UNL     1      34.120  22.837  45.330  1.00  0.00     0.160 HD
BRANCH  23  25
HETATM   25  C2  UNL     1      34.460  21.491  46.983  1.00  0.00     0.163 C 
BRANCH  25  26
HETATM   26  C1  UNL     1      35.333  22.563  47.561  1.00  0.00     0.072 C 
BRANCH  26  27
HETATM   27  N1  UNL     1      35.359  23.756  47.032  1.00  0.00    -0.410 N 
ATOM     28  H12 UNL     1      36.223  24.297  47.082  1.00  0.00     0.155 HD
ATOM     29  H11 UNL     1      34.531  24.140  46.577  1.00  0.00     0.155 HD
ENDBRANCH  26  27
ENDBRANCH  25  26
ENDBRANCH  23  25
ENDBRANCH   1  23
BRANCH   8  30
HETATM   30  C11 UNL     1      27.472  23.923  45.776  1.00  0.00     0.212 C 
BRANCH  30  31
HETATM   31  N7  UNL     1      27.610  25.275  45.344  1.00  0.00    -0.141 NA
BRANCH  31  32
HETATM   32  N8  UNL     1      27.133  26.178  46.308  1.00  0.00    -0.348 N 
ATOM     33  H82 UNL     1      27.355  26.107  47.302  1.00  0.00     0.172 HD
ATOM     34  H81 UNL     1      26.546  26.900  45.890  1.00  0.00     0.172 HD
ENDBRANCH  31  32
ENDBRANCH  30  31
ENDBRANCH   8  30
BRANCH  11  35
HETATM   35  O1  UNL     1      32.165  23.786  46.809  1.00  0.00    -0.267 OA
ATOM     36  H1  UNL     1      32.703  23.260  47.387  1.00  0.00     0.247 HD
ENDBRANCH  11  35
TORSDOF 13
ENDMDL
