MODEL 1
REMARK VINA RESULT: -8.146019140      0.000      0.000
REMARK  8 active torsions:
REMARK  status: ('A' for Active; 'I' for Inactive)
REMARK    1  A    between atoms: C3_3  and  O1_4 
REMARK    2  A    between atoms: C6_8  and  N1_9 
REMARK       I    between atoms: N1_9  and  C7_11 
REMARK    3  A    between atoms: C7_11  and  C8_13 
REMARK       I    between atoms: N2_17  and  C12_18 
REMARK       I    between atoms: C12_18  and  N3_20 
REMARK    4  A    between atoms: C16_24  and  C17_25 
REMARK       I    between atoms: C17_25  and  N4_27 
REMARK    5  A    between atoms: N4_27  and  C18_29 
REMARK    6  A    between atoms: C18_29  and  C19_30 
REMARK    7  A    between atoms: C18_29  and  C26_37 
REMARK    8  A    between atoms: C19_30  and  C20_31 
ROOT
HETATM    1  C8  UNL     1      -0.671 -29.265   8.453  1.00  0.00     0.181 C 
HETATM    2  C9  UNL     1      -1.716 -29.905   7.552  1.00  0.00     0.037 C 
HETATM    3  C10 UNL     1      -1.551 -31.359   7.872  1.00  0.00     0.022 C 
HETATM    4  C11 UNL     1      -0.047 -31.482   8.132  1.00  0.00     0.129 C 
HETATM    5  N2  UNL     1       0.414 -30.165   8.469  1.00  0.00    -0.321 N 
HETATM    6  C12 UNL     1       1.757 -29.870   8.829  1.00  0.00     0.322 C 
HETATM    7  O3  UNL     1       2.076 -28.709   9.270  1.00  0.00    -0.247 OA
HETATM    8  N3  UNL     1       2.858 -30.772   8.749  1.00  0.00    -0.321 N 
HETATM    9  C13 UNL     1       2.934 -32.149   8.331  1.00  0.00     0.129 C 
HETATM   10  C14 UNL     1       4.255 -32.720   8.820  1.00  0.00     0.022 C 
HETATM   11  C15 UNL     1       4.783 -31.647   9.755  1.00  0.00     0.037 C 
HETATM   12  C16 UNL     1       4.255 -30.406   9.091  1.00  0.00     0.181 C 
ENDROOT
BRANCH  12  13
HETATM   13  C17 UNL     1       5.034 -30.194   7.846  1.00  0.00     0.241 C 
HETATM   14  O4  UNL     1       4.519 -29.602   6.862  1.00  0.00    -0.271 OA
HETATM   15  N4  UNL     1       6.366 -30.644   7.719  1.00  0.00    -0.345 N 
ATOM     16  H4  UNL     1       6.815 -31.128   8.497  1.00  0.00     0.163 HD
BRANCH  15  17
HETATM   17  C18 UNL     1       7.125 -30.412   6.438  1.00  0.00     0.186 C 
BRANCH  17  18
HETATM   18  C19 UNL     1       8.247 -29.540   6.859  1.00  0.00     0.041 C 
BRANCH  18  19
HETATM   19  C20 UNL     1       8.149 -28.072   6.754  1.00  0.00    -0.012 C 
HETATM   20  C21 UNL     1       8.915 -27.483   5.637  1.00  0.00     0.005 C 
HETATM   21  C22 UNL     1       9.597 -26.165   6.058  1.00  0.00     0.000 C 
HETATM   22  C23 UNL     1       8.551 -25.372   6.813  1.00  0.00     0.000 C 
HETATM   23  C24 UNL     1       8.417 -26.027   8.171  1.00  0.00     0.000 C 
HETATM   24  C25 UNL     1       8.580 -27.508   8.113  1.00  0.00     0.005 C 
ENDBRANCH  18  19
ENDBRANCH  17  18
BRANCH  17  25
HETATM   25  C26 UNL     1       7.568 -31.729   5.956  1.00  0.00     0.196 C 
HETATM   26  O5  UNL     1       6.704 -32.641   5.892  1.00  0.00    -0.646 OA
HETATM   27  O6  UNL     1       8.857 -32.021   5.571  1.00  0.00    -0.646 OA
ENDBRANCH  17  25
ENDBRANCH  15  17
ENDBRANCH  12  13
BRANCH   1  28
HETATM   28  C7  UNL     1      -0.406 -27.889   7.973  1.00  0.00     0.241 C 
HETATM   29  N1  UNL     1       0.433 -27.658   6.861  1.00  0.00    -0.351 N 
ATOM     30  H1  UNL     1       0.847 -28.473   6.406  1.00  0.00     0.163 HD
HETATM   31  O2  UNL     1      -0.921 -26.925   8.548  1.00  0.00    -0.271 OA
BRANCH  29  32
HETATM   32  C6  UNL     1       0.751 -26.362   6.319  1.00  0.00     0.115 C 
HETATM   33  C2  UNL     1       2.214 -26.399   5.941  1.00  0.00    -0.038 C 
HETATM   34  C1  UNL     1       3.217 -25.889   6.628  1.00  0.00     0.019 C 
HETATM   35  C3  UNL     1       2.338 -27.114   4.645  1.00  0.00     0.148 C 
HETATM   36  C4  UNL     1       0.957 -26.994   4.000  1.00  0.00     0.039 C 
HETATM   37  C5  UNL     1       0.144 -26.140   4.952  1.00  0.00     0.033 C 
BRANCH  35  38
HETATM   38  O1  UNL     1       2.677 -28.452   4.837  1.00  0.00    -0.391 OA
ATOM     39  H1  UNL     1       2.601 -28.946   4.029  1.00  0.00     0.210 HD
ENDBRANCH  35  38
ENDBRANCH  29  32
ENDBRANCH   1  28
TORSDOF 8
ENDMDL
MODEL 2
REMARK VINA RESULT: -8.044562108     11.273     15.384
REMARK  8 active torsions:
REMARK  status: ('A' for Active; 'I' for Inactive)
REMARK    1  A    between atoms: C3_3  and  O1_4 
REMARK    2  A    between atoms: C6_8  and  N1_9 
REMARK       I    between atoms: N1_9  and  C7_11 
REMARK    3  A    between atoms: C7_11  and  C8_13 
REMARK       I    between atoms: N2_17  and  C12_18 
REMARK       I    between atoms: C12_18  and  N3_20 
REMARK    4  A    between atoms: C16_24  and  C17_25 
REMARK       I    between atoms: C17_25  and  N4_27 
REMARK    5  A    between atoms: N4_27  and  C18_29 
REMARK    6  A    between atoms: C18_29  and  C19_30 
REMARK    7  A    between atoms: C18_29  and  C26_37 
REMARK    8  A    between atoms: C19_30  and  C20_31 
ROOT
HETATM    1  C8  UNL     1      -8.842 -40.920   2.006  1.00  0.00     0.181 C 
HETATM    2  C9  UNL     1      -9.442 -42.305   2.187  1.00  0.00     0.037 C 
HETATM    3  C10 UNL     1     -10.673 -42.006   2.987  1.00  0.00     0.022 C 
HETATM    4  C11 UNL     1     -10.229 -40.837   3.870  1.00  0.00     0.129 C 
HETATM    5  N2  UNL     1      -9.106 -40.236   3.210  1.00  0.00    -0.321 N 
HETATM    6  C12 UNL     1      -8.436 -39.079   3.694  1.00  0.00     0.322 C 
HETATM    7  O3  UNL     1      -7.541 -38.496   2.984  1.00  0.00    -0.247 OA
HETATM    8  N3  UNL     1      -8.656 -38.457   4.958  1.00  0.00    -0.321 N 
HETATM    9  C13 UNL     1      -9.563 -38.775   6.032  1.00  0.00     0.129 C 
HETATM   10  C14 UNL     1      -9.652 -37.566   6.948  1.00  0.00     0.022 C 
HETATM   11  C15 UNL     1      -8.939 -36.474   6.170  1.00  0.00     0.037 C 
HETATM   12  C16 UNL     1      -7.897 -37.278   5.444  1.00  0.00     0.181 C 
ENDROOT
BRANCH  12  13
HETATM   13  C17 UNL     1      -6.885 -37.711   6.439  1.00  0.00     0.241 C 
HETATM   14  O4  UNL     1      -6.253 -38.787   6.282  1.00  0.00    -0.271 OA
HETATM   15  N4  UNL     1      -6.598 -36.940   7.586  1.00  0.00    -0.345 N 
ATOM     16  H4  UNL     1      -7.091 -36.061   7.746  1.00  0.00     0.163 HD
BRANCH  15  17
HETATM   17  C18 UNL     1      -5.565 -37.413   8.576  1.00  0.00     0.186 C 
BRANCH  17  18
HETATM   18  C19 UNL     1      -4.357 -36.638   8.206  1.00  0.00     0.041 C 
BRANCH  18  19
HETATM   19  C20 UNL     1      -4.222 -35.217   8.575  1.00  0.00    -0.012 C 
HETATM   20  C21 UNL     1      -4.662 -34.266   7.534  1.00  0.00     0.005 C 
HETATM   21  C22 UNL     1      -3.717 -33.050   7.448  1.00  0.00     0.000 C 
HETATM   22  C23 UNL     1      -3.467 -32.609   8.875  1.00  0.00     0.000 C 
HETATM   23  C24 UNL     1      -2.515 -33.622   9.474  1.00  0.00     0.000 C 
HETATM   24  C25 UNL     1      -2.755 -35.005   8.970  1.00  0.00     0.005 C 
ENDBRANCH  18  19
ENDBRANCH  17  18
BRANCH  17  25
HETATM   25  C26 UNL     1      -6.071 -37.083   9.918  1.00  0.00     0.196 C 
HETATM   26  O5  UNL     1      -6.165 -38.026  10.745  1.00  0.00    -0.646 OA
HETATM   27  O6  UNL     1      -6.440 -35.820  10.320  1.00  0.00    -0.646 OA
ENDBRANCH  17  25
ENDBRANCH  15  17
ENDBRANCH  12  13
BRANCH   1  28
HETATM   28  C7  UNL     1      -7.423 -41.063   1.603  1.00  0.00     0.241 C 
HETATM   29  N1  UNL     1      -6.456 -41.543   2.514  1.00  0.00    -0.351 N 
ATOM     30  H1  UNL     1      -6.772 -41.783   3.453  1.00  0.00     0.163 HD
HETATM   31  O2  UNL     1      -7.074 -40.762   0.457  1.00  0.00    -0.271 OA
BRANCH  29  32
HETATM   32  C6  UNL     1      -5.057 -41.718   2.218  1.00  0.00     0.115 C 
HETATM   33  C2  UNL     1      -4.332 -41.721   3.545  1.00  0.00    -0.038 C 
HETATM   34  C1  UNL     1      -3.661 -40.719   4.076  1.00  0.00     0.019 C 
HETATM   35  C3  UNL     1      -4.503 -43.062   4.161  1.00  0.00     0.148 C 
HETATM   36  C4  UNL     1      -4.820 -43.992   2.990  1.00  0.00     0.039 C 
HETATM   37  C5  UNL     1      -4.734 -43.120   1.752  1.00  0.00     0.033 C 
BRANCH  35  38
HETATM   38  O1  UNL     1      -5.546 -43.064   5.086  1.00  0.00    -0.391 OA
ATOM     39  H1  UNL     1      -6.076 -42.279   5.008  1.00  0.00     0.210 HD
ENDBRANCH  35  38
ENDBRANCH  29  32
ENDBRANCH   1  28
TORSDOF 8
ENDMDL
MODEL 3
REMARK VINA RESULT: -7.961786002      0.725      1.247
REMARK  8 active torsions:
REMARK  status: ('A' for Active; 'I' for Inactive)
REMARK    1  A    between atoms: C3_3  and  O1_4 
REMARK    2  A    between atoms: C6_8  and  N1_9 
REMARK       I    between atoms: N1_9  and  C7_11 
REMARK    3  A    between atoms: C7_11  and  C8_13 
REMARK       I    between atoms: N2_17  and  C12_18 
REMARK       I    between atoms: C12_18  and  N3_20 
REMARK    4  A    between atoms: C16_24  and  C17_25 
REMARK       I    between atoms: C17_25  and  N4_27 
REMARK    5  A    between atoms: N4_27  and  C18_29 
REMARK    6  A    between atoms: C18_29  and  C19_30 
REMARK    7  A    between atoms: C18_29  and  C26_37 
REMARK    8  A    between atoms: C19_30  and  C20_31 
ROOT
HETATM    1  C8  UNL     1      -0.781 -29.334   8.461  1.00  0.00     0.181 C 
HETATM    2  C9  UNL     1      -1.842 -29.889   7.523  1.00  0.00     0.037 C 
HETATM    3  C10 UNL     1      -1.747 -31.361   7.784  1.00  0.00     0.022 C 
HETATM    4  C11 UNL     1      -0.253 -31.562   8.054  1.00  0.00     0.129 C 
HETATM    5  N2  UNL     1       0.262 -30.282   8.450  1.00  0.00    -0.321 N 
HETATM    6  C12 UNL     1       1.612 -30.064   8.837  1.00  0.00     0.322 C 
HETATM    7  O3  UNL     1       1.978 -28.937   9.328  1.00  0.00    -0.247 OA
HETATM    8  N3  UNL     1       2.673 -31.011   8.731  1.00  0.00    -0.321 N 
HETATM    9  C13 UNL     1       2.692 -32.371   8.256  1.00  0.00     0.129 C 
HETATM   10  C14 UNL     1       3.980 -33.020   8.735  1.00  0.00     0.022 C 
HETATM   11  C15 UNL     1       4.544 -32.012   9.719  1.00  0.00     0.037 C 
HETATM   12  C16 UNL     1       4.081 -30.722   9.102  1.00  0.00     0.181 C 
ENDROOT
BRANCH  12  13
HETATM   13  C17 UNL     1       4.883 -30.495   7.875  1.00  0.00     0.241 C 
HETATM   14  O4  UNL     1       4.430 -29.793   6.934  1.00  0.00    -0.271 OA
HETATM   15  N4  UNL     1       6.171 -31.052   7.718  1.00  0.00    -0.345 N 
ATOM     16  H4  UNL     1       6.570 -31.627   8.460  1.00  0.00     0.163 HD
BRANCH  15  17
HETATM   17  C18 UNL     1       6.956 -30.801   6.457  1.00  0.00     0.186 C 
BRANCH  17  18
HETATM   18  C19 UNL     1       8.270 -30.336   6.959  1.00  0.00     0.041 C 
BRANCH  18  19
HETATM   19  C20 UNL     1       8.428 -28.991   7.543  1.00  0.00    -0.012 C 
HETATM   20  C21 UNL     1       8.113 -28.905   8.984  1.00  0.00     0.005 C 
HETATM   21  C22 UNL     1       7.353 -27.604   9.316  1.00  0.00     0.000 C 
HETATM   22  C23 UNL     1       8.085 -26.493   8.593  1.00  0.00     0.000 C 
HETATM   23  C24 UNL     1       7.722 -26.625   7.129  1.00  0.00     0.000 C 
HETATM   24  C25 UNL     1       7.560 -28.045   6.704  1.00  0.00     0.005 C 
ENDBRANCH  18  19
ENDBRANCH  17  18
BRANCH  17  25
HETATM   25  C26 UNL     1       7.035 -32.081   5.736  1.00  0.00     0.196 C 
HETATM   26  O5  UNL     1       7.580 -32.071   4.602  1.00  0.00    -0.646 OA
HETATM   27  O6  UNL     1       6.558 -33.276   6.222  1.00  0.00    -0.646 OA
ENDBRANCH  17  25
ENDBRANCH  15  17
ENDBRANCH  12  13
BRANCH   1  28
HETATM   28  C7  UNL     1      -0.449 -27.953   8.041  1.00  0.00     0.241 C 
HETATM   29  N1  UNL     1       0.448 -27.715   6.976  1.00  0.00    -0.351 N 
ATOM     30  H1  UNL     1       0.854 -28.528   6.512  1.00  0.00     0.163 HD
HETATM   31  O2  UNL     1      -0.958 -26.991   8.625  1.00  0.00    -0.271 OA
BRANCH  29  32
HETATM   32  C6  UNL     1       0.833 -26.413   6.494  1.00  0.00     0.115 C 
HETATM   33  C2  UNL     1       2.287 -26.514   6.092  1.00  0.00    -0.038 C 
HETATM   34  C1  UNL     1       3.325 -26.098   6.788  1.00  0.00     0.019 C 
HETATM   35  C3  UNL     1       2.353 -27.170   4.760  1.00  0.00     0.148 C 
HETATM   36  C4  UNL     1       0.973 -26.939   4.143  1.00  0.00     0.039 C 
HETATM   37  C5  UNL     1       0.222 -26.089   5.149  1.00  0.00     0.033 C 
BRANCH  35  38
HETATM   38  O1  UNL     1       2.616 -28.533   4.881  1.00  0.00    -0.391 OA
ATOM     39  H1  UNL     1       2.054 -29.044   4.310  1.00  0.00     0.210 HD
ENDBRANCH  35  38
ENDBRANCH  29  32
ENDBRANCH   1  28
TORSDOF 8
ENDMDL
MODEL 4
REMARK VINA RESULT: -7.635834269      2.917      8.293
REMARK  8 active torsions:
REMARK  status: ('A' for Active; 'I' for Inactive)
REMARK    1  A    between atoms: C3_3  and  O1_4 
REMARK    2  A    between atoms: C6_8  and  N1_9 
REMARK       I    between atoms: N1_9  and  C7_11 
REMARK    3  A    between atoms: C7_11  and  C8_13 
REMARK       I    between atoms: N2_17  and  C12_18 
REMARK       I    between atoms: C12_18  and  N3_20 
REMARK    4  A    between atoms: C16_24  and  C17_25 
REMARK       I    between atoms: C17_25  and  N4_27 
REMARK    5  A    between atoms: N4_27  and  C18_29 
REMARK    6  A    between atoms: C18_29  and  C19_30 
REMARK    7  A    between atoms: C18_29  and  C26_37 
REMARK    8  A    between atoms: C19_30  and  C20_31 
ROOT
HETATM    1  C8  UNL     1       6.537 -34.493   6.290  1.00  0.00     0.181 C 
HETATM    2  C9  UNL     1       6.084 -34.945   4.910  1.00  0.00     0.037 C 
HETATM    3  C10 UNL     1       6.888 -34.053   4.014  1.00  0.00     0.022 C 
HETATM    4  C11 UNL     1       6.967 -32.749   4.812  1.00  0.00     0.129 C 
HETATM    5  N2  UNL     1       6.732 -33.101   6.184  1.00  0.00    -0.321 N 
HETATM    6  C12 UNL     1       6.773 -32.165   7.254  1.00  0.00     0.322 C 
HETATM    7  O3  UNL     1       6.710 -32.561   8.472  1.00  0.00    -0.247 OA
HETATM    8  N3  UNL     1       6.879 -30.750   7.118  1.00  0.00    -0.321 N 
HETATM    9  C13 UNL     1       6.987 -29.909   5.953  1.00  0.00     0.129 C 
HETATM   10  C14 UNL     1       7.465 -28.538   6.403  1.00  0.00     0.022 C 
HETATM   11  C15 UNL     1       7.862 -28.755   7.852  1.00  0.00     0.037 C 
HETATM   12  C16 UNL     1       6.868 -29.806   8.264  1.00  0.00     0.181 C 
ENDROOT
BRANCH  12  13
HETATM   13  C17 UNL     1       5.538 -29.156   8.362  1.00  0.00     0.241 C 
HETATM   14  O4  UNL     1       5.440 -27.941   8.675  1.00  0.00    -0.271 OA
HETATM   15  N4  UNL     1       4.345 -29.869   8.113  1.00  0.00    -0.345 N 
ATOM     16  H4  UNL     1       4.386 -30.856   7.857  1.00  0.00     0.163 HD
BRANCH  15  17
HETATM   17  C18 UNL     1       3.012 -29.176   8.225  1.00  0.00     0.186 C 
BRANCH  17  18
HETATM   18  C19 UNL     1       2.430 -29.333   6.871  1.00  0.00     0.041 C 
BRANCH  18  19
HETATM   19  C20 UNL     1       1.589 -28.277   6.278  1.00  0.00    -0.012 C 
HETATM   20  C21 UNL     1       0.192 -28.677   6.015  1.00  0.00     0.005 C 
HETATM   21  C22 UNL     1      -0.314 -28.106   4.675  1.00  0.00     0.000 C 
HETATM   22  C23 UNL     1       0.117 -26.655   4.646  1.00  0.00     0.000 C 
HETATM   23  C24 UNL     1       1.605 -26.658   4.369  1.00  0.00     0.000 C 
HETATM   24  C25 UNL     1       2.306 -27.810   5.005  1.00  0.00     0.005 C 
ENDBRANCH  18  19
ENDBRANCH  17  18
BRANCH  17  25
HETATM   25  C26 UNL     1       2.246 -29.880   9.266  1.00  0.00     0.196 C 
HETATM   26  O5  UNL     1       2.702 -29.847  10.438  1.00  0.00    -0.646 OA
HETATM   27  O6  UNL     1       1.073 -30.561   9.039  1.00  0.00    -0.646 OA
ENDBRANCH  17  25
ENDBRANCH  15  17
ENDBRANCH  12  13
BRANCH   1  28
HETATM   28  C7  UNL     1       5.555 -34.968   7.293  1.00  0.00     0.241 C 
HETATM   29  N1  UNL     1       5.978 -35.661   8.449  1.00  0.00    -0.351 N 
ATOM     30  H1  UNL     1       6.979 -35.821   8.562  1.00  0.00     0.163 HD
HETATM   31  O2  UNL     1       4.350 -34.759   7.124  1.00  0.00    -0.271 OA
BRANCH  29  32
HETATM   32  C6  UNL     1       5.104 -36.161   9.479  1.00  0.00     0.115 C 
HETATM   33  C2  UNL     1       5.936 -37.083  10.341  1.00  0.00    -0.038 C 
HETATM   34  C1  UNL     1       5.946 -38.400  10.300  1.00  0.00     0.019 C 
HETATM   35  C3  UNL     1       6.752 -36.246  11.258  1.00  0.00     0.148 C 
HETATM   36  C4  UNL     1       6.008 -34.913  11.337  1.00  0.00     0.039 C 
HETATM   37  C5  UNL     1       4.755 -35.105  10.504  1.00  0.00     0.033 C 
BRANCH  35  38
HETATM   38  O1  UNL     1       8.041 -36.061  10.761  1.00  0.00    -0.391 OA
ATOM     39  H1  UNL     1       8.578 -36.831  10.903  1.00  0.00     0.210 HD
ENDBRANCH  35  38
ENDBRANCH  29  32
ENDBRANCH   1  28
TORSDOF 8
ENDMDL
MODEL 5
REMARK VINA RESULT: -7.591214411      4.033      6.697
REMARK  8 active torsions:
REMARK  status: ('A' for Active; 'I' for Inactive)
REMARK    1  A    between atoms: C3_3  and  O1_4 
REMARK    2  A    between atoms: C6_8  and  N1_9 
REMARK       I    between atoms: N1_9  and  C7_11 
REMARK    3  A    between atoms: C7_11  and  C8_13 
REMARK       I    between atoms: N2_17  and  C12_18 
REMARK       I    between atoms: C12_18  and  N3_20 
REMARK    4  A    between atoms: C16_24  and  C17_25 
REMARK       I    between atoms: C17_25  and  N4_27 
REMARK    5  A    between atoms: N4_27  and  C18_29 
REMARK    6  A    between atoms: C18_29  and  C19_30 
REMARK    7  A    between atoms: C18_29  and  C26_37 
REMARK    8  A    between atoms: C19_30  and  C20_31 
ROOT
HETATM    1  C8  UNL     1       5.005 -30.302   8.717  1.00  0.00     0.181 C 
HETATM    2  C9  UNL     1       4.690 -30.744  10.138  1.00  0.00     0.037 C 
HETATM    3  C10 UNL     1       6.038 -31.169  10.635  1.00  0.00     0.022 C 
HETATM    4  C11 UNL     1       6.693 -31.757   9.383  1.00  0.00     0.129 C 
HETATM    5  N2  UNL     1       6.002 -31.188   8.261  1.00  0.00    -0.321 N 
HETATM    6  C12 UNL     1       6.351 -31.449   6.908  1.00  0.00     0.322 C 
HETATM    7  O3  UNL     1       5.801 -30.795   5.951  1.00  0.00    -0.247 OA
HETATM    8  N3  UNL     1       7.298 -32.418   6.464  1.00  0.00    -0.321 N 
HETATM    9  C13 UNL     1       8.134 -33.338   7.194  1.00  0.00     0.129 C 
HETATM   10  C14 UNL     1       9.217 -33.841   6.252  1.00  0.00     0.022 C 
HETATM   11  C15 UNL     1       9.078 -32.943   5.036  1.00  0.00     0.037 C 
HETATM   12  C16 UNL     1       7.596 -32.692   5.035  1.00  0.00     0.181 C 
ENDROOT
BRANCH  12  13
HETATM   13  C17 UNL     1       6.925 -33.947   4.618  1.00  0.00     0.241 C 
HETATM   14  O4  UNL     1       5.774 -34.229   5.041  1.00  0.00    -0.271 OA
HETATM   15  N4  UNL     1       7.546 -34.862   3.740  1.00  0.00    -0.345 N 
ATOM     16  H4  UNL     1       8.479 -34.666   3.377  1.00  0.00     0.163 HD
BRANCH  15  17
HETATM   17  C18 UNL     1       6.834 -36.128   3.339  1.00  0.00     0.186 C 
BRANCH  17  18
HETATM   18  C19 UNL     1       7.276 -36.341   1.941  1.00  0.00     0.041 C 
BRANCH  18  19
HETATM   19  C20 UNL     1       8.516 -35.726   1.434  1.00  0.00    -0.012 C 
HETATM   20  C21 UNL     1       8.387 -35.078   0.112  1.00  0.00     0.005 C 
HETATM   21  C22 UNL     1       9.627 -35.339  -0.765  1.00  0.00     0.000 C 
HETATM   22  C23 UNL     1      10.830 -35.102   0.123  1.00  0.00     0.000 C 
HETATM   23  C24 UNL     1      10.922 -36.299   1.045  1.00  0.00     0.000 C 
HETATM   24  C25 UNL     1       9.583 -36.828   1.435  1.00  0.00     0.005 C 
ENDBRANCH  18  19
ENDBRANCH  17  18
BRANCH  17  25
HETATM   25  C26 UNL     1       7.289 -37.187   4.254  1.00  0.00     0.196 C 
HETATM   26  O5  UNL     1       7.255 -38.370   3.828  1.00  0.00    -0.646 OA
HETATM   27  O6  UNL     1       7.748 -36.964   5.531  1.00  0.00    -0.646 OA
ENDBRANCH  17  25
ENDBRANCH  15  17
ENDBRANCH  12  13
BRANCH   1  28
HETATM   28  C7  UNL     1       3.742 -30.243   7.945  1.00  0.00     0.241 C 
HETATM   29  N1  UNL     1       3.486 -29.176   7.055  1.00  0.00    -0.351 N 
ATOM     30  H1  UNL     1       4.201 -28.453   6.968  1.00  0.00     0.163 HD
HETATM   31  O2  UNL     1       2.897 -31.134   8.075  1.00  0.00    -0.271 OA
BRANCH  29  32
HETATM   32  C6  UNL     1       2.293 -29.029   6.262  1.00  0.00     0.115 C 
HETATM   33  C2  UNL     1       1.588 -27.791   6.767  1.00  0.00    -0.038 C 
HETATM   34  C1  UNL     1       0.547 -27.754   7.574  1.00  0.00     0.019 C 
HETATM   35  C3  UNL     1       2.271 -26.604   6.194  1.00  0.00     0.148 C 
HETATM   36  C4  UNL     1       2.982 -27.128   4.945  1.00  0.00     0.039 C 
HETATM   37  C5  UNL     1       2.590 -28.589   4.846  1.00  0.00     0.033 C 
BRANCH  35  38
HETATM   38  O1  UNL     1       3.190 -26.066   7.093  1.00  0.00    -0.391 OA
ATOM     39  H1  UNL     1       3.232 -25.120   7.017  1.00  0.00     0.210 HD
ENDBRANCH  35  38
ENDBRANCH  29  32
ENDBRANCH   1  28
TORSDOF 8
ENDMDL
