MODEL 1
REMARK VINA RESULT: -6.901571173      0.000      0.000
REMARK  8 active torsions:
REMARK  status: ('A' for Active; 'I' for Inactive)
REMARK    1  A    between atoms: C2_2  and  C3_3 
REMARK    2  A    between atoms: C3_3  and  C4_4 
REMARK    3  A    between atoms: C4_4  and  C5_5 
REMARK    4  A    between atoms: C7_10  and  C8_11 
REMARK    5  A    between atoms: C12_18  and  C13_19 
REMARK    6  A    between atoms: C13_19  and  C14_20 
REMARK    7  A    between atoms: N4_26  and  C19_28 
REMARK    8  A    between atoms: C25_39  and  O4_40 
ROOT
HETATM    1  C5  UNL     1       3.910 -27.652   6.473  1.00  0.00     0.062 C 
HETATM    2  N1  UNL     1       5.035 -27.073   7.159  1.00  0.00    -0.325 N 
ATOM      3  H1  UNL     1       5.016 -26.054   7.153  1.00  0.00     0.169 HD
HETATM    4  C6  UNL     1       6.130 -27.579   7.820  1.00  0.00     0.245 C 
HETATM    5  O1  UNL     1       6.263 -27.217   9.049  1.00  0.00    -0.271 OA
HETATM    6  C7  UNL     1       7.216 -28.487   7.361  1.00  0.00     0.180 C 
HETATM    7  N2  UNL     1       7.966 -28.943   8.525  1.00  0.00    -0.342 N 
ATOM      8  H2  UNL     1       8.559 -28.238   8.965  1.00  0.00     0.163 HD
HETATM    9  C11 UNL     1       7.989 -30.197   9.120  1.00  0.00     0.269 C 
HETATM   10  O2  UNL     1       7.804 -30.236  10.363  1.00  0.00    -0.266 OA
HETATM   11  C12 UNL     1       8.210 -31.541   8.489  1.00  0.00     0.115 C 
HETATM   12  N3  UNL     1       7.101 -32.383   8.383  1.00  0.00    -0.182 N 
HETATM   13  C17 UNL     1       6.997 -33.126   7.097  1.00  0.00     0.175 C 
HETATM   14  C18 UNL     1       6.017 -32.659   9.304  1.00  0.00     0.683 C 
HETATM   15  N4  UNL     1       5.801 -33.927   9.494  1.00  0.00    -0.222 N 
ATOM     16  H4  UNL     1       6.422 -34.544   8.970  1.00  0.00     0.178 HD
HETATM   17  N5  UNL     1       5.192 -31.773  10.000  1.00  0.00    -0.158 N 
ATOM     18  H5  UNL     1       5.197 -31.905  11.012  1.00  0.00     0.187 HD
HETATM   19  C22 UNL     1       4.339 -30.715   9.551  1.00  0.00     0.258 C 
HETATM   20  O3  UNL     1       4.355 -29.682  10.287  1.00  0.00    -0.270 OA
HETATM   21  C23 UNL     1       3.468 -30.682   8.368  1.00  0.00     0.172 C 
HETATM   22  C24 UNL     1       2.941 -32.095   8.025  1.00  0.00     0.042 C 
HETATM   23  N6  UNL     1       4.064 -30.152   7.195  1.00  0.00    -0.356 N 
ATOM     24  H6  UNL     1       4.880 -30.693   6.905  1.00  0.00     0.162 HD
HETATM   25  C25 UNL     1       3.821 -29.090   6.345  1.00  0.00     0.159 C 
ENDROOT
BRANCH  15  26
HETATM   26  C19 UNL     1       4.865 -34.591  10.294  1.00  0.00     0.091 C 
HETATM   27  C20 UNL     1       5.445 -35.350  11.461  1.00  0.00     0.032 C 
HETATM   28  C21 UNL     1       4.104 -35.588   9.411  1.00  0.00     0.032 C 
ENDBRANCH  15  26
BRANCH  11  29
HETATM   29  C13 UNL     1       9.503 -32.050   9.012  1.00  0.00     0.013 C 
BRANCH  29  30
HETATM   30  C14 UNL     1       9.689 -33.237   9.815  1.00  0.00     0.002 C 
HETATM   31  C15 UNL     1       9.226 -33.324  11.213  1.00  0.00     0.013 C 
HETATM   32  C16 UNL     1      11.238 -33.396   9.904  1.00  0.00     0.013 C 
ENDBRANCH  29  30
ENDBRANCH  11  29
BRANCH   6  33
HETATM   33  C8  UNL     1       8.190 -27.691   6.458  1.00  0.00     0.009 C 
HETATM   34  C9  UNL     1       8.360 -26.295   6.930  1.00  0.00     0.012 C 
HETATM   35  C10 UNL     1       9.424 -28.495   6.302  1.00  0.00     0.012 C 
ENDBRANCH   6  33
BRANCH  25  36
HETATM   36  O4  UNL     1       3.422 -29.504   5.156  1.00  0.00    -0.345 OA
ATOM     37  H4  UNL     1       3.154 -30.415   5.131  1.00  0.00     0.219 HD
ENDBRANCH  25  36
BRANCH   1  38
HETATM   38  C4  UNL     1       2.619 -26.919   6.798  1.00  0.00     0.062 C 
BRANCH  38  39
HETATM   39  C3  UNL     1       2.116 -26.037   5.701  1.00  0.00     0.006 C 
BRANCH  39  40
HETATM   40  C2  UNL     1       0.581 -26.132   5.741  1.00  0.00    -0.004 C 
HETATM   41  C1  UNL     1       0.195 -27.008   4.551  1.00  0.00     0.005 C 
ENDBRANCH  39  40
ENDBRANCH  38  39
ENDBRANCH   1  38
TORSDOF 8
ENDMDL
MODEL 2
REMARK VINA RESULT: -6.780955975      2.119      6.744
REMARK  8 active torsions:
REMARK  status: ('A' for Active; 'I' for Inactive)
REMARK    1  A    between atoms: C2_2  and  C3_3 
REMARK    2  A    between atoms: C3_3  and  C4_4 
REMARK    3  A    between atoms: C4_4  and  C5_5 
REMARK    4  A    between atoms: C7_10  and  C8_11 
REMARK    5  A    between atoms: C12_18  and  C13_19 
REMARK    6  A    between atoms: C13_19  and  C14_20 
REMARK    7  A    between atoms: N4_26  and  C19_28 
REMARK    8  A    between atoms: C25_39  and  O4_40 
ROOT
HETATM    1  C5  UNL     1       7.529 -32.394  11.484  1.00  0.00     0.062 C 
HETATM    2  N1  UNL     1       8.497 -32.739  10.477  1.00  0.00    -0.325 N 
ATOM      3  H1  UNL     1       9.052 -33.557  10.729  1.00  0.00     0.169 HD
HETATM    4  C6  UNL     1       8.847 -32.219   9.252  1.00  0.00     0.245 C 
HETATM    5  O1  UNL     1       8.761 -33.027   8.252  1.00  0.00    -0.271 OA
HETATM    6  C7  UNL     1       9.322 -30.863   8.866  1.00  0.00     0.180 C 
HETATM    7  N2  UNL     1       9.275 -30.750   7.413  1.00  0.00    -0.342 N 
ATOM      8  H2  UNL     1       9.982 -31.286   6.910  1.00  0.00     0.163 HD
HETATM    9  C11 UNL     1       8.406 -30.016   6.615  1.00  0.00     0.269 C 
HETATM   10  O2  UNL     1       7.848 -30.632   5.673  1.00  0.00    -0.266 OA
HETATM   11  C12 UNL     1       8.028 -28.567   6.711  1.00  0.00     0.115 C 
HETATM   12  N3  UNL     1       6.741 -28.274   7.169  1.00  0.00    -0.182 N 
HETATM   13  C17 UNL     1       6.657 -27.126   8.112  1.00  0.00     0.175 C 
HETATM   14  C18 UNL     1       5.463 -28.900   6.896  1.00  0.00     0.683 C 
HETATM   15  N4  UNL     1       4.532 -28.060   6.553  1.00  0.00    -0.222 N 
ATOM     16  H4  UNL     1       4.831 -27.085   6.525  1.00  0.00     0.178 HD
HETATM   17  N5  UNL     1       5.101 -30.247   6.949  1.00  0.00    -0.158 N 
ATOM     18  H5  UNL     1       4.712 -30.609   6.078  1.00  0.00     0.187 HD
HETATM   19  C22 UNL     1       5.178 -31.212   8.003  1.00  0.00     0.258 C 
HETATM   20  O3  UNL     1       5.531 -32.372   7.627  1.00  0.00    -0.270 OA
HETATM   21  C23 UNL     1       4.902 -31.027   9.434  1.00  0.00     0.172 C 
HETATM   22  C24 UNL     1       3.821 -29.944   9.657  1.00  0.00     0.042 C 
HETATM   23  N6  UNL     1       6.027 -30.675  10.224  1.00  0.00    -0.356 N 
ATOM     24  H6  UNL     1       6.445 -29.795   9.921  1.00  0.00     0.162 HD
HETATM   25  C25 UNL     1       6.701 -31.222  11.300  1.00  0.00     0.159 C 
ENDROOT
BRANCH  15  26
HETATM   26  C19 UNL     1       3.190 -28.263   6.215  1.00  0.00     0.091 C 
HETATM   27  C20 UNL     1       2.795 -27.772   4.845  1.00  0.00     0.032 C 
HETATM   28  C21 UNL     1       2.321 -27.535   7.249  1.00  0.00     0.032 C 
ENDBRANCH  15  26
BRANCH  11  29
HETATM   29  C13 UNL     1       8.572 -27.904   5.499  1.00  0.00     0.013 C 
BRANCH  29  30
HETATM   30  C14 UNL     1       9.802 -27.150   5.420  1.00  0.00     0.002 C 
HETATM   31  C15 UNL     1      11.039 -27.584   6.097  1.00  0.00     0.013 C 
HETATM   32  C16 UNL     1       9.452 -25.781   6.080  1.00  0.00     0.013 C 
ENDBRANCH  29  30
ENDBRANCH  11  29
BRANCH   6  33
HETATM   33  C8  UNL     1      10.799 -30.703   9.300  1.00  0.00     0.009 C 
HETATM   34  C9  UNL     1      11.732 -31.258   8.288  1.00  0.00     0.012 C 
HETATM   35  C10 UNL     1      11.007 -29.291   9.694  1.00  0.00     0.012 C 
ENDBRANCH   6  33
BRANCH  25  36
HETATM   36  O4  UNL     1       6.542 -30.495  12.390  1.00  0.00    -0.345 OA
ATOM     37  H4  UNL     1       5.800 -29.903  12.358  1.00  0.00     0.219 HD
ENDBRANCH  25  36
BRANCH   1  38
HETATM   38  C4  UNL     1       6.843 -33.628  12.046  1.00  0.00     0.062 C 
BRANCH  38  39
HETATM   39  C3  UNL     1       5.964 -34.344  11.071  1.00  0.00     0.006 C 
BRANCH  39  40
HETATM   40  C2  UNL     1       6.083 -35.842  11.403  1.00  0.00    -0.004 C 
HETATM   41  C1  UNL     1       4.956 -36.132  12.392  1.00  0.00     0.005 C 
ENDBRANCH  39  40
ENDBRANCH  38  39
ENDBRANCH   1  38
TORSDOF 8
ENDMDL
MODEL 3
REMARK VINA RESULT: -6.723424821      4.396      7.167
REMARK  8 active torsions:
REMARK  status: ('A' for Active; 'I' for Inactive)
REMARK    1  A    between atoms: C2_2  and  C3_3 
REMARK    2  A    between atoms: C3_3  and  C4_4 
REMARK    3  A    between atoms: C4_4  and  C5_5 
REMARK    4  A    between atoms: C7_10  and  C8_11 
REMARK    5  A    between atoms: C12_18  and  C13_19 
REMARK    6  A    between atoms: C13_19  and  C14_20 
REMARK    7  A    between atoms: N4_26  and  C19_28 
REMARK    8  A    between atoms: C25_39  and  O4_40 
ROOT
HETATM    1  C5  UNL     1       9.449 -33.691   3.314  1.00  0.00     0.062 C 
HETATM    2  N1  UNL     1       8.196 -32.987   3.386  1.00  0.00    -0.325 N 
ATOM      3  H1  UNL     1       7.963 -32.509   2.517  1.00  0.00     0.169 HD
HETATM    4  C6  UNL     1       7.239 -32.812   4.359  1.00  0.00     0.245 C 
HETATM    5  O1  UNL     1       6.048 -33.194   4.053  1.00  0.00    -0.271 OA
HETATM    6  C7  UNL     1       7.334 -32.244   5.731  1.00  0.00     0.180 C 
HETATM    7  N2  UNL     1       6.103 -32.552   6.449  1.00  0.00    -0.342 N 
ATOM      8  H2  UNL     1       5.279 -32.031   6.146  1.00  0.00     0.163 HD
HETATM    9  C11 UNL     1       5.890 -33.452   7.486  1.00  0.00     0.269 C 
HETATM   10  O2  UNL     1       4.934 -34.256   7.348  1.00  0.00    -0.266 OA
HETATM   11  C12 UNL     1       6.645 -33.608   8.773  1.00  0.00     0.115 C 
HETATM   12  N3  UNL     1       7.463 -34.733   8.898  1.00  0.00    -0.182 N 
HETATM   13  C17 UNL     1       8.780 -34.483   9.544  1.00  0.00     0.175 C 
HETATM   14  C18 UNL     1       7.262 -36.112   8.498  1.00  0.00     0.683 C 
HETATM   15  N4  UNL     1       7.509 -36.971   9.442  1.00  0.00    -0.222 N 
ATOM     16  H4  UNL     1       7.809 -36.556  10.325  1.00  0.00     0.178 HD
HETATM   17  N5  UNL     1       6.849 -36.633   7.271  1.00  0.00    -0.158 N 
ATOM     18  H5  UNL     1       6.021 -37.226   7.326  1.00  0.00     0.187 HD
HETATM   19  C22 UNL     1       7.377 -36.485   5.949  1.00  0.00     0.258 C 
HETATM   20  O3  UNL     1       6.497 -36.367   5.043  1.00  0.00    -0.270 OA
HETATM   21  C23 UNL     1       8.784 -36.455   5.525  1.00  0.00     0.172 C 
HETATM   22  C24 UNL     1       9.665 -37.321   6.455  1.00  0.00     0.042 C 
HETATM   23  N6  UNL     1       9.368 -35.164   5.464  1.00  0.00    -0.356 N 
ATOM     24  H6  UNL     1       9.358 -34.698   6.372  1.00  0.00     0.162 HD
HETATM   25  C25 UNL     1       9.947 -34.376   4.487  1.00  0.00     0.159 C 
ENDROOT
BRANCH  15  26
HETATM   26  C19 UNL     1       7.435 -38.368   9.456  1.00  0.00     0.091 C 
HETATM   27  C20 UNL     1       6.279 -38.939  10.238  1.00  0.00     0.032 C 
HETATM   28  C21 UNL     1       8.734 -38.910  10.067  1.00  0.00     0.032 C 
ENDBRANCH  15  26
BRANCH  11  29
HETATM   29  C13 UNL     1       5.713 -33.223   9.863  1.00  0.00     0.013 C 
BRANCH  29  30
HETATM   30  C14 UNL     1       5.529 -31.892  10.395  1.00  0.00     0.002 C 
HETATM   31  C15 UNL     1       4.551 -30.943   9.829  1.00  0.00     0.013 C 
HETATM   32  C16 UNL     1       6.912 -31.203  10.183  1.00  0.00     0.013 C 
ENDBRANCH  29  30
ENDBRANCH  11  29
BRANCH   6  33
HETATM   33  C8  UNL     1       7.445 -30.703   5.633  1.00  0.00     0.009 C 
HETATM   34  C9  UNL     1       6.162 -30.037   5.970  1.00  0.00     0.012 C 
HETATM   35  C10 UNL     1       8.636 -30.282   6.405  1.00  0.00     0.012 C 
ENDBRANCH   6  33
BRANCH  25  36
HETATM   36  O4  UNL     1      11.243 -34.226   4.692  1.00  0.00    -0.345 OA
ATOM     37  H4  UNL     1      11.501 -33.342   4.924  1.00  0.00     0.219 HD
ENDBRANCH  25  36
BRANCH   1  38
HETATM   38  C4  UNL     1       9.607 -34.415   1.988  1.00  0.00     0.062 C 
BRANCH  38  39
HETATM   39  C3  UNL     1      10.743 -33.926   1.147  1.00  0.00     0.006 C 
BRANCH  39  40
HETATM   40  C2  UNL     1      11.290 -35.157   0.403  1.00  0.00    -0.004 C 
HETATM   41  C1  UNL     1      10.165 -35.607  -0.526  1.00  0.00     0.005 C 
ENDBRANCH  39  40
ENDBRANCH  38  39
ENDBRANCH   1  38
TORSDOF 8
ENDMDL
MODEL 4
REMARK VINA RESULT: -6.601613688      5.328      8.562
REMARK  8 active torsions:
REMARK  status: ('A' for Active; 'I' for Inactive)
REMARK    1  A    between atoms: C2_2  and  C3_3 
REMARK    2  A    between atoms: C3_3  and  C4_4 
REMARK    3  A    between atoms: C4_4  and  C5_5 
REMARK    4  A    between atoms: C7_10  and  C8_11 
REMARK    5  A    between atoms: C12_18  and  C13_19 
REMARK    6  A    between atoms: C13_19  and  C14_20 
REMARK    7  A    between atoms: N4_26  and  C19_28 
REMARK    8  A    between atoms: C25_39  and  O4_40 
ROOT
HETATM    1  C5  UNL     1       7.741 -37.001   1.720  1.00  0.00     0.062 C 
HETATM    2  N1  UNL     1       8.896 -37.322   2.517  1.00  0.00    -0.325 N 
ATOM      3  H1  UNL     1       9.542 -37.948   2.037  1.00  0.00     0.169 HD
HETATM    4  C6  UNL     1       9.328 -36.979   3.777  1.00  0.00     0.245 C 
HETATM    5  O1  UNL     1      10.482 -36.411   3.841  1.00  0.00    -0.271 OA
HETATM    6  C7  UNL     1       8.690 -37.151   5.109  1.00  0.00     0.180 C 
HETATM    7  N2  UNL     1       9.429 -36.361   6.086  1.00  0.00    -0.342 N 
ATOM      8  H2  UNL     1      10.351 -36.722   6.333  1.00  0.00     0.163 HD
HETATM    9  C11 UNL     1       9.059 -35.187   6.730  1.00  0.00     0.269 C 
HETATM   10  O2  UNL     1       9.884 -34.240   6.696  1.00  0.00    -0.266 OA
HETATM   11  C12 UNL     1       7.796 -34.875   7.477  1.00  0.00     0.115 C 
HETATM   12  N3  UNL     1       6.894 -34.000   6.867  1.00  0.00    -0.182 N 
HETATM   13  C17 UNL     1       5.462 -34.383   6.996  1.00  0.00     0.175 C 
HETATM   14  C18 UNL     1       7.106 -32.780   6.113  1.00  0.00     0.683 C 
HETATM   15  N4  UNL     1       6.373 -31.784   6.515  1.00  0.00    -0.222 N 
ATOM     16  H4  UNL     1       5.756 -32.001   7.297  1.00  0.00     0.178 HD
HETATM   17  N5  UNL     1       7.967 -32.532   5.043  1.00  0.00    -0.158 N 
ATOM     18  H5  UNL     1       8.615 -31.760   5.199  1.00  0.00     0.187 HD
HETATM   19  C22 UNL     1       8.105 -33.165   3.767  1.00  0.00     0.258 C 
HETATM   20  O3  UNL     1       9.306 -33.304   3.379  1.00  0.00    -0.270 OA
HETATM   21  C23 UNL     1       7.050 -33.660   2.873  1.00  0.00     0.172 C 
HETATM   22  C24 UNL     1       5.760 -32.820   3.015  1.00  0.00     0.042 C 
HETATM   23  N6  UNL     1       6.695 -35.022   3.055  1.00  0.00    -0.356 N 
ATOM     24  H6  UNL     1       6.346 -35.201   3.997  1.00  0.00     0.162 HD
HETATM   25  C25 UNL     1       6.702 -36.167   2.281  1.00  0.00     0.159 C 
ENDROOT
BRANCH  15  26
HETATM   26  C19 UNL     1       6.285 -30.465   6.057  1.00  0.00     0.091 C 
HETATM   27  C20 UNL     1       7.408 -29.560   6.498  1.00  0.00     0.032 C 
HETATM   28  C21 UNL     1       4.967 -29.869   6.569  1.00  0.00     0.032 C 
ENDBRANCH  15  26
BRANCH  11  29
HETATM   29  C13 UNL     1       8.175 -34.701   8.902  1.00  0.00     0.013 C 
BRANCH  29  30
HETATM   30  C14 UNL     1       7.954 -35.653   9.966  1.00  0.00     0.002 C 
HETATM   31  C15 UNL     1       7.806 -37.099   9.713  1.00  0.00     0.013 C 
HETATM   32  C16 UNL     1       6.588 -35.221  10.584  1.00  0.00     0.013 C 
ENDBRANCH  29  30
ENDBRANCH  11  29
BRANCH   6  33
HETATM   33  C8  UNL     1       8.798 -38.637   5.532  1.00  0.00     0.009 C 
HETATM   34  C9  UNL     1      10.103 -38.932   6.174  1.00  0.00     0.012 C 
HETATM   35  C10 UNL     1       7.583 -38.980   6.305  1.00  0.00     0.012 C 
ENDBRANCH   6  33
BRANCH  25  36
HETATM   36  O4  UNL     1       5.475 -36.572   2.008  1.00  0.00    -0.345 OA
ATOM     37  H4  UNL     1       5.304 -37.478   2.237  1.00  0.00     0.219 HD
ENDBRANCH  25  36
BRANCH   1  38
HETATM   38  C4  UNL     1       8.118 -36.733   0.272  1.00  0.00     0.062 C 
BRANCH  38  39
HETATM   39  C3  UNL     1       8.643 -35.358   0.014  1.00  0.00     0.006 C 
BRANCH  39  40
HETATM   40  C2  UNL     1       9.988 -35.539  -0.713  1.00  0.00    -0.004 C 
HETATM   41  C1  UNL     1      11.061 -35.310   0.349  1.00  0.00     0.005 C 
ENDBRANCH  39  40
ENDBRANCH  38  39
ENDBRANCH   1  38
TORSDOF 8
ENDMDL
MODEL 5
REMARK VINA RESULT: -6.556572288      6.107      9.212
REMARK  8 active torsions:
REMARK  status: ('A' for Active; 'I' for Inactive)
REMARK    1  A    between atoms: C2_2  and  C3_3 
REMARK    2  A    between atoms: C3_3  and  C4_4 
REMARK    3  A    between atoms: C4_4  and  C5_5 
REMARK    4  A    between atoms: C7_10  and  C8_11 
REMARK    5  A    between atoms: C12_18  and  C13_19 
REMARK    6  A    between atoms: C13_19  and  C14_20 
REMARK    7  A    between atoms: N4_26  and  C19_28 
REMARK    8  A    between atoms: C25_39  and  O4_40 
ROOT
HETATM    1  C5  UNL     1       8.448 -36.652   1.056  1.00  0.00     0.062 C 
HETATM    2  N1  UNL     1       9.518 -37.388   1.677  1.00  0.00    -0.325 N 
ATOM      3  H1  UNL     1      10.102 -37.878   1.000  1.00  0.00     0.169 HD
HETATM    4  C6  UNL     1       9.933 -37.582   2.974  1.00  0.00     0.245 C 
HETATM    5  O1  UNL     1      11.145 -37.232   3.235  1.00  0.00    -0.271 OA
HETATM    6  C7  UNL     1       9.221 -38.137   4.156  1.00  0.00     0.180 C 
HETATM    7  N2  UNL     1      10.008 -37.857   5.350  1.00  0.00    -0.342 N 
ATOM      8  H2  UNL     1      10.866 -38.401   5.444  1.00  0.00     0.163 HD
HETATM    9  C11 UNL     1       9.759 -36.956   6.377  1.00  0.00     0.269 C 
HETATM   10  O2  UNL     1      10.696 -36.178   6.686  1.00  0.00    -0.266 OA
HETATM   11  C12 UNL     1       8.512 -36.771   7.192  1.00  0.00     0.115 C 
HETATM   12  N3  UNL     1       7.754 -35.624   6.944  1.00  0.00    -0.182 N 
HETATM   13  C17 UNL     1       6.281 -35.836   6.931  1.00  0.00     0.175 C 
HETATM   14  C18 UNL     1       8.149 -34.254   6.684  1.00  0.00     0.683 C 
HETATM   15  N4  UNL     1       7.528 -33.382   7.422  1.00  0.00    -0.222 N 
ATOM     16  H4  UNL     1       6.855 -33.784   8.075  1.00  0.00     0.178 HD
HETATM   17  N5  UNL     1       9.080 -33.752   5.774  1.00  0.00    -0.158 N 
ATOM     18  H5  UNL     1       9.812 -33.181   6.197  1.00  0.00     0.187 HD
HETATM   19  C22 UNL     1       9.195 -33.895   4.354  1.00  0.00     0.258 C 
HETATM   20  O3  UNL     1      10.385 -34.042   3.937  1.00  0.00    -0.270 OA
HETATM   21  C23 UNL     1       8.127 -33.892   3.346  1.00  0.00     0.172 C 
HETATM   22  C24 UNL     1       6.946 -32.997   3.788  1.00  0.00     0.042 C 
HETATM   23  N6  UNL     1       7.598 -35.168   3.023  1.00  0.00    -0.356 N 
ATOM     24  H6  UNL     1       7.189 -35.627   3.837  1.00  0.00     0.162 HD
HETATM   25  C25 UNL     1       7.497 -35.947   1.886  1.00  0.00     0.159 C 
ENDROOT
BRANCH  15  26
HETATM   26  C19 UNL     1       7.625 -31.987   7.476  1.00  0.00     0.091 C 
HETATM   27  C20 UNL     1       8.054 -31.427   8.808  1.00  0.00     0.032 C 
HETATM   28  C21 UNL     1       6.249 -31.400   7.135  1.00  0.00     0.032 C 
ENDBRANCH  15  26
BRANCH  11  29
HETATM   29  C13 UNL     1       8.848 -37.173   8.581  1.00  0.00     0.013 C 
BRANCH  29  30
HETATM   30  C14 UNL     1       8.736 -38.504   9.134  1.00  0.00     0.002 C 
HETATM   31  C15 UNL     1       9.837 -39.484   9.060  1.00  0.00     0.013 C 
HETATM   32  C16 UNL     1       7.575 -39.156   8.321  1.00  0.00     0.013 C 
ENDBRANCH  29  30
ENDBRANCH  11  29
BRANCH   6  33
HETATM   33  C8  UNL     1       9.125 -39.676   4.010  1.00  0.00     0.009 C 
HETATM   34  C9  UNL     1       9.477 -40.370   5.273  1.00  0.00     0.012 C 
HETATM   35  C10 UNL     1       7.806 -39.996   3.419  1.00  0.00     0.012 C 
ENDBRANCH   6  33
BRANCH  25  36
HETATM   36  O4  UNL     1       6.243 -36.062   1.489  1.00  0.00    -0.345 OA
ATOM     37  H4  UNL     1       5.602 -35.926   2.177  1.00  0.00     0.219 HD
ENDBRANCH  25  36
BRANCH   1  38
HETATM   38  C4  UNL     1       8.919 -35.933  -0.197  1.00  0.00     0.062 C 
BRANCH  38  39
HETATM   39  C3  UNL     1      10.404 -35.819  -0.324  1.00  0.00     0.006 C 
BRANCH  39  40
HETATM   40  C2  UNL     1      10.804 -34.539   0.431  1.00  0.00    -0.004 C 
HETATM   41  C1  UNL     1      12.232 -34.780   0.915  1.00  0.00     0.005 C 
ENDBRANCH  39  40
ENDBRANCH  38  39
ENDBRANCH   1  38
TORSDOF 8
ENDMDL
