MODEL 1
REMARK VINA RESULT: -6.570921468      0.000      0.000
REMARK  5 active torsions:
REMARK  status: ('A' for Active; 'I' for Inactive)
REMARK    1  A    between atoms: N1_1  and  C1_5 
REMARK    2  A    between atoms: C1_5  and  C2_6 
REMARK    3  A    between atoms: C2_6  and  C3_7 
REMARK    4  A    between atoms: C3_7  and  O1_8 
REMARK    5  A    between atoms: N2_12  and  C6_13 
ROOT
HETATM    1  C2  UNL     1      -9.866  13.087  40.829  1.00  0.00     0.007 C 
HETATM    2  C4  UNL     1     -10.842  13.747  39.880  1.00  0.00     0.033 C 
HETATM    3  C5  UNL     1     -12.253  13.749  40.383  1.00  0.00     0.118 C 
HETATM    4  N2  UNL     1     -12.355  14.206  41.726  1.00  0.00    -0.404 N 
HETATM    5  C16 UNL     1     -11.490  13.605  42.668  1.00  0.00     0.118 C 
HETATM    6  C17 UNL     1     -10.067  13.592  42.214  1.00  0.00     0.033 C 
ENDROOT
BRANCH   4   7
HETATM    7  C6  UNL     1     -13.653  14.561  42.158  1.00  0.00     0.029 C 
HETATM    8  C7  UNL     1     -13.645  14.990  43.614  1.00  0.00     0.035 C 
HETATM    9  C8  UNL     1     -15.024  15.437  44.062  1.00  0.00    -0.012 C 
HETATM   10  C9  UNL     1     -15.441  16.654  43.259  1.00  0.00     0.009 C 
HETATM   11  C13 UNL     1     -16.074  14.385  43.868  1.00  0.00     0.009 C 
HETATM   12  C10 UNL     1     -15.430  16.267  41.807  1.00  0.00    -0.012 C 
HETATM   13  C11 UNL     1     -16.414  15.162  41.567  1.00  0.00     0.009 C 
HETATM   14  C15 UNL     1     -14.058  15.824  41.384  1.00  0.00     0.035 C 
HETATM   15  C12 UNL     1     -16.036  13.972  42.405  1.00  0.00    -0.012 C 
HETATM   16  C14 UNL     1     -14.684  13.491  41.997  1.00  0.00     0.035 C 
ENDBRANCH   4   7
BRANCH   1  17
HETATM   17  C1  UNL     1      -8.480  13.436  40.327  1.00  0.00     0.241 C 
BRANCH  17  18
HETATM   18  N1  UNL     1      -7.688  14.154  41.274  1.00  0.00    -0.079 N 
ATOM     19  H13 UNL     1      -8.284  14.663  41.927  1.00  0.00     0.274 HD
ATOM     20  H12 UNL     1      -7.233  13.513  41.923  1.00  0.00     0.274 HD
ATOM     21  H11 UNL     1      -7.005  14.780  40.848  1.00  0.00     0.274 HD
ENDBRANCH  17  18
ENDBRANCH   1  17
BRANCH   1  22
HETATM   22  C3  UNL     1     -10.034  11.578  40.811  1.00  0.00     0.175 C 
BRANCH  22  23
HETATM   23  O1  UNL     1      -9.347  10.974  39.779  1.00  0.00    -0.400 OA
ATOM     24  H1  UNL     1      -8.883  10.192  40.052  1.00  0.00     0.209 HD
ENDBRANCH  22  23
ENDBRANCH   1  22
TORSDOF 5
ENDMDL
MODEL 2
REMARK VINA RESULT: -6.511760868      3.629      4.812
REMARK  5 active torsions:
REMARK  status: ('A' for Active; 'I' for Inactive)
REMARK    1  A    between atoms: N1_1  and  C1_5 
REMARK    2  A    between atoms: C1_5  and  C2_6 
REMARK    3  A    between atoms: C2_6  and  C3_7 
REMARK    4  A    between atoms: C3_7  and  O1_8 
REMARK    5  A    between atoms: N2_12  and  C6_13 
ROOT
HETATM    1  C2  UNL     1     -12.866  16.287  43.944  1.00  0.00     0.007 C 
HETATM    2  C4  UNL     1     -13.668  15.332  44.799  1.00  0.00     0.033 C 
HETATM    3  C5  UNL     1     -14.866  14.767  44.099  1.00  0.00     0.118 C 
HETATM    4  N2  UNL     1     -14.557  14.263  42.805  1.00  0.00    -0.404 N 
HETATM    5  C16 UNL     1     -13.835  15.123  41.946  1.00  0.00     0.118 C 
HETATM    6  C17 UNL     1     -12.622  15.700  42.599  1.00  0.00     0.033 C 
ENDROOT
BRANCH   4   7
HETATM    7  C6  UNL     1     -15.532  13.420  42.224  1.00  0.00     0.029 C 
HETATM    8  C7  UNL     1     -16.469  12.863  43.279  1.00  0.00     0.035 C 
HETATM    9  C8  UNL     1     -17.559  12.013  42.652  1.00  0.00    -0.012 C 
HETATM   10  C9  UNL     1     -18.406  12.879  41.741  1.00  0.00     0.009 C 
HETATM   11  C13 UNL     1     -17.020  10.882  41.828  1.00  0.00     0.009 C 
HETATM   12  C10 UNL     1     -17.498  13.471  40.700  1.00  0.00    -0.012 C 
HETATM   13  C11 UNL     1     -16.871  12.376  39.890  1.00  0.00     0.009 C 
HETATM   14  C15 UNL     1     -16.425  14.304  41.341  1.00  0.00     0.035 C 
HETATM   15  C12 UNL     1     -16.075  11.482  40.799  1.00  0.00    -0.012 C 
HETATM   16  C14 UNL     1     -14.984  12.273  41.438  1.00  0.00     0.035 C 
ENDBRANCH   4   7
BRANCH   1  17
HETATM   17  C1  UNL     1     -11.559  16.519  44.673  1.00  0.00     0.241 C 
BRANCH  17  18
HETATM   18  N1  UNL     1     -11.717  16.781  46.069  1.00  0.00    -0.079 N 
ATOM     19  H13 UNL     1     -10.823  16.701  46.553  1.00  0.00     0.274 HD
ATOM     20  H12 UNL     1     -11.912  17.768  46.229  1.00  0.00     0.274 HD
ATOM     21  H11 UNL     1     -12.422  16.198  46.518  1.00  0.00     0.274 HD
ENDBRANCH  17  18
ENDBRANCH   1  17
BRANCH   1  22
HETATM   22  C3  UNL     1     -13.591  17.613  43.793  1.00  0.00     0.175 C 
BRANCH  22  23
HETATM   23  O1  UNL     1     -12.737  18.695  43.809  1.00  0.00    -0.400 OA
ATOM     24  H1  UNL     1     -12.956  19.349  43.155  1.00  0.00     0.209 HD
ENDBRANCH  22  23
ENDBRANCH   1  22
TORSDOF 5
ENDMDL
MODEL 3
REMARK VINA RESULT: -6.502526726      3.637      4.976
REMARK  5 active torsions:
REMARK  status: ('A' for Active; 'I' for Inactive)
REMARK    1  A    between atoms: N1_1  and  C1_5 
REMARK    2  A    between atoms: C1_5  and  C2_6 
REMARK    3  A    between atoms: C2_6  and  C3_7 
REMARK    4  A    between atoms: C3_7  and  O1_8 
REMARK    5  A    between atoms: N2_12  and  C6_13 
ROOT
HETATM    1  C2  UNL     1     -12.874  16.287  43.946  1.00  0.00     0.007 C 
HETATM    2  C4  UNL     1     -13.679  15.354  44.823  1.00  0.00     0.033 C 
HETATM    3  C5  UNL     1     -14.915  14.830  44.160  1.00  0.00     0.118 C 
HETATM    4  N2  UNL     1     -14.663  14.321  42.856  1.00  0.00    -0.404 N 
HETATM    5  C16 UNL     1     -13.941  15.160  41.977  1.00  0.00     0.118 C 
HETATM    6  C17 UNL     1     -12.691  15.697  42.592  1.00  0.00     0.033 C 
ENDROOT
BRANCH   4   7
HETATM    7  C6  UNL     1     -15.681  13.511  42.303  1.00  0.00     0.029 C 
HETATM    8  C7  UNL     1     -16.506  14.286  41.293  1.00  0.00     0.035 C 
HETATM    9  C8  UNL     1     -17.556  13.402  40.647  1.00  0.00    -0.012 C 
HETATM   10  C9  UNL     1     -16.869  12.290  39.877  1.00  0.00     0.009 C 
HETATM   11  C13 UNL     1     -18.477  12.760  41.642  1.00  0.00     0.009 C 
HETATM   12  C10 UNL     1     -16.019  11.521  40.848  1.00  0.00    -0.012 C 
HETATM   13  C11 UNL     1     -16.883  10.916  41.913  1.00  0.00     0.009 C 
HETATM   14  C15 UNL     1     -14.990  12.415  41.479  1.00  0.00     0.035 C 
HETATM   15  C12 UNL     1     -17.610  12.012  42.642  1.00  0.00    -0.012 C 
HETATM   16  C14 UNL     1     -16.617  12.909  43.301  1.00  0.00     0.035 C 
ENDBRANCH   4   7
BRANCH   1  17
HETATM   17  C1  UNL     1     -11.538  16.475  44.635  1.00  0.00     0.241 C 
BRANCH  17  18
HETATM   18  N1  UNL     1     -11.644  16.742  46.034  1.00  0.00    -0.079 N 
ATOM     19  H13 UNL     1     -11.609  17.746  46.212  1.00  0.00     0.274 HD
ATOM     20  H12 UNL     1     -12.587  16.542  46.367  1.00  0.00     0.274 HD
ATOM     21  H11 UNL     1     -10.952  16.252  46.599  1.00  0.00     0.274 HD
ENDBRANCH  17  18
ENDBRANCH   1  17
BRANCH   1  22
HETATM   22  C3  UNL     1     -13.561  17.635  43.821  1.00  0.00     0.175 C 
BRANCH  22  23
HETATM   23  O1  UNL     1     -12.675  18.692  43.836  1.00  0.00    -0.400 OA
ATOM     24  H1  UNL     1     -13.074  19.505  44.122  1.00  0.00     0.209 HD
ENDBRANCH  22  23
ENDBRANCH   1  22
TORSDOF 5
ENDMDL
MODEL 4
REMARK VINA RESULT: -6.443414142      3.628      5.009
REMARK  5 active torsions:
REMARK  status: ('A' for Active; 'I' for Inactive)
REMARK    1  A    between atoms: N1_1  and  C1_5 
REMARK    2  A    between atoms: C1_5  and  C2_6 
REMARK    3  A    between atoms: C2_6  and  C3_7 
REMARK    4  A    between atoms: C3_7  and  O1_8 
REMARK    5  A    between atoms: N2_12  and  C6_13 
ROOT
HETATM    1  C2  UNL     1     -12.843  16.268  43.955  1.00  0.00     0.007 C 
HETATM    2  C4  UNL     1     -13.656  15.297  44.782  1.00  0.00     0.033 C 
HETATM    3  C5  UNL     1     -14.885  14.802  44.083  1.00  0.00     0.118 C 
HETATM    4  N2  UNL     1     -14.619  14.352  42.760  1.00  0.00    -0.404 N 
HETATM    5  C16 UNL     1     -13.889  15.230  41.927  1.00  0.00     0.118 C 
HETATM    6  C17 UNL     1     -12.645  15.739  42.579  1.00  0.00     0.033 C 
ENDROOT
BRANCH   4   7
HETATM    7  C6  UNL     1     -15.631  13.567  42.162  1.00  0.00     0.029 C 
HETATM    8  C7  UNL     1     -15.036  12.384  41.421  1.00  0.00     0.035 C 
HETATM    9  C8  UNL     1     -16.122  11.500  40.836  1.00  0.00    -0.012 C 
HETATM   10  C9  UNL     1     -16.958  10.923  41.962  1.00  0.00     0.009 C 
HETATM   11  C13 UNL     1     -17.048  12.238  39.917  1.00  0.00     0.009 C 
HETATM   12  C10 UNL     1     -17.538  12.075  42.734  1.00  0.00    -0.012 C 
HETATM   13  C11 UNL     1     -18.419  12.894  41.841  1.00  0.00     0.009 C 
HETATM   14  C15 UNL     1     -16.448  12.939  43.301  1.00  0.00     0.035 C 
HETATM   15  C12 UNL     1     -17.605  13.422  40.692  1.00  0.00    -0.012 C 
HETATM   16  C14 UNL     1     -16.524  14.304  41.217  1.00  0.00     0.035 C 
ENDBRANCH   4   7
BRANCH   1  17
HETATM   17  C1  UNL     1     -11.514  16.426  44.665  1.00  0.00     0.241 C 
BRANCH  17  18
HETATM   18  N1  UNL     1     -11.637  16.786  46.042  1.00  0.00    -0.079 N 
ATOM     19  H13 UNL     1     -11.333  17.748  46.191  1.00  0.00     0.274 HD
ATOM     20  H12 UNL     1     -12.618  16.874  46.305  1.00  0.00     0.274 HD
ATOM     21  H11 UNL     1     -11.151  16.153  46.677  1.00  0.00     0.274 HD
ENDBRANCH  17  18
ENDBRANCH   1  17
BRANCH   1  22
HETATM   22  C3  UNL     1     -13.530  17.621  43.883  1.00  0.00     0.175 C 
BRANCH  22  23
HETATM   23  O1  UNL     1     -12.640  18.670  43.802  1.00  0.00    -0.400 OA
ATOM     24  H1  UNL     1     -11.992  18.554  43.117  1.00  0.00     0.209 HD
ENDBRANCH  22  23
ENDBRANCH   1  22
TORSDOF 5
ENDMDL
MODEL 5
REMARK VINA RESULT: -6.365080804      3.861      4.991
REMARK  5 active torsions:
REMARK  status: ('A' for Active; 'I' for Inactive)
REMARK    1  A    between atoms: N1_1  and  C1_5 
REMARK    2  A    between atoms: C1_5  and  C2_6 
REMARK    3  A    between atoms: C2_6  and  C3_7 
REMARK    4  A    between atoms: C3_7  and  O1_8 
REMARK    5  A    between atoms: N2_12  and  C6_13 
ROOT
HETATM    1  C2  UNL     1     -13.625  17.103  43.895  1.00  0.00     0.007 C 
HETATM    2  C4  UNL     1     -13.932  17.007  42.417  1.00  0.00     0.033 C 
HETATM    3  C5  UNL     1     -14.294  15.623  41.972  1.00  0.00     0.118 C 
HETATM    4  N2  UNL     1     -15.274  15.018  42.806  1.00  0.00    -0.404 N 
HETATM    5  C16 UNL     1     -15.028  15.047  44.197  1.00  0.00     0.118 C 
HETATM    6  C17 UNL     1     -14.676  16.413  44.690  1.00  0.00     0.033 C 
ENDROOT
BRANCH   4   7
HETATM    7  C6  UNL     1     -15.913  13.874  42.275  1.00  0.00     0.029 C 
HETATM    8  C7  UNL     1     -16.846  13.249  43.294  1.00  0.00     0.035 C 
HETATM    9  C8  UNL     1     -17.586  12.062  42.706  1.00  0.00    -0.012 C 
HETATM   10  C9  UNL     1     -18.459  12.534  41.559  1.00  0.00     0.009 C 
HETATM   11  C13 UNL     1     -16.668  11.005  42.169  1.00  0.00     0.009 C 
HETATM   12  C10 UNL     1     -17.563  13.187  40.544  1.00  0.00    -0.012 C 
HETATM   13  C11 UNL     1     -16.571  12.190  40.025  1.00  0.00     0.009 C 
HETATM   14  C15 UNL     1     -16.838  14.356  41.147  1.00  0.00     0.035 C 
HETATM   15  C12 UNL     1     -15.741  11.677  41.169  1.00  0.00    -0.012 C 
HETATM   16  C14 UNL     1     -14.987  12.810  41.779  1.00  0.00     0.035 C 
ENDBRANCH   4   7
BRANCH   1  17
HETATM   17  C1  UNL     1     -13.583  18.580  44.228  1.00  0.00     0.241 C 
BRANCH  17  18
HETATM   18  N1  UNL     1     -12.344  19.210  43.896  1.00  0.00    -0.079 N 
ATOM     19  H13 UNL     1     -11.767  19.328  44.729  1.00  0.00     0.274 HD
ATOM     20  H12 UNL     1     -11.749  18.575  43.364  1.00  0.00     0.274 HD
ATOM     21  H11 UNL     1     -12.453  20.097  43.405  1.00  0.00     0.274 HD
ENDBRANCH  17  18
ENDBRANCH   1  17
BRANCH   1  22
HETATM   22  C3  UNL     1     -12.271  16.487  44.204  1.00  0.00     0.175 C 
BRANCH  22  23
HETATM   23  O1  UNL     1     -12.011  16.415  45.556  1.00  0.00    -0.400 OA
ATOM     24  H1  UNL     1     -11.448  17.116  45.862  1.00  0.00     0.209 HD
ENDBRANCH  22  23
ENDBRANCH   1  22
TORSDOF 5
ENDMDL
