MODEL 1
REMARK VINA RESULT: -8.373839944      0.000      0.000
REMARK  3 active torsions:
REMARK  status: ('A' for Active; 'I' for Inactive)
REMARK    1  A    between atoms: C9_9  and  C10_10 
REMARK    2  A    between atoms: C10_10  and  N1_11 
REMARK    3  A    between atoms: N1_11  and  N2_13 
ROOT
HETATM    1  C10 UNL     1     -14.654  11.002  40.273  1.00  0.00     0.149 C 
ENDROOT
BRANCH   1   2
HETATM    2  C9  UNL     1     -15.624  11.934  40.957  1.00  0.00    -0.022 C 
HETATM    3  C8  UNL     1     -16.451  12.696  39.975  1.00  0.00     0.015 C 
HETATM    4  C6  UNL     1     -17.336  13.658  40.742  1.00  0.00    -0.013 C 
HETATM    5  C5  UNL     1     -18.308  12.809  41.543  1.00  0.00     0.009 C 
HETATM    6  C7  UNL     1     -16.542  14.588  41.606  1.00  0.00     0.014 C 
HETATM    7  C4  UNL     1     -17.500  12.046  42.568  1.00  0.00    -0.013 C 
HETATM    8  C3  UNL     1     -16.744  12.998  43.453  1.00  0.00     0.014 C 
HETATM    9  C16 UNL     1     -16.530  11.142  41.878  1.00  0.00     0.015 C 
HETATM   10  C2  UNL     1     -15.762  13.768  42.629  1.00  0.00    -0.043 C 
HETATM   11  C1  UNL     1     -14.893  14.668  43.485  1.00  0.00     0.015 C 
HETATM   12  C17 UNL     1     -14.827  12.875  41.832  1.00  0.00     0.020 C 
ENDBRANCH   1   2
BRANCH   1  13
HETATM   13  N1  UNL     1     -13.628  11.738  39.577  1.00  0.00    -0.334 N 
ATOM     14  H1  UNL     1     -13.875  12.523  38.974  1.00  0.00     0.180 HD
BRANCH  13  15
HETATM   15  N2  UNL     1     -12.304  11.365  39.738  1.00  0.00    -0.294 N 
HETATM   16  C11 UNL     1     -11.417  12.198  40.134  1.00  0.00     0.091 C 
HETATM   17  C12 UNL     1     -10.016  11.725  40.283  1.00  0.00     0.077 C 
HETATM   18  N3  UNL     1     -11.773  13.529  40.415  1.00  0.00    -0.379 N 
HETATM   19  C13 UNL     1      -9.184  13.011  40.404  1.00  0.00     0.009 C 
HETATM   20  C14 UNL     1      -9.716  13.699  41.641  1.00  0.00     0.020 C 
HETATM   21  C15 UNL     1     -11.071  14.282  41.430  1.00  0.00     0.121 C 
ATOM     22  H3  UNL     1     -12.535  13.967  39.897  1.00  0.00     0.160 HD
ATOM     23  H2  UNL     1     -12.029  10.404  39.537  1.00  0.00     0.188 HD
ENDBRANCH  13  15
ENDBRANCH   1  13
TORSDOF 3
ENDMDL
MODEL 2
REMARK VINA RESULT: -7.936091470      1.100      3.110
REMARK  3 active torsions:
REMARK  status: ('A' for Active; 'I' for Inactive)
REMARK    1  A    between atoms: C9_9  and  C10_10 
REMARK    2  A    between atoms: C10_10  and  N1_11 
REMARK    3  A    between atoms: N1_11  and  N2_13 
ROOT
HETATM    1  C10 UNL     1     -14.531  14.722  43.227  1.00  0.00     0.149 C 
ENDROOT
BRANCH   1   2
HETATM    2  C9  UNL     1     -15.608  13.862  42.613  1.00  0.00    -0.022 C 
HETATM    3  C8  UNL     1     -16.508  13.272  43.648  1.00  0.00     0.015 C 
HETATM    4  C6  UNL     1     -17.504  12.367  42.953  1.00  0.00    -0.013 C 
HETATM    5  C5  UNL     1     -18.379  13.262  42.093  1.00  0.00     0.009 C 
HETATM    6  C7  UNL     1     -16.830  11.291  42.158  1.00  0.00     0.014 C 
HETATM    7  C4  UNL     1     -17.499  13.851  41.015  1.00  0.00    -0.013 C 
HETATM    8  C3  UNL     1     -16.864  12.757  40.201  1.00  0.00     0.014 C 
HETATM    9  C16 UNL     1     -16.425  14.684  41.637  1.00  0.00     0.015 C 
HETATM   10  C2  UNL     1     -15.970  11.940  41.078  1.00  0.00    -0.043 C 
HETATM   11  C1  UNL     1     -15.218  10.887  40.289  1.00  0.00     0.015 C 
HETATM   12  C17 UNL     1     -14.932  12.775  41.808  1.00  0.00     0.020 C 
ENDBRANCH   1   2
BRANCH   1  13
HETATM   13  N1  UNL     1     -13.590  15.169  42.230  1.00  0.00    -0.334 N 
ATOM     14  H1  UNL     1     -13.906  15.397  41.287  1.00  0.00     0.180 HD
BRANCH  13  15
HETATM   15  N2  UNL     1     -12.252  15.286  42.569  1.00  0.00    -0.294 N 
HETATM   16  C11 UNL     1     -11.362  14.525  42.056  1.00  0.00     0.091 C 
HETATM   17  C12 UNL     1      -9.947  14.708  42.469  1.00  0.00     0.077 C 
HETATM   18  N3  UNL     1     -11.729  13.537  41.125  1.00  0.00    -0.379 N 
HETATM   19  C13 UNL     1      -9.230  13.444  41.973  1.00  0.00     0.009 C 
HETATM   20  C14 UNL     1      -9.420  13.457  40.472  1.00  0.00     0.020 C 
HETATM   21  C15 UNL     1     -10.820  13.140  40.073  1.00  0.00     0.121 C 
ATOM     22  H3  UNL     1     -12.646  13.095  41.193  1.00  0.00     0.160 HD
ATOM     23  H2  UNL     1     -11.970  15.996  43.245  1.00  0.00     0.188 HD
ENDBRANCH  13  15
ENDBRANCH   1  13
TORSDOF 3
ENDMDL
MODEL 3
REMARK VINA RESULT: -7.706858178      3.423      5.053
REMARK  3 active torsions:
REMARK  status: ('A' for Active; 'I' for Inactive)
REMARK    1  A    between atoms: C9_9  and  C10_10 
REMARK    2  A    between atoms: C10_10  and  N1_11 
REMARK    3  A    between atoms: N1_11  and  N2_13 
ROOT
HETATM    1  C10 UNL     1     -12.043  14.250  42.836  1.00  0.00     0.149 C 
ENDROOT
BRANCH   1   2
HETATM    2  C9  UNL     1     -13.510  14.599  42.820  1.00  0.00    -0.022 C 
HETATM    3  C8  UNL     1     -14.011  14.966  44.179  1.00  0.00     0.015 C 
HETATM    4  C6  UNL     1     -15.501  15.224  44.083  1.00  0.00    -0.013 C 
HETATM    5  C5  UNL     1     -15.674  16.461  43.221  1.00  0.00     0.009 C 
HETATM    6  C7  UNL     1     -16.244  14.041  43.544  1.00  0.00     0.014 C 
HETATM    7  C4  UNL     1     -15.203  16.109  41.828  1.00  0.00    -0.013 C 
HETATM    8  C3  UNL     1     -15.989  14.947  41.287  1.00  0.00     0.014 C 
HETATM    9  C16 UNL     1     -13.753  15.747  41.861  1.00  0.00     0.015 C 
HETATM   10  C2  UNL     1     -15.741  13.741  42.135  1.00  0.00    -0.043 C 
HETATM   11  C1  UNL     1     -16.423  12.509  41.574  1.00  0.00     0.015 C 
HETATM   12  C17 UNL     1     -14.266  13.408  42.274  1.00  0.00     0.020 C 
ENDBRANCH   1   2
BRANCH   1  13
HETATM   13  N1  UNL     1     -11.444  14.574  44.107  1.00  0.00    -0.334 N 
ATOM     14  H1  UNL     1     -11.870  14.252  44.975  1.00  0.00     0.180 HD
BRANCH  13  15
HETATM   15  N2  UNL     1     -10.282  15.328  44.132  1.00  0.00    -0.294 N 
HETATM   16  C11 UNL     1     -10.286  16.554  44.498  1.00  0.00     0.091 C 
HETATM   17  C12 UNL     1      -9.001  17.299  44.499  1.00  0.00     0.077 C 
HETATM   18  N3  UNL     1     -11.489  17.171  44.885  1.00  0.00    -0.379 N 
HETATM   19  C13 UNL     1      -9.408  18.774  44.622  1.00  0.00     0.009 C 
HETATM   20  C14 UNL     1     -10.149  18.861  45.938  1.00  0.00     0.020 C 
HETATM   21  C15 UNL     1     -11.494  18.221  45.877  1.00  0.00     0.121 C 
ATOM     22  H3  UNL     1     -12.368  16.873  44.460  1.00  0.00     0.160 HD
ATOM     23  H2  UNL     1      -9.401  14.895  43.852  1.00  0.00     0.188 HD
ENDBRANCH  13  15
ENDBRANCH   1  13
TORSDOF 3
ENDMDL
MODEL 4
REMARK VINA RESULT: -7.584104601      3.304      5.004
REMARK  3 active torsions:
REMARK  status: ('A' for Active; 'I' for Inactive)
REMARK    1  A    between atoms: C9_9  and  C10_10 
REMARK    2  A    between atoms: C10_10  and  N1_11 
REMARK    3  A    between atoms: N1_11  and  N2_13 
ROOT
HETATM    1  C10 UNL     1     -12.074  14.520  42.868  1.00  0.00     0.149 C 
ENDROOT
BRANCH   1   2
HETATM    2  C9  UNL     1     -13.569  14.719  42.832  1.00  0.00    -0.022 C 
HETATM    3  C8  UNL     1     -14.120  15.052  44.180  1.00  0.00     0.015 C 
HETATM    4  C6  UNL     1     -15.627  15.156  44.065  1.00  0.00    -0.013 C 
HETATM    5  C5  UNL     1     -15.914  16.358  43.184  1.00  0.00     0.009 C 
HETATM    6  C7  UNL     1     -16.241  13.897  43.535  1.00  0.00     0.014 C 
HETATM    7  C4  UNL     1     -15.394  16.037  41.801  1.00  0.00    -0.013 C 
HETATM    8  C3  UNL     1     -16.052  14.795  41.268  1.00  0.00     0.014 C 
HETATM    9  C16 UNL     1     -13.915  15.824  41.855  1.00  0.00     0.015 C 
HETATM   10  C2  UNL     1     -15.693  13.631  42.136  1.00  0.00    -0.043 C 
HETATM   11  C1  UNL     1     -16.241  12.329  41.586  1.00  0.00     0.015 C 
HETATM   12  C17 UNL     1     -14.194  13.450  42.295  1.00  0.00     0.020 C 
ENDBRANCH   1   2
BRANCH   1  13
HETATM   13  N1  UNL     1     -11.515  14.994  44.110  1.00  0.00    -0.334 N 
ATOM     14  H1  UNL     1     -11.327  14.343  44.872  1.00  0.00     0.180 HD
BRANCH  13  15
HETATM   15  N2  UNL     1     -11.237  16.343  44.253  1.00  0.00    -0.294 N 
HETATM   16  C11 UNL     1     -10.052  16.762  44.490  1.00  0.00     0.091 C 
HETATM   17  C12 UNL     1      -9.831  18.224  44.632  1.00  0.00     0.077 C 
HETATM   18  N3  UNL     1      -8.992  15.847  44.615  1.00  0.00    -0.379 N 
HETATM   19  C13 UNL     1      -8.433  18.346  45.258  1.00  0.00     0.009 C 
HETATM   20  C14 UNL     1      -7.505  17.697  44.255  1.00  0.00     0.020 C 
HETATM   21  C15 UNL     1      -7.650  16.214  44.222  1.00  0.00     0.121 C 
ATOM     22  H3  UNL     1      -9.172  14.914  44.986  1.00  0.00     0.160 HD
ATOM     23  H2  UNL     1     -11.996  17.020  44.168  1.00  0.00     0.188 HD
ENDBRANCH  13  15
ENDBRANCH   1  13
TORSDOF 3
ENDMDL
MODEL 5
REMARK VINA RESULT: -7.405409447      3.282      4.882
REMARK  3 active torsions:
REMARK  status: ('A' for Active; 'I' for Inactive)
REMARK    1  A    between atoms: C9_9  and  C10_10 
REMARK    2  A    between atoms: C10_10  and  N1_11 
REMARK    3  A    between atoms: N1_11  and  N2_13 
ROOT
HETATM    1  C10 UNL     1     -14.184  14.706  43.026  1.00  0.00     0.149 C 
ENDROOT
BRANCH   1   2
HETATM    2  C9  UNL     1     -15.380  13.906  42.570  1.00  0.00    -0.022 C 
HETATM    3  C8  UNL     1     -16.194  13.414  43.722  1.00  0.00     0.015 C 
HETATM    4  C6  UNL     1     -17.321  12.561  43.178  1.00  0.00    -0.013 C 
HETATM    5  C5  UNL     1     -18.226  13.490  42.388  1.00  0.00     0.009 C 
HETATM    6  C7  UNL     1     -16.817  11.417  42.354  1.00  0.00     0.014 C 
HETATM    7  C4  UNL     1     -17.437  13.982  41.196  1.00  0.00    -0.013 C 
HETATM    8  C3  UNL     1     -16.976  12.821  40.358  1.00  0.00     0.014 C 
HETATM    9  C16 UNL     1     -16.246  14.755  41.662  1.00  0.00     0.015 C 
HETATM   10  C2  UNL     1     -16.044  11.970  41.161  1.00  0.00    -0.043 C 
HETATM   11  C1  UNL     1     -15.460  10.842  40.333  1.00  0.00     0.015 C 
HETATM   12  C17 UNL     1     -14.875  12.749  41.737  1.00  0.00     0.020 C 
ENDBRANCH   1   2
BRANCH   1  13
HETATM   13  N1  UNL     1     -14.450  15.373  44.276  1.00  0.00    -0.334 N 
ATOM     14  H1  UNL     1     -14.817  14.852  45.072  1.00  0.00     0.180 HD
BRANCH  13  15
HETATM   15  N2  UNL     1     -14.200  16.732  44.381  1.00  0.00    -0.294 N 
HETATM   16  C11 UNL     1     -13.050  17.178  44.721  1.00  0.00     0.091 C 
HETATM   17  C12 UNL     1     -12.858  18.648  44.813  1.00  0.00     0.077 C 
HETATM   18  N3  UNL     1     -12.002  16.284  45.002  1.00  0.00    -0.379 N 
HETATM   19  C13 UNL     1     -11.536  18.819  45.576  1.00  0.00     0.009 C 
HETATM   20  C14 UNL     1     -10.500  18.135  44.711  1.00  0.00     0.020 C 
HETATM   21  C15 UNL     1     -10.629  16.650  44.736  1.00  0.00     0.121 C 
ATOM     22  H3  UNL     1     -12.212  15.367  45.399  1.00  0.00     0.160 HD
ATOM     23  H2  UNL     1     -14.951  17.393  44.182  1.00  0.00     0.188 HD
ENDBRANCH  13  15
ENDBRANCH   1  13
TORSDOF 3
ENDMDL
