MODEL 1
REMARK VINA RESULT: -7.479328430      0.000      0.000
REMARK  3 active torsions:
REMARK  status: ('A' for Active; 'I' for Inactive)
REMARK    1  A    between atoms: C1_2  and  C2_4 
REMARK    2  A    between atoms: C2_4  and  C3_5 
REMARK       I    between atoms: N1_10  and  C8_11 
REMARK       I    between atoms: C8_11  and  N2_13 
REMARK    3  A    between atoms: N2_13  and  C9_15 
ROOT
HETATM    1  C3  UNL     1     -15.354  12.367  41.115  1.00  0.00     0.013 C 
HETATM    2  C4  UNL     1     -16.749  11.854  41.078  1.00  0.00     0.007 C 
HETATM    3  C5  UNL     1     -17.330  11.520  42.407  1.00  0.00     0.002 C 
HETATM    4  C6  UNL     1     -17.142  12.541  43.477  1.00  0.00     0.020 C 
HETATM    5  C7  UNL     1     -17.279  13.917  42.865  1.00  0.00     0.127 C 
HETATM    6  N1  UNL     1     -15.924  14.338  42.496  1.00  0.00    -0.334 N 
HETATM    7  C8  UNL     1     -15.341  15.263  43.379  1.00  0.00     0.318 C 
HETATM    8  O3  UNL     1     -16.041  15.620  44.392  1.00  0.00    -0.247 OA
HETATM    9  N2  UNL     1     -14.069  15.848  43.282  1.00  0.00    -0.338 N 
ATOM     10  H2  UNL     1     -13.483  15.587  42.489  1.00  0.00     0.164 HD
HETATM   11  C15 UNL     1     -15.232  13.858  41.333  1.00  0.00     0.132 C 
ENDROOT
BRANCH   9  12
HETATM   12  C9  UNL     1     -13.534  16.793  44.231  1.00  0.00     0.086 C 
HETATM   13  C10 UNL     1     -12.027  16.719  44.332  1.00  0.00     0.025 C 
HETATM   14  C11 UNL     1     -11.646  17.446  45.606  1.00  0.00     0.002 C 
HETATM   15  C12 UNL     1     -12.135  18.868  45.614  1.00  0.00     0.000 C 
HETATM   16  C13 UNL     1     -13.532  19.046  45.136  1.00  0.00     0.002 C 
HETATM   17  C14 UNL     1     -13.888  18.218  43.921  1.00  0.00     0.025 C 
ENDBRANCH   9  12
BRANCH   1  18
HETATM   18  C2  UNL     1     -14.715  12.069  39.769  1.00  0.00     0.119 C 
BRANCH  18  19
HETATM   19  C1  UNL     1     -13.247  11.905  39.914  1.00  0.00     0.172 C 
HETATM   20  O1  UNL     1     -12.412  12.421  39.129  1.00  0.00    -0.648 OA
HETATM   21  O2  UNL     1     -12.746  11.148  40.962  1.00  0.00    -0.648 OA
ENDBRANCH  18  19
ENDBRANCH   1  18
TORSDOF 3
ENDMDL
MODEL 2
REMARK VINA RESULT: -7.334014962      2.442      3.869
REMARK  3 active torsions:
REMARK  status: ('A' for Active; 'I' for Inactive)
REMARK    1  A    between atoms: C1_2  and  C2_4 
REMARK    2  A    between atoms: C2_4  and  C3_5 
REMARK       I    between atoms: N1_10  and  C8_11 
REMARK       I    between atoms: C8_11  and  N2_13 
REMARK    3  A    between atoms: N2_13  and  C9_15 
ROOT
HETATM    1  C3  UNL     1     -15.441  14.285  42.678  1.00  0.00     0.013 C 
HETATM    2  C4  UNL     1     -14.653  13.154  42.120  1.00  0.00     0.007 C 
HETATM    3  C5  UNL     1     -13.620  13.542  41.121  1.00  0.00     0.002 C 
HETATM    4  C6  UNL     1     -12.750  14.694  41.495  1.00  0.00     0.020 C 
HETATM    5  C7  UNL     1     -12.445  14.614  42.974  1.00  0.00     0.127 C 
HETATM    6  N1  UNL     1     -13.468  15.419  43.648  1.00  0.00    -0.334 N 
HETATM    7  C8  UNL     1     -13.028  16.686  44.068  1.00  0.00     0.318 C 
HETATM    8  O3  UNL     1     -11.810  16.993  43.810  1.00  0.00    -0.247 OA
HETATM    9  N2  UNL     1     -13.773  17.665  44.742  1.00  0.00    -0.338 N 
ATOM     10  H2  UNL     1     -14.747  17.456  44.962  1.00  0.00     0.164 HD
HETATM   11  C15 UNL     1     -14.813  14.969  43.872  1.00  0.00     0.132 C 
ENDROOT
BRANCH   9  12
HETATM   12  C9  UNL     1     -13.253  18.950  45.142  1.00  0.00     0.086 C 
HETATM   13  C10 UNL     1     -14.147  20.092  44.712  1.00  0.00     0.025 C 
HETATM   14  C11 UNL     1     -13.315  21.355  44.831  1.00  0.00     0.002 C 
HETATM   15  C12 UNL     1     -12.786  21.555  46.225  1.00  0.00     0.000 C 
HETATM   16  C13 UNL     1     -12.234  20.329  46.860  1.00  0.00     0.002 C 
HETATM   17  C14 UNL     1     -13.051  19.078  46.623  1.00  0.00     0.025 C 
ENDBRANCH   9  12
BRANCH   1  18
HETATM   18  C2  UNL     1     -16.777  13.733  43.144  1.00  0.00     0.119 C 
BRANCH  18  19
HETATM   19  C1  UNL     1     -17.444  12.986  42.048  1.00  0.00     0.172 C 
HETATM   20  O1  UNL     1     -17.752  13.503  40.945  1.00  0.00    -0.648 OA
HETATM   21  O2  UNL     1     -17.752  11.645  42.226  1.00  0.00    -0.648 OA
ENDBRANCH  18  19
ENDBRANCH   1  18
TORSDOF 3
ENDMDL
MODEL 3
REMARK VINA RESULT: -7.216432922      1.955      2.556
REMARK  3 active torsions:
REMARK  status: ('A' for Active; 'I' for Inactive)
REMARK    1  A    between atoms: C1_2  and  C2_4 
REMARK    2  A    between atoms: C2_4  and  C3_5 
REMARK       I    between atoms: N1_10  and  C8_11 
REMARK       I    between atoms: C8_11  and  N2_13 
REMARK    3  A    between atoms: N2_13  and  C9_15 
ROOT
HETATM    1  C3  UNL     1     -12.387  13.452  40.994  1.00  0.00     0.013 C 
HETATM    2  C4  UNL     1     -13.521  12.812  40.275  1.00  0.00     0.007 C 
HETATM    3  C5  UNL     1     -14.606  12.295  41.152  1.00  0.00     0.002 C 
HETATM    4  C6  UNL     1     -15.078  13.220  42.222  1.00  0.00     0.020 C 
HETATM    5  C7  UNL     1     -15.092  14.630  41.676  1.00  0.00     0.127 C 
HETATM    6  N1  UNL     1     -13.792  15.214  42.014  1.00  0.00    -0.334 N 
HETATM    7  C8  UNL     1     -13.817  16.101  43.105  1.00  0.00     0.318 C 
HETATM    8  O3  UNL     1     -14.951  16.287  43.675  1.00  0.00    -0.247 OA
HETATM    9  N2  UNL     1     -12.738  16.812  43.649  1.00  0.00    -0.338 N 
ATOM     10  H2  UNL     1     -11.820  16.688  43.221  1.00  0.00     0.164 HD
HETATM   11  C15 UNL     1     -12.579  14.920  41.303  1.00  0.00     0.132 C 
ENDROOT
BRANCH   9  12
HETATM   12  C9  UNL     1     -12.840  17.707  44.776  1.00  0.00     0.086 C 
HETATM   13  C10 UNL     1     -11.592  17.702  45.631  1.00  0.00     0.025 C 
HETATM   14  C11 UNL     1     -11.973  18.347  46.949  1.00  0.00     0.002 C 
HETATM   15  C12 UNL     1     -12.514  19.738  46.763  1.00  0.00     0.000 C 
HETATM   16  C13 UNL     1     -13.484  19.880  45.645  1.00  0.00     0.002 C 
HETATM   17  C14 UNL     1     -13.104  19.132  44.386  1.00  0.00     0.025 C 
ENDBRANCH   9  12
BRANCH   1  18
HETATM   18  C2  UNL     1     -11.159  13.351  40.104  1.00  0.00     0.119 C 
BRANCH  18  19
HETATM   19  C1  UNL     1     -10.050  12.674  40.822  1.00  0.00     0.172 C 
HETATM   20  O1  UNL     1      -9.409  13.204  41.763  1.00  0.00    -0.648 OA
HETATM   21  O2  UNL     1      -9.684  11.388  40.452  1.00  0.00    -0.648 OA
ENDBRANCH  18  19
ENDBRANCH   1  18
TORSDOF 3
ENDMDL
MODEL 4
REMARK VINA RESULT: -7.208653284      2.158      2.703
REMARK  3 active torsions:
REMARK  status: ('A' for Active; 'I' for Inactive)
REMARK    1  A    between atoms: C1_2  and  C2_4 
REMARK    2  A    between atoms: C2_4  and  C3_5 
REMARK       I    between atoms: N1_10  and  C8_11 
REMARK       I    between atoms: C8_11  and  N2_13 
REMARK    3  A    between atoms: N2_13  and  C9_15 
ROOT
HETATM    1  C3  UNL     1     -13.013  13.897  41.511  1.00  0.00     0.013 C 
HETATM    2  C4  UNL     1     -14.095  13.147  40.820  1.00  0.00     0.007 C 
HETATM    3  C5  UNL     1     -15.217  12.715  41.698  1.00  0.00     0.002 C 
HETATM    4  C6  UNL     1     -15.762  13.753  42.619  1.00  0.00     0.020 C 
HETATM    5  C7  UNL     1     -15.772  15.084  41.903  1.00  0.00     0.127 C 
HETATM    6  N1  UNL     1     -14.501  15.737  42.233  1.00  0.00    -0.334 N 
HETATM    7  C8  UNL     1     -14.602  16.749  43.202  1.00  0.00     0.318 C 
HETATM    8  O3  UNL     1     -15.767  16.976  43.686  1.00  0.00    -0.247 OA
HETATM    9  N2  UNL     1     -13.566  17.548  43.709  1.00  0.00    -0.338 N 
ATOM     10  H2  UNL     1     -12.625  17.395  43.347  1.00  0.00     0.164 HD
HETATM   11  C15 UNL     1     -13.247  15.387  41.626  1.00  0.00     0.132 C 
ENDROOT
BRANCH   9  12
HETATM   12  C9  UNL     1     -13.744  18.572  44.709  1.00  0.00     0.086 C 
HETATM   13  C10 UNL     1     -12.617  18.594  45.718  1.00  0.00     0.025 C 
HETATM   14  C11 UNL     1     -13.114  19.408  46.897  1.00  0.00     0.002 C 
HETATM   15  C12 UNL     1     -13.526  20.797  46.492  1.00  0.00     0.000 C 
HETATM   16  C13 UNL     1     -14.334  20.865  45.246  1.00  0.00     0.002 C 
HETATM   17  C14 UNL     1     -13.854  19.955  44.137  1.00  0.00     0.025 C 
ENDBRANCH   9  12
BRANCH   1  18
HETATM   18  C2  UNL     1     -11.738  13.718  40.705  1.00  0.00     0.119 C 
BRANCH  18  19
HETATM   19  C1  UNL     1     -10.545  13.856  41.579  1.00  0.00     0.172 C 
HETATM   20  O1  UNL     1     -10.612  13.974  42.828  1.00  0.00    -0.648 OA
HETATM   21  O2  UNL     1      -9.280  13.859  41.010  1.00  0.00    -0.648 OA
ENDBRANCH  18  19
ENDBRANCH   1  18
TORSDOF 3
ENDMDL
MODEL 5
REMARK VINA RESULT: -7.183266379      3.377      5.064
REMARK  3 active torsions:
REMARK  status: ('A' for Active; 'I' for Inactive)
REMARK    1  A    between atoms: C1_2  and  C2_4 
REMARK    2  A    between atoms: C2_4  and  C3_5 
REMARK       I    between atoms: N1_10  and  C8_11 
REMARK       I    between atoms: C8_11  and  N2_13 
REMARK    3  A    between atoms: N2_13  and  C9_15 
ROOT
HETATM    1  C3  UNL     1     -12.547  14.664  41.674  1.00  0.00     0.013 C 
HETATM    2  C4  UNL     1     -11.964  13.344  41.316  1.00  0.00     0.007 C 
HETATM    3  C5  UNL     1     -10.545  13.385  40.871  1.00  0.00     0.002 C 
HETATM    4  C6  UNL     1      -9.618  14.190  41.718  1.00  0.00     0.020 C 
HETATM    5  C7  UNL     1      -9.997  14.002  43.169  1.00  0.00     0.127 C 
HETATM    6  N1  UNL     1     -10.925  15.089  43.494  1.00  0.00    -0.334 N 
HETATM    7  C8  UNL     1     -10.355  16.142  44.229  1.00  0.00     0.318 C 
HETATM    8  O3  UNL     1      -9.110  16.040  44.519  1.00  0.00    -0.247 OA
HETATM    9  N2  UNL     1     -10.993  17.304  44.688  1.00  0.00    -0.338 N 
ATOM     10  H2  UNL     1     -11.984  17.420  44.475  1.00  0.00     0.164 HD
HETATM   11  C15 UNL     1     -12.308  15.097  43.103  1.00  0.00     0.132 C 
ENDROOT
BRANCH   9  12
HETATM   12  C9  UNL     1     -10.340  18.348  45.440  1.00  0.00     0.086 C 
HETATM   13  C10 UNL     1      -9.927  19.513  44.568  1.00  0.00     0.025 C 
HETATM   14  C11 UNL     1      -8.930  20.320  45.377  1.00  0.00     0.002 C 
HETATM   15  C12 UNL     1      -9.507  20.782  46.687  1.00  0.00     0.000 C 
HETATM   16  C13 UNL     1     -10.280  19.747  47.422  1.00  0.00     0.002 C 
HETATM   17  C14 UNL     1     -11.183  18.902  46.550  1.00  0.00     0.025 C 
ENDBRANCH   9  12
BRANCH   1  18
HETATM   18  C2  UNL     1     -14.052  14.570  41.493  1.00  0.00     0.119 C 
BRANCH  18  19
HETATM   19  C1  UNL     1     -14.687  15.894  41.716  1.00  0.00     0.172 C 
HETATM   20  O1  UNL     1     -14.338  16.940  41.114  1.00  0.00    -0.648 OA
HETATM   21  O2  UNL     1     -15.723  16.006  42.633  1.00  0.00    -0.648 OA
ENDBRANCH  18  19
ENDBRANCH   1  18
TORSDOF 3
ENDMDL
