MODEL 1
REMARK VINA RESULT: -8.948223068      0.000      0.000
REMARK  8 active torsions:
REMARK  status: ('A' for Active; 'I' for Inactive)
REMARK    1  A    between atoms: C2_2  and  C3_3 
REMARK    2  A    between atoms: C3_3  and  C4_4 
REMARK    3  A    between atoms: C4_4  and  C5_5 
REMARK    4  A    between atoms: C5_5  and  C6_6 
REMARK    5  A    between atoms: C11_12  and  N2_13 
REMARK       I    between atoms: N2_13  and  C12_15 
REMARK       I    between atoms: C12_15  and  N3_17 
REMARK       I    between atoms: C13_19  and  N4_20 
REMARK       I    between atoms: C13_19  and  N5_26 
REMARK    6  A    between atoms: N4_20  and  C14_22 
REMARK    7  A    between atoms: N5_26  and  C18_28 
REMARK    8  A    between atoms: C18_28  and  C20_31 
ROOT
HETATM    1  C6  UNL     1      -7.470  14.660  37.061  1.00  0.00    -0.056 A 
HETATM    2  C7  UNL     1      -7.572  15.653  36.142  1.00  0.00     0.009 A 
HETATM    3  C8  UNL     1      -8.689  16.434  36.159  1.00  0.00     0.025 A 
HETATM    4  C9  UNL     1      -9.720  16.282  37.047  1.00  0.00     0.071 A 
HETATM    5  C10 UNL     1     -10.870  17.154  36.999  1.00  0.00     0.102 C 
HETATM    6  N1  UNL     1     -11.793  17.828  36.961  1.00  0.00    -0.191 NA
HETATM    7  C11 UNL     1      -9.611  15.249  38.001  1.00  0.00     0.057 A 
HETATM    8  C21 UNL     1      -8.495  14.455  37.998  1.00  0.00     0.038 A 
ENDROOT
BRANCH   7   9
HETATM    9  N2  UNL     1     -10.695  15.132  38.891  1.00  0.00    -0.307 N 
HETATM   10  C12 UNL     1     -10.841  14.139  39.860  1.00  0.00     0.339 C 
HETATM   11  O1  UNL     1     -10.050  13.226  40.079  1.00  0.00    -0.246 OA
HETATM   12  N3  UNL     1     -12.013  14.163  40.691  1.00  0.00    -0.141 N 
HETATM   13  C13 UNL     1     -12.031  14.526  41.914  1.00  0.00     0.680 C 
ATOM     14  H3  UNL     1     -12.896  13.868  40.273  1.00  0.00     0.189 HD
HETATM   15  N4  UNL     1     -10.844  14.944  42.549  1.00  0.00    -0.218 N 
HETATM   16  N5  UNL     1     -13.250  14.501  42.621  1.00  0.00    -0.198 N 
ATOM     17  H4  UNL     1     -10.080  14.275  42.643  1.00  0.00     0.178 HD
ATOM     18  H5  UNL     1     -13.224  14.345  43.629  1.00  0.00     0.179 HD
ATOM     19  H2  UNL     1     -11.434  15.830  38.822  1.00  0.00     0.170 HD
BRANCH  15  20
HETATM   20  C14 UNL     1     -10.664  16.268  43.071  1.00  0.00     0.036 C 
HETATM   21  C15 UNL     1      -9.231  16.457  43.531  1.00  0.00     0.038 C 
HETATM   22  C16 UNL     1     -11.551  16.539  44.270  1.00  0.00     0.038 C 
HETATM   23  C17 UNL     1     -10.897  17.334  42.007  1.00  0.00     0.038 C 
ENDBRANCH  15  20
BRANCH  16  24
HETATM   24  C18 UNL     1     -14.541  14.686  41.983  1.00  0.00     0.199 C 
HETATM   25  C19 UNL     1     -14.477  15.725  40.888  1.00  0.00     0.062 C 
HETATM   26  S1  UNL     1     -15.817  15.213  43.161  1.00  0.00    -0.053 SA
BRANCH  24  27
HETATM   27  C20 UNL     1     -15.021  13.394  41.359  1.00  0.00     0.423 C 
HETATM   28  F1  UNL     1     -14.212  12.330  41.648  1.00  0.00    -0.167 F 
HETATM   29  F2  UNL     1     -15.120  13.609  39.997  1.00  0.00    -0.167 F 
HETATM   30  F3  UNL     1     -16.321  13.184  41.836  1.00  0.00    -0.167 F 
ENDBRANCH  24  27
ENDBRANCH  16  24
ENDBRANCH   7   9
BRANCH   1  31
HETATM   31  C5  UNL     1      -6.313  13.746  37.149  1.00  0.00     0.038 C 
BRANCH  31  32
HETATM   32  C4  UNL     1      -6.659  12.311  36.881  1.00  0.00     0.005 C 
BRANCH  32  33
HETATM   33  C3  UNL     1      -6.012  11.924  35.573  1.00  0.00    -0.000 C 
BRANCH  33  34
HETATM   34  C2  UNL     1      -6.767  12.456  34.385  1.00  0.00    -0.005 C 
HETATM   35  C1  UNL     1      -7.223  11.329  33.505  1.00  0.00     0.005 C 
ENDBRANCH  33  34
ENDBRANCH  32  33
ENDBRANCH  31  32
ENDBRANCH   1  31
TORSDOF 8
ENDMDL
MODEL 2
REMARK VINA RESULT: -8.843812431      1.030      1.307
REMARK  8 active torsions:
REMARK  status: ('A' for Active; 'I' for Inactive)
REMARK    1  A    between atoms: C2_2  and  C3_3 
REMARK    2  A    between atoms: C3_3  and  C4_4 
REMARK    3  A    between atoms: C4_4  and  C5_5 
REMARK    4  A    between atoms: C5_5  and  C6_6 
REMARK    5  A    between atoms: C11_12  and  N2_13 
REMARK       I    between atoms: N2_13  and  C12_15 
REMARK       I    between atoms: C12_15  and  N3_17 
REMARK       I    between atoms: C13_19  and  N4_20 
REMARK       I    between atoms: C13_19  and  N5_26 
REMARK    6  A    between atoms: N4_20  and  C14_22 
REMARK    7  A    between atoms: N5_26  and  C18_28 
REMARK    8  A    between atoms: C18_28  and  C20_31 
ROOT
HETATM    1  C6  UNL     1      -7.458  14.612  37.177  1.00  0.00    -0.056 A 
HETATM    2  C7  UNL     1      -7.491  15.636  36.287  1.00  0.00     0.009 A 
HETATM    3  C8  UNL     1      -8.582  16.453  36.285  1.00  0.00     0.025 A 
HETATM    4  C9  UNL     1      -9.653  16.307  37.127  1.00  0.00     0.071 A 
HETATM    5  C10 UNL     1     -10.772  17.217  37.062  1.00  0.00     0.102 C 
HETATM    6  N1  UNL     1     -11.671  17.922  37.009  1.00  0.00    -0.191 NA
HETATM    7  C11 UNL     1      -9.615  15.242  38.051  1.00  0.00     0.057 A 
HETATM    8  C21 UNL     1      -8.525  14.412  38.065  1.00  0.00     0.038 A 
ENDROOT
BRANCH   7   9
HETATM    9  N2  UNL     1     -10.737  15.133  38.893  1.00  0.00    -0.307 N 
HETATM   10  C12 UNL     1     -10.943  14.130  39.840  1.00  0.00     0.339 C 
HETATM   11  O1  UNL     1     -10.178  13.199  40.078  1.00  0.00    -0.246 OA
HETATM   12  N3  UNL     1     -12.148  14.164  40.622  1.00  0.00    -0.141 N 
HETATM   13  C13 UNL     1     -12.209  14.511  41.848  1.00  0.00     0.680 C 
ATOM     14  H3  UNL     1     -13.017  13.892  40.163  1.00  0.00     0.189 HD
HETATM   15  N4  UNL     1     -11.043  14.897  42.539  1.00  0.00    -0.218 N 
HETATM   16  N5  UNL     1     -13.457  14.499  42.504  1.00  0.00    -0.198 N 
ATOM     17  H4  UNL     1     -10.295  14.212  42.654  1.00  0.00     0.178 HD
ATOM     18  H5  UNL     1     -13.477  14.328  43.509  1.00  0.00     0.179 HD
ATOM     19  H2  UNL     1     -11.460  15.847  38.803  1.00  0.00     0.170 HD
BRANCH  15  20
HETATM   20  C14 UNL     1     -10.860  16.210  43.087  1.00  0.00     0.036 C 
HETATM   21  C15 UNL     1      -9.465  16.343  43.668  1.00  0.00     0.038 C 
HETATM   22  C16 UNL     1     -11.835  16.504  44.210  1.00  0.00     0.038 C 
HETATM   23  C17 UNL     1     -10.964  17.291  42.018  1.00  0.00     0.038 C 
ENDBRANCH  15  20
BRANCH  16  24
HETATM   24  C18 UNL     1     -14.717  14.718  41.815  1.00  0.00     0.199 C 
HETATM   25  C19 UNL     1     -15.074  13.551  40.924  1.00  0.00     0.062 C 
HETATM   26  S1  UNL     1     -14.680  16.206  40.778  1.00  0.00    -0.053 SA
BRANCH  24  27
HETATM   27  C20 UNL     1     -15.845  14.898  42.807  1.00  0.00     0.423 C 
HETATM   28  F1  UNL     1     -16.791  13.913  42.723  1.00  0.00    -0.167 F 
HETATM   29  F2  UNL     1     -16.388  16.150  42.586  1.00  0.00    -0.167 F 
HETATM   30  F3  UNL     1     -15.255  14.925  44.076  1.00  0.00    -0.167 F 
ENDBRANCH  24  27
ENDBRANCH  16  24
ENDBRANCH   7   9
BRANCH   1  31
HETATM   31  C5  UNL     1      -6.335  13.659  37.281  1.00  0.00     0.038 C 
BRANCH  31  32
HETATM   32  C4  UNL     1      -6.702  12.254  36.900  1.00  0.00     0.005 C 
BRANCH  32  33
HETATM   33  C3  UNL     1      -6.019  11.946  35.589  1.00  0.00    -0.000 C 
BRANCH  33  34
HETATM   34  C2  UNL     1      -6.793  12.463  34.408  1.00  0.00    -0.005 C 
HETATM   35  C1  UNL     1      -7.240  11.328  33.535  1.00  0.00     0.005 C 
ENDBRANCH  33  34
ENDBRANCH  32  33
ENDBRANCH  31  32
ENDBRANCH   1  31
TORSDOF 8
ENDMDL
MODEL 3
REMARK VINA RESULT: -8.756333028      5.163      7.890
REMARK  8 active torsions:
REMARK  status: ('A' for Active; 'I' for Inactive)
REMARK    1  A    between atoms: C2_2  and  C3_3 
REMARK    2  A    between atoms: C3_3  and  C4_4 
REMARK    3  A    between atoms: C4_4  and  C5_5 
REMARK    4  A    between atoms: C5_5  and  C6_6 
REMARK    5  A    between atoms: C11_12  and  N2_13 
REMARK       I    between atoms: N2_13  and  C12_15 
REMARK       I    between atoms: C12_15  and  N3_17 
REMARK       I    between atoms: C13_19  and  N4_20 
REMARK       I    between atoms: C13_19  and  N5_26 
REMARK    6  A    between atoms: N4_20  and  C14_22 
REMARK    7  A    between atoms: N5_26  and  C18_28 
REMARK    8  A    between atoms: C18_28  and  C20_31 
ROOT
HETATM    1  C6  UNL     1     -16.789  12.870  41.211  1.00  0.00    -0.056 A 
HETATM    2  C7  UNL     1     -17.984  12.734  41.839  1.00  0.00     0.009 A 
HETATM    3  C8  UNL     1     -18.267  13.576  42.873  1.00  0.00     0.025 A 
HETATM    4  C9  UNL     1     -17.422  14.555  43.322  1.00  0.00     0.071 A 
HETATM    5  C10 UNL     1     -17.798  15.407  44.425  1.00  0.00     0.102 C 
HETATM    6  N1  UNL     1     -18.079  16.078  45.307  1.00  0.00    -0.191 NA
HETATM    7  C11 UNL     1     -16.180  14.694  42.667  1.00  0.00     0.057 A 
HETATM    8  C21 UNL     1     -15.880  13.856  41.625  1.00  0.00     0.038 A 
ENDROOT
BRANCH   7   9
HETATM    9  N2  UNL     1     -15.346  15.712  43.163  1.00  0.00    -0.307 N 
HETATM   10  C12 UNL     1     -14.225  15.517  43.970  1.00  0.00     0.339 C 
HETATM   11  O1  UNL     1     -13.802  14.433  44.364  1.00  0.00    -0.246 OA
HETATM   12  N3  UNL     1     -13.478  16.669  44.394  1.00  0.00    -0.141 N 
HETATM   13  C13 UNL     1     -12.343  17.013  43.924  1.00  0.00     0.680 C 
ATOM     14  H3  UNL     1     -13.885  17.256  45.122  1.00  0.00     0.189 HD
HETATM   15  N4  UNL     1     -11.727  16.244  42.916  1.00  0.00    -0.218 N 
HETATM   16  N5  UNL     1     -11.712  18.168  44.429  1.00  0.00    -0.198 N 
ATOM     17  H4  UNL     1     -11.473  15.279  43.126  1.00  0.00     0.178 HD
ATOM     18  H5  UNL     1     -10.692  18.208  44.420  1.00  0.00     0.179 HD
ATOM     19  H2  UNL     1     -15.580  16.673  42.913  1.00  0.00     0.170 HD
BRANCH  15  20
HETATM   20  C14 UNL     1     -11.441  16.759  41.608  1.00  0.00     0.036 C 
HETATM   21  C15 UNL     1     -11.062  15.626  40.673  1.00  0.00     0.038 C 
HETATM   22  C16 UNL     1     -10.278  17.733  41.615  1.00  0.00     0.038 C 
HETATM   23  C17 UNL     1     -12.662  17.419  40.979  1.00  0.00     0.038 C 
ENDBRANCH  15  20
BRANCH  16  24
HETATM   24  C18 UNL     1     -12.444  19.304  44.961  1.00  0.00     0.199 C 
HETATM   25  C19 UNL     1     -13.895  19.276  44.542  1.00  0.00     0.062 C 
HETATM   26  S1  UNL     1     -11.747  20.886  44.408  1.00  0.00    -0.053 SA
BRANCH  24  27
HETATM   27  C20 UNL     1     -12.403  19.307  46.472  1.00  0.00     0.423 C 
HETATM   28  F1  UNL     1     -12.774  18.109  47.018  1.00  0.00    -0.167 F 
HETATM   29  F2  UNL     1     -13.215  20.340  46.902  1.00  0.00    -0.167 F 
HETATM   30  F3  UNL     1     -11.091  19.642  46.832  1.00  0.00    -0.167 F 
ENDBRANCH  24  27
ENDBRANCH  16  24
ENDBRANCH   7   9
BRANCH   1  31
HETATM   31  C5  UNL     1     -16.362  12.024  40.078  1.00  0.00     0.038 C 
BRANCH  31  32
HETATM   32  C4  UNL     1     -14.893  12.113  39.783  1.00  0.00     0.005 C 
BRANCH  32  33
HETATM   33  C3  UNL     1     -14.698  11.741  38.333  1.00  0.00    -0.000 C 
BRANCH  33  34
HETATM   34  C2  UNL     1     -15.907  11.059  37.752  1.00  0.00    -0.005 C 
HETATM   35  C1  UNL     1     -15.952  11.249  36.264  1.00  0.00     0.005 C 
ENDBRANCH  33  34
ENDBRANCH  32  33
ENDBRANCH  31  32
ENDBRANCH   1  31
TORSDOF 8
ENDMDL
MODEL 4
REMARK VINA RESULT: -8.752589888      4.061      7.736
REMARK  8 active torsions:
REMARK  status: ('A' for Active; 'I' for Inactive)
REMARK    1  A    between atoms: C2_2  and  C3_3 
REMARK    2  A    between atoms: C3_3  and  C4_4 
REMARK    3  A    between atoms: C4_4  and  C5_5 
REMARK    4  A    between atoms: C5_5  and  C6_6 
REMARK    5  A    between atoms: C11_12  and  N2_13 
REMARK       I    between atoms: N2_13  and  C12_15 
REMARK       I    between atoms: C12_15  and  N3_17 
REMARK       I    between atoms: C13_19  and  N4_20 
REMARK       I    between atoms: C13_19  and  N5_26 
REMARK    6  A    between atoms: N4_20  and  C14_22 
REMARK    7  A    between atoms: N5_26  and  C18_28 
REMARK    8  A    between atoms: C18_28  and  C20_31 
ROOT
HETATM    1  C6  UNL     1     -15.249  14.579  41.581  1.00  0.00    -0.056 A 
HETATM    2  C7  UNL     1     -15.028  14.595  42.920  1.00  0.00     0.009 A 
HETATM    3  C8  UNL     1     -13.756  14.806  43.360  1.00  0.00     0.025 A 
HETATM    4  C9  UNL     1     -12.679  15.004  42.537  1.00  0.00     0.071 A 
HETATM    5  C10 UNL     1     -11.361  15.222  43.084  1.00  0.00     0.102 C 
HETATM    6  N1  UNL     1     -10.310  15.381  43.505  1.00  0.00    -0.191 NA
HETATM    7  C11 UNL     1     -12.912  14.987  41.145  1.00  0.00     0.057 A 
HETATM    8  C21 UNL     1     -14.185  14.776  40.686  1.00  0.00     0.038 A 
ENDROOT
BRANCH   7   9
HETATM    9  N2  UNL     1     -11.776  15.194  40.341  1.00  0.00    -0.307 N 
HETATM   10  C12 UNL     1     -11.600  16.251  39.448  1.00  0.00     0.339 C 
HETATM   11  O1  UNL     1     -12.406  17.153  39.234  1.00  0.00    -0.246 OA
HETATM   12  N3  UNL     1     -10.376  16.316  38.698  1.00  0.00    -0.141 N 
HETATM   13  C13 UNL     1      -9.425  17.134  38.929  1.00  0.00     0.680 C 
ATOM     14  H3  UNL     1     -10.259  15.660  37.926  1.00  0.00     0.189 HD
HETATM   15  N4  UNL     1      -9.526  18.066  39.981  1.00  0.00    -0.218 N 
HETATM   16  N5  UNL     1      -8.274  17.096  38.115  1.00  0.00    -0.198 N 
ATOM     17  H4  UNL     1     -10.268  18.765  39.943  1.00  0.00     0.178 HD
ATOM     18  H5  UNL     1      -7.748  17.959  37.977  1.00  0.00     0.179 HD
ATOM     19  H2  UNL     1     -11.020  14.515  40.417  1.00  0.00     0.170 HD
BRANCH  15  20
HETATM   20  C14 UNL     1      -8.633  18.074  41.103  1.00  0.00     0.036 C 
HETATM   21  C15 UNL     1      -7.493  19.044  40.855  1.00  0.00     0.038 C 
HETATM   22  C16 UNL     1      -8.009  16.715  41.351  1.00  0.00     0.038 C 
HETATM   23  C17 UNL     1      -9.319  18.565  42.372  1.00  0.00     0.038 C 
ENDBRANCH  15  20
BRANCH  16  24
HETATM   24  C18 UNL     1      -7.802  15.887  37.463  1.00  0.00     0.199 C 
HETATM   25  C19 UNL     1      -8.588  14.675  37.904  1.00  0.00     0.062 C 
HETATM   26  S1  UNL     1      -6.052  15.560  37.813  1.00  0.00    -0.053 SA
BRANCH  24  27
HETATM   27  C20 UNL     1      -7.939  16.000  35.961  1.00  0.00     0.423 C 
HETATM   28  F1  UNL     1      -7.341  17.120  35.454  1.00  0.00    -0.167 F 
HETATM   29  F2  UNL     1      -9.290  15.963  35.669  1.00  0.00    -0.167 F 
HETATM   30  F3  UNL     1      -7.372  14.837  35.424  1.00  0.00    -0.167 F 
ENDBRANCH  24  27
ENDBRANCH  16  24
ENDBRANCH   7   9
BRANCH   1  31
HETATM   31  C5  UNL     1     -16.578  14.362  40.976  1.00  0.00     0.038 C 
BRANCH  31  32
HETATM   32  C4  UNL     1     -17.152  13.004  41.259  1.00  0.00     0.005 C 
BRANCH  32  33
HETATM   33  C3  UNL     1     -17.149  12.230  39.962  1.00  0.00    -0.000 C 
BRANCH  33  34
HETATM   34  C2  UNL     1     -15.934  11.355  39.824  1.00  0.00    -0.005 C 
HETATM   35  C1  UNL     1     -15.271  11.583  38.498  1.00  0.00     0.005 C 
ENDBRANCH  33  34
ENDBRANCH  32  33
ENDBRANCH  31  32
ENDBRANCH   1  31
TORSDOF 8
ENDMDL
MODEL 5
REMARK VINA RESULT: -8.594602222      5.247      7.953
REMARK  8 active torsions:
REMARK  status: ('A' for Active; 'I' for Inactive)
REMARK    1  A    between atoms: C2_2  and  C3_3 
REMARK    2  A    between atoms: C3_3  and  C4_4 
REMARK    3  A    between atoms: C4_4  and  C5_5 
REMARK    4  A    between atoms: C5_5  and  C6_6 
REMARK    5  A    between atoms: C11_12  and  N2_13 
REMARK       I    between atoms: N2_13  and  C12_15 
REMARK       I    between atoms: C12_15  and  N3_17 
REMARK       I    between atoms: C13_19  and  N4_20 
REMARK       I    between atoms: C13_19  and  N5_26 
REMARK    6  A    between atoms: N4_20  and  C14_22 
REMARK    7  A    between atoms: N5_26  and  C18_28 
REMARK    8  A    between atoms: C18_28  and  C20_31 
ROOT
HETATM    1  C6  UNL     1     -16.818  12.889  41.207  1.00  0.00    -0.056 A 
HETATM    2  C7  UNL     1     -18.025  12.777  41.818  1.00  0.00     0.009 A 
HETATM    3  C8  UNL     1     -18.302  13.617  42.855  1.00  0.00     0.025 A 
HETATM    4  C9  UNL     1     -17.439  14.571  43.325  1.00  0.00     0.071 A 
HETATM    5  C10 UNL     1     -17.810  15.422  44.430  1.00  0.00     0.102 C 
HETATM    6  N1  UNL     1     -18.087  16.092  45.315  1.00  0.00    -0.191 NA
HETATM    7  C11 UNL     1     -16.185  14.685  42.688  1.00  0.00     0.057 A 
HETATM    8  C21 UNL     1     -15.891  13.849  41.644  1.00  0.00     0.038 A 
ENDROOT
BRANCH   7   9
HETATM    9  N2  UNL     1     -15.333  15.677  43.206  1.00  0.00    -0.307 N 
HETATM   10  C12 UNL     1     -14.187  15.443  43.966  1.00  0.00     0.339 C 
HETATM   11  O1  UNL     1     -13.755  14.341  44.293  1.00  0.00    -0.246 OA
HETATM   12  N3  UNL     1     -13.425  16.573  44.419  1.00  0.00    -0.141 N 
HETATM   13  C13 UNL     1     -12.304  16.938  43.930  1.00  0.00     0.680 C 
ATOM     14  H3  UNL     1     -13.807  17.124  45.188  1.00  0.00     0.189 HD
HETATM   15  N4  UNL     1     -11.723  16.218  42.867  1.00  0.00    -0.218 N 
HETATM   16  N5  UNL     1     -11.655  18.068  44.469  1.00  0.00    -0.198 N 
ATOM     17  H4  UNL     1     -11.464  15.244  43.022  1.00  0.00     0.178 HD
ATOM     18  H5  UNL     1     -10.636  18.108  44.429  1.00  0.00     0.179 HD
ATOM     19  H2  UNL     1     -15.573  16.649  43.009  1.00  0.00     0.170 HD
BRANCH  15  20
HETATM   20  C14 UNL     1     -11.478  16.795  41.577  1.00  0.00     0.036 C 
HETATM   21  C15 UNL     1     -11.145  15.707  40.574  1.00  0.00     0.038 C 
HETATM   22  C16 UNL     1     -10.305  17.756  41.590  1.00  0.00     0.038 C 
HETATM   23  C17 UNL     1     -12.713  17.497  41.025  1.00  0.00     0.038 C 
ENDBRANCH  15  20
BRANCH  16  24
HETATM   24  C18 UNL     1     -12.367  19.177  45.078  1.00  0.00     0.199 C 
HETATM   25  C19 UNL     1     -12.835  18.839  46.474  1.00  0.00     0.062 C 
HETATM   26  S1  UNL     1     -13.826  19.664  44.115  1.00  0.00    -0.053 SA
BRANCH  24  27
HETATM   27  C20 UNL     1     -11.476  20.396  45.177  1.00  0.00     0.423 C 
HETATM   28  F1  UNL     1     -11.121  20.693  46.464  1.00  0.00    -0.167 F 
HETATM   29  F2  UNL     1     -12.148  21.444  44.575  1.00  0.00    -0.167 F 
HETATM   30  F3  UNL     1     -10.349  20.126  44.391  1.00  0.00    -0.167 F 
ENDBRANCH  24  27
ENDBRANCH  16  24
ENDBRANCH   7   9
BRANCH   1  31
HETATM   31  C5  UNL     1     -16.397  12.043  40.073  1.00  0.00     0.038 C 
BRANCH  31  32
HETATM   32  C4  UNL     1     -14.920  12.091  39.805  1.00  0.00     0.005 C 
BRANCH  32  33
HETATM   33  C3  UNL     1     -14.712  11.752  38.348  1.00  0.00    -0.000 C 
BRANCH  33  34
HETATM   34  C2  UNL     1     -15.904  11.054  37.750  1.00  0.00    -0.005 C 
HETATM   35  C1  UNL     1     -15.940  11.260  36.264  1.00  0.00     0.005 C 
ENDBRANCH  33  34
ENDBRANCH  32  33
ENDBRANCH  31  32
ENDBRANCH   1  31
TORSDOF 8
ENDMDL
