MODEL 1
REMARK VINA RESULT: -8.438904200      0.000      0.000
REMARK  9 active torsions:
REMARK  status: ('A' for Active; 'I' for Inactive)
REMARK    1  A    between atoms: C2_2  and  C3_3 
REMARK    2  A    between atoms: C6_6  and  C7_7 
REMARK    3  A    between atoms: C9_12  and  N1_13 
REMARK       I    between atoms: N1_13  and  C10_15 
REMARK       I    between atoms: C10_15  and  N2_17 
REMARK    4  A    between atoms: N2_17  and  C11_19 
REMARK    5  A    between atoms: C14_22  and  C16_24 
REMARK    6  A    between atoms: C16_24  and  C17_25 
REMARK    7  A    between atoms: C17_25  and  N3_26 
REMARK       I    between atoms: N3_26  and  C18_28 
REMARK    8  A    between atoms: C18_28  and  O3_30 
REMARK    9  A    between atoms: O3_30  and  C19_31 
ROOT
HETATM    1  C11 UNL     1      -9.907  15.793  41.589  1.00  0.00     0.288 C 
HETATM    2  C12 UNL     1      -9.923  16.756  42.705  1.00  0.00     0.057 C 
HETATM    3  C13 UNL     1      -8.703  17.578  42.609  1.00  0.00     0.042 C 
HETATM    4  C14 UNL     1      -7.973  17.070  41.399  1.00  0.00     0.126 C 
HETATM    5  C15 UNL     1      -7.775  18.270  40.456  1.00  0.00     0.046 C 
HETATM    6  N4  UNL     1      -8.849  16.185  40.715  1.00  0.00    -0.046 N 
ATOM      7  H41 UNL     1      -9.197  16.584  39.843  1.00  0.00     0.280 HD
ATOM      8  H42 UNL     1      -8.356  15.382  40.321  1.00  0.00     0.280 HD
ENDROOT
BRANCH   1   9
HETATM    9  N2  UNL     1     -11.144  15.444  40.990  1.00  0.00    -0.315 N 
HETATM   10  C10 UNL     1     -12.040  14.397  41.154  1.00  0.00     0.322 C 
HETATM   11  N1  UNL     1     -13.216  14.301  40.305  1.00  0.00    -0.308 N 
HETATM   12  O1  UNL     1     -12.005  13.439  41.977  1.00  0.00    -0.247 OA
ATOM     13  H1  UNL     1     -13.257  14.977  39.542  1.00  0.00     0.170 HD
ATOM     14  H2  UNL     1     -11.442  16.113  40.280  1.00  0.00     0.166 HD
BRANCH  11  15
HETATM   15  C9  UNL     1     -14.293  13.424  40.380  1.00  0.00     0.043 A 
HETATM   16  C3  UNL     1     -14.344  12.421  39.406  1.00  0.00    -0.032 A 
HETATM   17  C4  UNL     1     -15.501  11.665  39.306  1.00  0.00     0.010 A 
HETATM   18  C5  UNL     1     -16.568  11.890  40.141  1.00  0.00     0.017 A 
HETATM   19  C6  UNL     1     -16.537  12.864  41.120  1.00  0.00     0.050 A 
HETATM   20  C8  UNL     1     -15.365  13.610  41.205  1.00  0.00     0.046 A 
BRANCH  16  21
HETATM   21  C2  UNL     1     -13.100  12.092  38.614  1.00  0.00     0.036 C 
HETATM   22  C1  UNL     1     -12.360  10.979  39.414  1.00  0.00     0.010 C 
ENDBRANCH  16  21
BRANCH  19  23
HETATM   23  C7  UNL     1     -17.738  13.098  41.995  1.00  0.00     0.417 C 
HETATM   24  F1  UNL     1     -18.130  11.925  42.631  1.00  0.00    -0.166 F 
HETATM   25  F2  UNL     1     -18.798  13.469  41.189  1.00  0.00    -0.166 F 
HETATM   26  F3  UNL     1     -17.412  14.020  42.960  1.00  0.00    -0.166 F 
ENDBRANCH  19  23
ENDBRANCH  11  15
ENDBRANCH   1   9
BRANCH   4  27
HETATM   27  C16 UNL     1      -6.601  16.528  41.630  1.00  0.00     0.058 C 
BRANCH  27  28
HETATM   28  C17 UNL     1      -5.579  16.839  40.580  1.00  0.00     0.127 C 
BRANCH  28  29
HETATM   29  N3  UNL     1      -5.509  15.700  39.665  1.00  0.00    -0.337 N 
HETATM   30  C18 UNL     1      -5.783  15.770  38.292  1.00  0.00     0.361 C 
HETATM   31  O2  UNL     1      -6.101  16.835  37.681  1.00  0.00    -0.238 OA
ATOM     32  H3  UNL     1      -5.242  14.795  40.052  1.00  0.00     0.164 HD
BRANCH  30  33
HETATM   33  O3  UNL     1      -5.744  14.642  37.498  1.00  0.00    -0.294 OA
BRANCH  33  34
HETATM   34  C19 UNL     1      -6.851  13.910  37.075  1.00  0.00     0.061 C 
HETATM   35  C20 UNL     1      -7.934  13.783  38.111  1.00  0.00     0.046 C 
HETATM   36  C21 UNL     1      -7.452  14.298  35.766  1.00  0.00     0.046 C 
HETATM   37  C22 UNL     1      -6.320  12.462  36.904  1.00  0.00     0.046 C 
ENDBRANCH  33  34
ENDBRANCH  30  33
ENDBRANCH  28  29
ENDBRANCH  27  28
ENDBRANCH   4  27
TORSDOF 9
ENDMDL
MODEL 2
REMARK VINA RESULT: -8.402173723      2.074      3.105
REMARK  9 active torsions:
REMARK  status: ('A' for Active; 'I' for Inactive)
REMARK    1  A    between atoms: C2_2  and  C3_3 
REMARK    2  A    between atoms: C6_6  and  C7_7 
REMARK    3  A    between atoms: C9_12  and  N1_13 
REMARK       I    between atoms: N1_13  and  C10_15 
REMARK       I    between atoms: C10_15  and  N2_17 
REMARK    4  A    between atoms: N2_17  and  C11_19 
REMARK    5  A    between atoms: C14_22  and  C16_24 
REMARK    6  A    between atoms: C16_24  and  C17_25 
REMARK    7  A    between atoms: C17_25  and  N3_26 
REMARK       I    between atoms: N3_26  and  C18_28 
REMARK    8  A    between atoms: C18_28  and  O3_30 
REMARK    9  A    between atoms: O3_30  and  C19_31 
ROOT
HETATM    1  C11 UNL     1     -10.277  15.548  43.241  1.00  0.00     0.288 C 
HETATM    2  C12 UNL     1     -10.076  16.709  44.129  1.00  0.00     0.057 C 
HETATM    3  C13 UNL     1      -9.138  17.630  43.461  1.00  0.00     0.042 C 
HETATM    4  C14 UNL     1      -8.799  16.975  42.152  1.00  0.00     0.126 C 
HETATM    5  C15 UNL     1      -9.167  17.975  41.040  1.00  0.00     0.046 C 
HETATM    6  N4  UNL     1      -9.683  15.875  41.985  1.00  0.00    -0.046 N 
ATOM      7  H41 UNL     1     -10.381  16.048  41.261  1.00  0.00     0.280 HD
ATOM      8  H42 UNL     1      -9.223  15.072  41.555  1.00  0.00     0.280 HD
ENDROOT
BRANCH   1   9
HETATM    9  N2  UNL     1     -11.560  14.946  43.211  1.00  0.00    -0.315 N 
HETATM   10  C10 UNL     1     -12.523  14.761  42.227  1.00  0.00     0.322 C 
HETATM   11  N1  UNL     1     -13.796  14.144  42.558  1.00  0.00    -0.308 N 
HETATM   12  O1  UNL     1     -12.478  15.063  41.001  1.00  0.00    -0.247 OA
ATOM     13  H1  UNL     1     -13.952  13.973  43.551  1.00  0.00     0.170 HD
ATOM     14  H2  UNL     1     -11.838  14.561  44.113  1.00  0.00     0.166 HD
BRANCH  11  15
HETATM   15  C9  UNL     1     -14.834  13.753  41.718  1.00  0.00     0.043 A 
HETATM   16  C3  UNL     1     -16.105  14.247  42.031  1.00  0.00    -0.032 A 
HETATM   17  C4  UNL     1     -17.196  13.716  41.362  1.00  0.00     0.010 A 
HETATM   18  C5  UNL     1     -17.037  12.733  40.416  1.00  0.00     0.017 A 
HETATM   19  C6  UNL     1     -15.792  12.239  40.078  1.00  0.00     0.050 A 
HETATM   20  C8  UNL     1     -14.709  12.788  40.760  1.00  0.00     0.046 A 
BRANCH  16  21
HETATM   21  C2  UNL     1     -16.232  15.435  42.955  1.00  0.00     0.036 C 
HETATM   22  C1  UNL     1     -17.144  14.974  44.130  1.00  0.00     0.010 C 
ENDBRANCH  16  21
BRANCH  19  23
HETATM   23  C7  UNL     1     -15.663  11.142  39.056  1.00  0.00     0.417 C 
HETATM   24  F1  UNL     1     -16.165  11.545  37.824  1.00  0.00    -0.166 F 
HETATM   25  F2  UNL     1     -16.448  10.078  39.460  1.00  0.00    -0.166 F 
HETATM   26  F3  UNL     1     -14.333  10.836  38.898  1.00  0.00    -0.166 F 
ENDBRANCH  19  23
ENDBRANCH  11  15
ENDBRANCH   1   9
BRANCH   4  27
HETATM   27  C16 UNL     1      -7.359  16.653  41.923  1.00  0.00     0.058 C 
BRANCH  27  28
HETATM   28  C17 UNL     1      -6.669  17.430  40.845  1.00  0.00     0.127 C 
BRANCH  28  29
HETATM   29  N3  UNL     1      -6.540  16.564  39.674  1.00  0.00    -0.337 N 
HETATM   30  C18 UNL     1      -6.652  17.005  38.348  1.00  0.00     0.361 C 
HETATM   31  O2  UNL     1      -6.854  18.211  38.011  1.00  0.00    -0.238 OA
ATOM     32  H3  UNL     1      -6.358  15.573  39.833  1.00  0.00     0.164 HD
BRANCH  30  33
HETATM   33  O3  UNL     1      -6.569  16.119  37.292  1.00  0.00    -0.294 OA
BRANCH  33  34
HETATM   34  C19 UNL     1      -7.650  15.581  36.598  1.00  0.00     0.061 C 
HETATM   35  C20 UNL     1      -7.357  14.262  35.937  1.00  0.00     0.046 C 
HETATM   36  C21 UNL     1      -8.946  15.498  37.333  1.00  0.00     0.046 C 
HETATM   37  C22 UNL     1      -7.877  16.556  35.411  1.00  0.00     0.046 C 
ENDBRANCH  33  34
ENDBRANCH  30  33
ENDBRANCH  28  29
ENDBRANCH  27  28
ENDBRANCH   4  27
TORSDOF 9
ENDMDL
MODEL 3
REMARK VINA RESULT: -8.388409897      1.434      2.222
REMARK  9 active torsions:
REMARK  status: ('A' for Active; 'I' for Inactive)
REMARK    1  A    between atoms: C2_2  and  C3_3 
REMARK    2  A    between atoms: C6_6  and  C7_7 
REMARK    3  A    between atoms: C9_12  and  N1_13 
REMARK       I    between atoms: N1_13  and  C10_15 
REMARK       I    between atoms: C10_15  and  N2_17 
REMARK    4  A    between atoms: N2_17  and  C11_19 
REMARK    5  A    between atoms: C14_22  and  C16_24 
REMARK    6  A    between atoms: C16_24  and  C17_25 
REMARK    7  A    between atoms: C17_25  and  N3_26 
REMARK       I    between atoms: N3_26  and  C18_28 
REMARK    8  A    between atoms: C18_28  and  O3_30 
REMARK    9  A    between atoms: O3_30  and  C19_31 
ROOT
HETATM    1  C11 UNL     1     -10.746  15.036  40.406  1.00  0.00     0.288 C 
HETATM    2  C12 UNL     1      -9.944  14.257  41.367  1.00  0.00     0.057 C 
HETATM    3  C13 UNL     1      -9.149  15.207  42.166  1.00  0.00     0.042 C 
HETATM    4  C14 UNL     1      -9.514  16.569  41.646  1.00  0.00     0.126 C 
HETATM    5  C15 UNL     1     -10.033  17.383  42.845  1.00  0.00     0.046 C 
HETATM    6  N4  UNL     1     -10.629  16.408  40.780  1.00  0.00    -0.046 N 
ATOM      7  H41 UNL     1     -11.489  16.772  41.188  1.00  0.00     0.280 HD
ATOM      8  H42 UNL     1     -10.579  17.026  39.969  1.00  0.00     0.280 HD
ENDROOT
BRANCH   1   9
HETATM    9  N2  UNL     1     -12.044  14.564  40.083  1.00  0.00    -0.315 N 
HETATM   10  C10 UNL     1     -13.059  13.947  40.802  1.00  0.00     0.322 C 
HETATM   11  N1  UNL     1     -14.274  13.519  40.130  1.00  0.00    -0.308 N 
HETATM   12  O1  UNL     1     -13.109  13.670  42.034  1.00  0.00    -0.247 OA
ATOM     13  H1  UNL     1     -14.264  13.608  39.113  1.00  0.00     0.170 HD
ATOM     14  H2  UNL     1     -12.286  14.711  39.103  1.00  0.00     0.166 HD
BRANCH  11  15
HETATM   15  C9  UNL     1     -15.450  13.007  40.669  1.00  0.00     0.043 A 
HETATM   16  C3  UNL     1     -16.012  11.913  40.004  1.00  0.00    -0.032 A 
HETATM   17  C4  UNL     1     -17.286  11.509  40.369  1.00  0.00     0.010 A 
HETATM   18  C5  UNL     1     -17.979  12.163  41.358  1.00  0.00     0.017 A 
HETATM   19  C6  UNL     1     -17.442  13.237  42.040  1.00  0.00     0.050 A 
HETATM   20  C8  UNL     1     -16.160  13.624  41.659  1.00  0.00     0.046 A 
BRANCH  16  21
HETATM   21  C2  UNL     1     -15.166  11.118  39.037  1.00  0.00     0.036 C 
HETATM   22  C1  UNL     1     -15.886  11.206  37.658  1.00  0.00     0.010 C 
ENDBRANCH  16  21
BRANCH  19  23
HETATM   23  C7  UNL     1     -18.245  13.943  43.098  1.00  0.00     0.417 C 
HETATM   24  F1  UNL     1     -17.612  15.111  43.511  1.00  0.00    -0.166 F 
HETATM   25  F2  UNL     1     -18.309  13.128  44.212  1.00  0.00    -0.166 F 
HETATM   26  F3  UNL     1     -19.469  14.282  42.574  1.00  0.00    -0.166 F 
ENDBRANCH  19  23
ENDBRANCH  11  15
ENDBRANCH   1   9
BRANCH   4  27
HETATM   27  C16 UNL     1      -8.399  17.383  41.077  1.00  0.00     0.058 C 
BRANCH  27  28
HETATM   28  C17 UNL     1      -7.051  16.732  41.046  1.00  0.00     0.127 C 
BRANCH  28  29
HETATM   29  N3  UNL     1      -6.901  16.063  39.754  1.00  0.00    -0.337 N 
HETATM   30  C18 UNL     1      -6.667  16.728  38.542  1.00  0.00     0.361 C 
HETATM   31  O2  UNL     1      -6.534  17.984  38.431  1.00  0.00    -0.238 OA
ATOM     32  H3  UNL     1      -6.972  15.046  39.733  1.00  0.00     0.164 HD
BRANCH  30  33
HETATM   33  O3  UNL     1      -6.586  16.034  37.352  1.00  0.00    -0.294 OA
BRANCH  33  34
HETATM   34  C19 UNL     1      -7.669  15.625  36.576  1.00  0.00     0.061 C 
HETATM   35  C20 UNL     1      -7.445  14.329  35.847  1.00  0.00     0.046 C 
HETATM   36  C21 UNL     1      -9.003  15.601  37.244  1.00  0.00     0.046 C 
HETATM   37  C22 UNL     1      -7.761  16.684  35.445  1.00  0.00     0.046 C 
ENDBRANCH  33  34
ENDBRANCH  30  33
ENDBRANCH  28  29
ENDBRANCH  27  28
ENDBRANCH   4  27
TORSDOF 9
ENDMDL
MODEL 4
REMARK VINA RESULT: -8.362125190      1.976      3.849
REMARK  9 active torsions:
REMARK  status: ('A' for Active; 'I' for Inactive)
REMARK    1  A    between atoms: C2_2  and  C3_3 
REMARK    2  A    between atoms: C6_6  and  C7_7 
REMARK    3  A    between atoms: C9_12  and  N1_13 
REMARK       I    between atoms: N1_13  and  C10_15 
REMARK       I    between atoms: C10_15  and  N2_17 
REMARK    4  A    between atoms: N2_17  and  C11_19 
REMARK    5  A    between atoms: C14_22  and  C16_24 
REMARK    6  A    between atoms: C16_24  and  C17_25 
REMARK    7  A    between atoms: C17_25  and  N3_26 
REMARK       I    between atoms: N3_26  and  C18_28 
REMARK    8  A    between atoms: C18_28  and  O3_30 
REMARK    9  A    between atoms: O3_30  and  C19_31 
ROOT
HETATM    1  C11 UNL     1      -9.851  14.068  40.697  1.00  0.00     0.288 C 
HETATM    2  C12 UNL     1      -9.125  15.299  41.061  1.00  0.00     0.057 C 
HETATM    3  C13 UNL     1      -8.470  15.812  39.844  1.00  0.00     0.042 C 
HETATM    4  C14 UNL     1      -8.838  14.845  38.754  1.00  0.00     0.126 C 
HETATM    5  C15 UNL     1      -9.525  15.660  37.644  1.00  0.00     0.046 C 
HETATM    6  N4  UNL     1      -9.840  13.982  39.272  1.00  0.00    -0.046 N 
ATOM      7  H41 UNL     1     -10.757  14.169  38.868  1.00  0.00     0.280 HD
ATOM      8  H42 UNL     1      -9.730  13.022  38.945  1.00  0.00     0.280 HD
ENDROOT
BRANCH   1   9
HETATM    9  N2  UNL     1     -11.081  13.801  41.351  1.00  0.00    -0.315 N 
HETATM   10  C10 UNL     1     -12.409  14.107  41.083  1.00  0.00     0.322 C 
HETATM   11  N1  UNL     1     -13.450  13.729  42.023  1.00  0.00    -0.308 N 
HETATM   12  O1  UNL     1     -12.903  14.707  40.086  1.00  0.00    -0.247 OA
ATOM     13  H1  UNL     1     -13.119  13.339  42.906  1.00  0.00     0.170 HD
ATOM     14  H2  UNL     1     -10.965  13.263  42.209  1.00  0.00     0.166 HD
BRANCH  11  15
HETATM   15  C9  UNL     1     -14.833  13.820  41.897  1.00  0.00     0.043 A 
HETATM   16  C3  UNL     1     -15.468  14.766  42.707  1.00  0.00    -0.032 A 
HETATM   17  C4  UNL     1     -16.852  14.743  42.777  1.00  0.00     0.010 A 
HETATM   18  C5  UNL     1     -17.581  13.819  42.069  1.00  0.00     0.017 A 
HETATM   19  C6  UNL     1     -16.978  12.884  41.251  1.00  0.00     0.050 A 
HETATM   20  C8  UNL     1     -15.588  12.926  41.192  1.00  0.00     0.046 A 
BRANCH  16  21
HETATM   21  C2  UNL     1     -14.651  15.866  43.344  1.00  0.00     0.036 C 
HETATM   22  C1  UNL     1     -15.567  17.125  43.369  1.00  0.00     0.010 C 
ENDBRANCH  16  21
BRANCH  19  23
HETATM   23  C7  UNL     1     -17.812  11.871  40.514  1.00  0.00     0.417 C 
HETATM   24  F1  UNL     1     -18.981  12.445  40.026  1.00  0.00    -0.166 F 
HETATM   25  F2  UNL     1     -18.209  10.899  41.412  1.00  0.00    -0.166 F 
HETATM   26  F3  UNL     1     -17.091  11.394  39.446  1.00  0.00    -0.166 F 
ENDBRANCH  19  23
ENDBRANCH  11  15
ENDBRANCH   1   9
BRANCH   4  27
HETATM   27  C16 UNL     1      -7.706  14.144  38.078  1.00  0.00     0.058 C 
BRANCH  27  28
HETATM   28  C17 UNL     1      -7.011  14.905  36.990  1.00  0.00     0.127 C 
BRANCH  28  29
HETATM   29  N3  UNL     1      -6.250  15.988  37.611  1.00  0.00    -0.337 N 
HETATM   30  C18 UNL     1      -4.951  15.851  38.121  1.00  0.00     0.361 C 
HETATM   31  O2  UNL     1      -4.277  14.777  38.079  1.00  0.00    -0.238 OA
ATOM     32  H3  UNL     1      -6.693  16.904  37.678  1.00  0.00     0.164 HD
BRANCH  30  33
HETATM   33  O3  UNL     1      -4.312  16.906  38.739  1.00  0.00    -0.294 OA
BRANCH  33  34
HETATM   34  C19 UNL     1      -4.740  17.546  39.900  1.00  0.00     0.061 C 
HETATM   35  C20 UNL     1      -5.867  18.518  39.683  1.00  0.00     0.046 C 
HETATM   36  C21 UNL     1      -5.047  16.676  41.072  1.00  0.00     0.046 C 
HETATM   37  C22 UNL     1      -3.543  18.442  40.316  1.00  0.00     0.046 C 
ENDBRANCH  33  34
ENDBRANCH  30  33
ENDBRANCH  28  29
ENDBRANCH  27  28
ENDBRANCH   4  27
TORSDOF 9
ENDMDL
MODEL 5
REMARK VINA RESULT: -8.316806417      1.286      1.696
REMARK  9 active torsions:
REMARK  status: ('A' for Active; 'I' for Inactive)
REMARK    1  A    between atoms: C2_2  and  C3_3 
REMARK    2  A    between atoms: C6_6  and  C7_7 
REMARK    3  A    between atoms: C9_12  and  N1_13 
REMARK       I    between atoms: N1_13  and  C10_15 
REMARK       I    between atoms: C10_15  and  N2_17 
REMARK    4  A    between atoms: N2_17  and  C11_19 
REMARK    5  A    between atoms: C14_22  and  C16_24 
REMARK    6  A    between atoms: C16_24  and  C17_25 
REMARK    7  A    between atoms: C17_25  and  N3_26 
REMARK       I    between atoms: N3_26  and  C18_28 
REMARK    8  A    between atoms: C18_28  and  O3_30 
REMARK    9  A    between atoms: O3_30  and  C19_31 
ROOT
HETATM    1  C11 UNL     1     -10.480  15.353  40.589  1.00  0.00     0.288 C 
HETATM    2  C12 UNL     1      -9.848  14.712  41.757  1.00  0.00     0.057 C 
HETATM    3  C13 UNL     1      -8.971  15.708  42.398  1.00  0.00     0.042 C 
HETATM    4  C14 UNL     1      -9.112  16.955  41.572  1.00  0.00     0.126 C 
HETATM    5  C15 UNL     1      -9.574  18.075  42.522  1.00  0.00     0.046 C 
HETATM    6  N4  UNL     1     -10.190  16.748  40.670  1.00  0.00    -0.046 N 
ATOM      7  H41 UNL     1     -11.012  17.299  40.918  1.00  0.00     0.280 HD
ATOM      8  H42 UNL     1     -10.011  17.159  39.753  1.00  0.00     0.280 HD
ENDROOT
BRANCH   1   9
HETATM    9  N2  UNL     1     -11.812  14.988  40.267  1.00  0.00    -0.315 N 
HETATM   10  C10 UNL     1     -12.791  14.231  40.898  1.00  0.00     0.322 C 
HETATM   11  N1  UNL     1     -14.065  13.992  40.242  1.00  0.00    -0.308 N 
HETATM   12  O1  UNL     1     -12.759  13.672  42.030  1.00  0.00    -0.247 OA
ATOM     13  H1  UNL     1     -14.126  14.318  39.278  1.00  0.00     0.170 HD
ATOM     14  H2  UNL     1     -12.121  15.367  39.372  1.00  0.00     0.166 HD
BRANCH  11  15
HETATM   15  C9  UNL     1     -15.214  13.382  40.737  1.00  0.00     0.043 A 
HETATM   16  C3  UNL     1     -15.712  12.305  39.996  1.00  0.00    -0.032 A 
HETATM   17  C4  UNL     1     -16.964  11.809  40.323  1.00  0.00     0.010 A 
HETATM   18  C5  UNL     1     -17.696  12.357  41.348  1.00  0.00     0.017 A 
HETATM   19  C6  UNL     1     -17.221  13.411  42.103  1.00  0.00     0.050 A 
HETATM   20  C8  UNL     1     -15.961  13.892  41.760  1.00  0.00     0.046 A 
BRANCH  16  21
HETATM   21  C2  UNL     1     -14.819  11.623  38.986  1.00  0.00     0.036 C 
HETATM   22  C1  UNL     1     -15.725  11.287  37.765  1.00  0.00     0.010 C 
ENDBRANCH  16  21
BRANCH  19  23
HETATM   23  C7  UNL     1     -18.067  14.002  43.199  1.00  0.00     0.417 C 
HETATM   24  F1  UNL     1     -18.288  13.077  44.214  1.00  0.00    -0.166 F 
HETATM   25  F2  UNL     1     -19.311  14.298  42.675  1.00  0.00    -0.166 F 
HETATM   26  F3  UNL     1     -17.408  15.080  43.737  1.00  0.00    -0.166 F 
ENDBRANCH  19  23
ENDBRANCH  11  15
ENDBRANCH   1   9
BRANCH   4  27
HETATM   27  C16 UNL     1      -7.865  17.476  40.937  1.00  0.00     0.058 C 
BRANCH  27  28
HETATM   28  C17 UNL     1      -6.697  16.538  40.903  1.00  0.00     0.127 C 
BRANCH  28  29
HETATM   29  N3  UNL     1      -6.751  15.794  39.645  1.00  0.00    -0.337 N 
HETATM   30  C18 UNL     1      -6.318  16.296  38.410  1.00  0.00     0.361 C 
HETATM   31  O2  UNL     1      -5.807  17.445  38.245  1.00  0.00    -0.238 OA
ATOM     32  H3  UNL     1      -7.129  14.847  39.668  1.00  0.00     0.164 HD
BRANCH  30  33
HETATM   33  O3  UNL     1      -6.446  15.554  37.253  1.00  0.00    -0.294 OA
BRANCH  33  34
HETATM   34  C19 UNL     1      -7.586  15.485  36.455  1.00  0.00     0.061 C 
HETATM   35  C20 UNL     1      -8.859  15.264  37.225  1.00  0.00     0.046 C 
HETATM   36  C21 UNL     1      -7.782  16.586  35.468  1.00  0.00     0.046 C 
HETATM   37  C22 UNL     1      -7.409  14.180  35.634  1.00  0.00     0.046 C 
ENDBRANCH  33  34
ENDBRANCH  30  33
ENDBRANCH  28  29
ENDBRANCH  27  28
ENDBRANCH   4  27
TORSDOF 9
ENDMDL
