MODEL 1
REMARK VINA RESULT: -9.363397601      0.000      0.000
REMARK  8 active torsions:
REMARK  status: ('A' for Active; 'I' for Inactive)
REMARK    1  A    between atoms: C5_5  and  N1_6 
REMARK       I    between atoms: N1_6  and  C6_8 
REMARK    2  A    between atoms: C6_8  and  C7_10 
REMARK    3  A    between atoms: C7_10  and  C8_11 
REMARK       I    between atoms: C8_11  and  N2_13 
REMARK    4  A    between atoms: N2_13  and  C9_15 
REMARK    5  A    between atoms: C13_19  and  C14_20 
REMARK    6  A    between atoms: C14_20  and  O3_21 
REMARK    7  A    between atoms: C14_20  and  C15_23 
REMARK    8  A    between atoms: C23_31  and  C24_32 
ROOT
HETATM    1  C8  UNL     1     -10.027  15.726  41.075  1.00  0.00     0.226 C 
HETATM    2  O2  UNL     1      -9.624  14.630  41.496  1.00  0.00    -0.273 OA
HETATM    3  N2  UNL     1      -9.194  16.417  40.159  1.00  0.00    -0.356 N 
ATOM      4  H2  UNL     1      -9.506  17.319  39.801  1.00  0.00     0.162 HD
ENDROOT
BRANCH   1   5
HETATM    5  C7  UNL     1     -11.300  16.301  41.492  1.00  0.00     0.205 C 
BRANCH   5   6
HETATM    6  C6  UNL     1     -12.458  15.586  40.870  1.00  0.00     0.230 C 
HETATM    7  N1  UNL     1     -12.550  14.189  40.892  1.00  0.00    -0.327 N 
ATOM      8  H1  UNL     1     -11.784  13.702  41.358  1.00  0.00     0.169 HD
HETATM    9  O1  UNL     1     -13.336  16.273  40.334  1.00  0.00    -0.273 OA
BRANCH   7  10
HETATM   10  C5  UNL     1     -13.563  13.363  40.353  1.00  0.00     0.035 A 
HETATM   11  C4  UNL     1     -13.277  12.575  39.224  1.00  0.00     0.030 A 
HETATM   12  C3  UNL     1     -14.218  11.765  38.649  1.00  0.00     0.010 A 
HETATM   13  C2  UNL     1     -15.492  11.676  39.138  1.00  0.00    -0.047 A 
HETATM   14  C1  UNL     1     -16.427  10.772  38.444  1.00  0.00     0.049 C 
HETATM   15  C23 UNL     1     -15.804  12.425  40.229  1.00  0.00     0.056 A 
HETATM   16  C22 UNL     1     -14.848  13.259  40.827  1.00  0.00     0.046 A 
BRANCH  15  17
HETATM   17  C24 UNL     1     -17.178  12.352  40.785  1.00  0.00     0.418 C 
HETATM   18  F1  UNL     1     -18.120  12.972  39.996  1.00  0.00    -0.166 F 
HETATM   19  F2  UNL     1     -17.534  11.044  41.115  1.00  0.00    -0.166 F 
HETATM   20  F3  UNL     1     -17.180  13.037  41.986  1.00  0.00    -0.166 F 
ENDBRANCH  15  17
ENDBRANCH   7  10
ENDBRANCH   5   6
ENDBRANCH   1   5
BRANCH   3  21
HETATM   21  C9  UNL     1      -7.912  15.892  39.707  1.00  0.00     0.084 C 
HETATM   22  C10 UNL     1      -6.775  16.459  40.490  1.00  0.00     0.025 C 
HETATM   23  C11 UNL     1      -5.483  16.583  39.808  1.00  0.00     0.002 C 
HETATM   24  C12 UNL     1      -5.478  16.624  38.331  1.00  0.00     0.007 C 
HETATM   25  C13 UNL     1      -6.483  15.758  37.638  1.00  0.00     0.017 C 
HETATM   26  C21 UNL     1      -7.830  16.099  38.233  1.00  0.00     0.032 C 
BRANCH  25  27
HETATM   27  C14 UNL     1      -6.115  14.313  37.858  1.00  0.00     0.126 C 
BRANCH  27  28
HETATM   28  O3  UNL     1      -4.788  14.079  37.473  1.00  0.00    -0.395 OA
ATOM     29  H3  UNL     1      -4.721  13.269  36.982  1.00  0.00     0.210 HD
ENDBRANCH  27  28
BRANCH  27  30
HETATM   30  C15 UNL     1      -7.058  13.332  37.214  1.00  0.00     0.015 C 
HETATM   31  C16 UNL     1      -7.498  13.727  35.842  1.00  0.00     0.007 C 
HETATM   32  C17 UNL     1      -6.689  13.176  34.729  1.00  0.00     0.000 C 
HETATM   33  C18 UNL     1      -6.339  11.718  34.886  1.00  0.00     0.000 C 
HETATM   34  C19 UNL     1      -5.540  11.604  36.177  1.00  0.00     0.000 C 
HETATM   35  C20 UNL     1      -6.440  11.968  37.304  1.00  0.00     0.007 C 
ENDBRANCH  27  30
ENDBRANCH  25  27
ENDBRANCH   3  21
TORSDOF 8
ENDMDL
MODEL 2
REMARK VINA RESULT: -9.297751153      1.160      1.843
REMARK  8 active torsions:
REMARK  status: ('A' for Active; 'I' for Inactive)
REMARK    1  A    between atoms: C5_5  and  N1_6 
REMARK       I    between atoms: N1_6  and  C6_8 
REMARK    2  A    between atoms: C6_8  and  C7_10 
REMARK    3  A    between atoms: C7_10  and  C8_11 
REMARK       I    between atoms: C8_11  and  N2_13 
REMARK    4  A    between atoms: N2_13  and  C9_15 
REMARK    5  A    between atoms: C13_19  and  C14_20 
REMARK    6  A    between atoms: C14_20  and  O3_21 
REMARK    7  A    between atoms: C14_20  and  C15_23 
REMARK    8  A    between atoms: C23_31  and  C24_32 
ROOT
HETATM    1  C8  UNL     1      -9.848  15.579  41.493  1.00  0.00     0.226 C 
HETATM    2  O2  UNL     1      -9.350  14.506  41.870  1.00  0.00    -0.273 OA
HETATM    3  N2  UNL     1      -9.152  16.302  40.491  1.00  0.00    -0.356 N 
ATOM      4  H2  UNL     1      -9.544  17.186  40.168  1.00  0.00     0.162 HD
ENDROOT
BRANCH   1   5
HETATM    5  C7  UNL     1     -11.096  16.095  42.043  1.00  0.00     0.205 C 
BRANCH   5   6
HETATM    6  C6  UNL     1     -12.287  15.513  41.348  1.00  0.00     0.230 C 
HETATM    7  N1  UNL     1     -13.267  14.802  42.051  1.00  0.00    -0.327 N 
ATOM      8  H1  UNL     1     -13.114  14.713  43.056  1.00  0.00     0.169 HD
HETATM    9  O1  UNL     1     -12.376  15.683  40.126  1.00  0.00    -0.273 OA
BRANCH   7  10
HETATM   10  C5  UNL     1     -14.440  14.190  41.552  1.00  0.00     0.035 A 
HETATM   11  C4  UNL     1     -15.693  14.727  41.897  1.00  0.00     0.030 A 
HETATM   12  C3  UNL     1     -16.864  14.173  41.457  1.00  0.00     0.010 A 
HETATM   13  C2  UNL     1     -16.884  13.064  40.657  1.00  0.00    -0.047 A 
HETATM   14  C1  UNL     1     -18.200  12.549  40.239  1.00  0.00     0.049 C 
HETATM   15  C23 UNL     1     -15.690  12.518  40.304  1.00  0.00     0.056 A 
HETATM   16  C22 UNL     1     -14.483  13.076  40.749  1.00  0.00     0.046 A 
BRANCH  15  17
HETATM   17  C24 UNL     1     -15.677  11.314  39.437  1.00  0.00     0.418 C 
HETATM   18  F1  UNL     1     -16.370  10.250  39.969  1.00  0.00    -0.166 F 
HETATM   19  F2  UNL     1     -16.071  11.611  38.132  1.00  0.00    -0.166 F 
HETATM   20  F3  UNL     1     -14.364  10.893  39.327  1.00  0.00    -0.166 F 
ENDBRANCH  15  17
ENDBRANCH   7  10
ENDBRANCH   5   6
ENDBRANCH   1   5
BRANCH   3  21
HETATM   21  C9  UNL     1      -7.903  15.837  39.906  1.00  0.00     0.084 C 
HETATM   22  C10 UNL     1      -6.716  16.445  40.577  1.00  0.00     0.025 C 
HETATM   23  C11 UNL     1      -5.506  16.630  39.771  1.00  0.00     0.002 C 
HETATM   24  C12 UNL     1      -5.652  16.684  38.301  1.00  0.00     0.007 C 
HETATM   25  C13 UNL     1      -6.686  15.782  37.702  1.00  0.00     0.017 C 
HETATM   26  C21 UNL     1      -7.978  16.060  38.434  1.00  0.00     0.032 C 
BRANCH  25  27
HETATM   27  C14 UNL     1      -6.238  14.352  37.864  1.00  0.00     0.126 C 
BRANCH  27  28
HETATM   28  O3  UNL     1      -4.908  14.204  37.448  1.00  0.00    -0.395 OA
ATOM     29  H3  UNL     1      -4.859  13.639  36.685  1.00  0.00     0.210 HD
ENDBRANCH  27  28
BRANCH  27  30
HETATM   30  C15 UNL     1      -7.141  13.346  37.202  1.00  0.00     0.015 C 
HETATM   31  C16 UNL     1      -7.552  13.720  35.817  1.00  0.00     0.007 C 
HETATM   32  C17 UNL     1      -6.701  13.182  34.729  1.00  0.00     0.000 C 
HETATM   33  C18 UNL     1      -6.321  11.733  34.906  1.00  0.00     0.000 C 
HETATM   34  C19 UNL     1      -5.555  11.646  36.219  1.00  0.00     0.000 C 
HETATM   35  C20 UNL     1      -6.493  11.997  37.318  1.00  0.00     0.007 C 
ENDBRANCH  27  30
ENDBRANCH  25  27
ENDBRANCH   3  21
TORSDOF 8
ENDMDL
MODEL 3
REMARK VINA RESULT: -9.145902020      2.051      3.153
REMARK  8 active torsions:
REMARK  status: ('A' for Active; 'I' for Inactive)
REMARK    1  A    between atoms: C5_5  and  N1_6 
REMARK       I    between atoms: N1_6  and  C6_8 
REMARK    2  A    between atoms: C6_8  and  C7_10 
REMARK    3  A    between atoms: C7_10  and  C8_11 
REMARK       I    between atoms: C8_11  and  N2_13 
REMARK    4  A    between atoms: N2_13  and  C9_15 
REMARK    5  A    between atoms: C13_19  and  C14_20 
REMARK    6  A    between atoms: C14_20  and  O3_21 
REMARK    7  A    between atoms: C14_20  and  C15_23 
REMARK    8  A    between atoms: C23_31  and  C24_32 
ROOT
HETATM    1  C8  UNL     1     -11.589  16.907  41.189  1.00  0.00     0.226 C 
HETATM    2  O2  UNL     1     -11.486  15.704  40.903  1.00  0.00    -0.273 OA
HETATM    3  N2  UNL     1     -10.394  17.669  41.234  1.00  0.00    -0.356 N 
ATOM      4  H2  UNL     1     -10.457  18.660  41.467  1.00  0.00     0.162 HD
ENDROOT
BRANCH   1   5
HETATM    5  C7  UNL     1     -12.875  17.533  41.471  1.00  0.00     0.205 C 
BRANCH   5   6
HETATM    6  C6  UNL     1     -14.016  16.671  41.032  1.00  0.00     0.230 C 
HETATM    7  N1  UNL     1     -14.213  15.392  41.567  1.00  0.00    -0.327 N 
ATOM      8  H1  UNL     1     -13.535  15.097  42.270  1.00  0.00     0.169 HD
HETATM    9  O1  UNL     1     -14.784  17.128  40.175  1.00  0.00    -0.273 OA
BRANCH   7  10
HETATM   10  C5  UNL     1     -15.227  14.455  41.263  1.00  0.00     0.035 A 
HETATM   11  C4  UNL     1     -16.512  14.634  41.808  1.00  0.00     0.030 A 
HETATM   12  C3  UNL     1     -17.532  13.756  41.562  1.00  0.00     0.010 A 
HETATM   13  C2  UNL     1     -17.361  12.653  40.771  1.00  0.00    -0.047 A 
HETATM   14  C1  UNL     1     -18.526  11.773  40.570  1.00  0.00     0.049 C 
HETATM   15  C23 UNL     1     -16.132  12.449  40.228  1.00  0.00     0.056 A 
HETATM   16  C22 UNL     1     -15.079  13.341  40.473  1.00  0.00     0.046 A 
BRANCH  15  17
HETATM   17  C24 UNL     1     -15.914  11.261  39.365  1.00  0.00     0.418 C 
HETATM   18  F1  UNL     1     -16.353  10.086  39.932  1.00  0.00    -0.166 F 
HETATM   19  F2  UNL     1     -16.417  11.456  38.079  1.00  0.00    -0.166 F 
HETATM   20  F3  UNL     1     -14.550  11.112  39.197  1.00  0.00    -0.166 F 
ENDBRANCH  15  17
ENDBRANCH   7  10
ENDBRANCH   5   6
ENDBRANCH   1   5
BRANCH   3  21
HETATM   21  C9  UNL     1      -9.083  17.098  40.963  1.00  0.00     0.084 C 
HETATM   22  C10 UNL     1      -8.343  16.787  42.221  1.00  0.00     0.025 C 
HETATM   23  C11 UNL     1      -6.879  16.848  42.176  1.00  0.00     0.002 C 
HETATM   24  C12 UNL     1      -6.250  17.656  41.109  1.00  0.00     0.007 C 
HETATM   25  C13 UNL     1      -6.929  17.641  39.776  1.00  0.00     0.017 C 
HETATM   26  C21 UNL     1      -8.373  18.012  40.023  1.00  0.00     0.032 C 
BRANCH  25  27
HETATM   27  C14 UNL     1      -6.791  16.267  39.174  1.00  0.00     0.126 C 
BRANCH  27  28
HETATM   28  O3  UNL     1      -6.036  15.436  40.013  1.00  0.00    -0.395 OA
ATOM     29  H3  UNL     1      -5.128  15.714  40.027  1.00  0.00     0.210 HD
ENDBRANCH  27  28
BRANCH  27  30
HETATM   30  C15 UNL     1      -6.257  16.263  37.766  1.00  0.00     0.015 C 
HETATM   31  C16 UNL     1      -6.632  15.050  36.979  1.00  0.00     0.007 C 
HETATM   32  C17 UNL     1      -7.862  15.175  36.161  1.00  0.00     0.000 C 
HETATM   33  C18 UNL     1      -7.970  16.476  35.407  1.00  0.00     0.000 C 
HETATM   34  C19 UNL     1      -7.963  17.581  36.454  1.00  0.00     0.000 C 
HETATM   35  C20 UNL     1      -6.635  17.565  37.125  1.00  0.00     0.007 C 
ENDBRANCH  27  30
ENDBRANCH  25  27
ENDBRANCH   3  21
TORSDOF 8
ENDMDL
MODEL 4
REMARK VINA RESULT: -9.130396863      2.356      3.714
REMARK  8 active torsions:
REMARK  status: ('A' for Active; 'I' for Inactive)
REMARK    1  A    between atoms: C5_5  and  N1_6 
REMARK       I    between atoms: N1_6  and  C6_8 
REMARK    2  A    between atoms: C6_8  and  C7_10 
REMARK    3  A    between atoms: C7_10  and  C8_11 
REMARK       I    between atoms: C8_11  and  N2_13 
REMARK    4  A    between atoms: N2_13  and  C9_15 
REMARK    5  A    between atoms: C13_19  and  C14_20 
REMARK    6  A    between atoms: C14_20  and  O3_21 
REMARK    7  A    between atoms: C14_20  and  C15_23 
REMARK    8  A    between atoms: C23_31  and  C24_32 
ROOT
HETATM    1  C8  UNL     1     -11.373  16.523  41.810  1.00  0.00     0.226 C 
HETATM    2  O2  UNL     1     -11.020  17.711  41.881  1.00  0.00    -0.273 OA
HETATM    3  N2  UNL     1     -11.297  15.898  40.540  1.00  0.00    -0.356 N 
ATOM      4  H2  UNL     1     -11.583  14.922  40.459  1.00  0.00     0.162 HD
ENDROOT
BRANCH   1   5
HETATM    5  C7  UNL     1     -11.851  15.781  42.970  1.00  0.00     0.205 C 
BRANCH   5   6
HETATM    6  C6  UNL     1     -12.851  14.737  42.583  1.00  0.00     0.230 C 
HETATM    7  N1  UNL     1     -14.127  15.083  42.122  1.00  0.00    -0.327 N 
ATOM      8  H1  UNL     1     -14.322  16.083  42.067  1.00  0.00     0.169 HD
HETATM    9  O1  UNL     1     -12.510  13.552  42.684  1.00  0.00    -0.273 OA
BRANCH   7  10
HETATM   10  C5  UNL     1     -15.182  14.231  41.723  1.00  0.00     0.035 A 
HETATM   11  C4  UNL     1     -16.458  14.407  42.289  1.00  0.00     0.030 A 
HETATM   12  C3  UNL     1     -17.515  13.607  41.954  1.00  0.00     0.010 A 
HETATM   13  C2  UNL     1     -17.394  12.589  41.050  1.00  0.00    -0.047 A 
HETATM   14  C1  UNL     1     -18.597  11.788  40.759  1.00  0.00     0.049 C 
HETATM   15  C23 UNL     1     -16.174  12.389  40.483  1.00  0.00     0.056 A 
HETATM   16  C22 UNL     1     -15.082  13.202  40.818  1.00  0.00     0.046 A 
BRANCH  15  17
HETATM   17  C24 UNL     1     -16.009  11.292  39.497  1.00  0.00     0.418 C 
HETATM   18  F1  UNL     1     -16.440  10.070  39.963  1.00  0.00    -0.166 F 
HETATM   19  F2  UNL     1     -16.563  11.620  38.259  1.00  0.00    -0.166 F 
HETATM   20  F3  UNL     1     -14.655  11.148  39.256  1.00  0.00    -0.166 F 
ENDBRANCH  15  17
ENDBRANCH   7  10
ENDBRANCH   5   6
ENDBRANCH   1   5
BRANCH   3  21
HETATM   21  C9  UNL     1     -10.829  16.588  39.346  1.00  0.00     0.084 C 
HETATM   22  C10 UNL     1     -11.919  17.376  38.698  1.00  0.00     0.025 C 
HETATM   23  C11 UNL     1     -11.844  17.564  37.246  1.00  0.00     0.002 C 
HETATM   24  C12 UNL     1     -11.035  16.606  36.463  1.00  0.00     0.007 C 
HETATM   25  C13 UNL     1      -9.778  16.114  37.108  1.00  0.00     0.017 C 
HETATM   26  C21 UNL     1     -10.169  15.581  38.467  1.00  0.00     0.032 C 
BRANCH  25  27
HETATM   27  C14 UNL     1      -8.801  17.258  37.206  1.00  0.00     0.126 C 
BRANCH  27  28
HETATM   28  O3  UNL     1      -9.223  18.334  36.414  1.00  0.00    -0.395 OA
ATOM     29  H3  UNL     1      -8.728  19.117  36.625  1.00  0.00     0.210 HD
ENDBRANCH  27  28
BRANCH  27  30
HETATM   30  C15 UNL     1      -7.375  16.876  36.906  1.00  0.00     0.015 C 
HETATM   31  C16 UNL     1      -6.547  16.623  38.123  1.00  0.00     0.007 C 
HETATM   32  C17 UNL     1      -6.484  15.211  38.570  1.00  0.00     0.000 C 
HETATM   33  C18 UNL     1      -6.284  14.220  37.452  1.00  0.00     0.000 C 
HETATM   34  C19 UNL     1      -7.472  14.385  36.513  1.00  0.00     0.000 C 
HETATM   35  C20 UNL     1      -7.397  15.747  35.919  1.00  0.00     0.007 C 
ENDBRANCH  27  30
ENDBRANCH  25  27
ENDBRANCH   3  21
TORSDOF 8
ENDMDL
MODEL 5
REMARK VINA RESULT: -9.036746511      2.613      3.977
REMARK  8 active torsions:
REMARK  status: ('A' for Active; 'I' for Inactive)
REMARK    1  A    between atoms: C5_5  and  N1_6 
REMARK       I    between atoms: N1_6  and  C6_8 
REMARK    2  A    between atoms: C6_8  and  C7_10 
REMARK    3  A    between atoms: C7_10  and  C8_11 
REMARK       I    between atoms: C8_11  and  N2_13 
REMARK    4  A    between atoms: N2_13  and  C9_15 
REMARK    5  A    between atoms: C13_19  and  C14_20 
REMARK    6  A    between atoms: C14_20  and  O3_21 
REMARK    7  A    between atoms: C14_20  and  C15_23 
REMARK    8  A    between atoms: C23_31  and  C24_32 
ROOT
HETATM    1  C8  UNL     1     -11.344  12.415  39.280  1.00  0.00     0.226 C 
HETATM    2  O2  UNL     1     -10.327  11.710  39.193  1.00  0.00    -0.273 OA
HETATM    3  N2  UNL     1     -11.165  13.773  39.647  1.00  0.00    -0.356 N 
ATOM      4  H2  UNL     1     -11.988  14.370  39.724  1.00  0.00     0.162 HD
ENDROOT
BRANCH   1   5
HETATM    5  C7  UNL     1     -12.680  11.891  39.022  1.00  0.00     0.205 C 
BRANCH   5   6
HETATM    6  C6  UNL     1     -13.647  12.296  40.091  1.00  0.00     0.230 C 
HETATM    7  N1  UNL     1     -14.938  12.740  39.779  1.00  0.00    -0.327 N 
ATOM      8  H1  UNL     1     -15.169  12.764  38.785  1.00  0.00     0.169 HD
HETATM    9  O1  UNL     1     -13.265  12.226  41.266  1.00  0.00    -0.273 OA
BRANCH   7  10
HETATM   10  C5  UNL     1     -15.962  13.160  40.657  1.00  0.00     0.035 A 
HETATM   11  C4  UNL     1     -17.274  12.695  40.452  1.00  0.00     0.030 A 
HETATM   12  C3  UNL     1     -18.311  13.074  41.260  1.00  0.00     0.010 A 
HETATM   13  C2  UNL     1     -18.133  13.928  42.313  1.00  0.00    -0.047 A 
HETATM   14  C1  UNL     1     -19.317  14.271  43.120  1.00  0.00     0.049 C 
HETATM   15  C23 UNL     1     -16.877  14.398  42.540  1.00  0.00     0.056 A 
HETATM   16  C22 UNL     1     -15.806  14.016  41.719  1.00  0.00     0.046 A 
BRANCH  15  17
HETATM   17  C24 UNL     1     -16.650  15.326  43.675  1.00  0.00     0.418 C 
HETATM   18  F1  UNL     1     -17.196  16.574  43.478  1.00  0.00    -0.166 F 
HETATM   19  F2  UNL     1     -17.031  14.760  44.892  1.00  0.00    -0.166 F 
HETATM   20  F3  UNL     1     -15.285  15.525  43.785  1.00  0.00    -0.166 F 
ENDBRANCH  15  17
ENDBRANCH   7  10
ENDBRANCH   5   6
ENDBRANCH   1   5
BRANCH   3  21
HETATM   21  C9  UNL     1      -9.856  14.351  39.917  1.00  0.00     0.084 C 
HETATM   22  C10 UNL     1      -9.667  14.641  41.369  1.00  0.00     0.025 C 
HETATM   23  C11 UNL     1      -8.783  15.754  41.726  1.00  0.00     0.002 C 
HETATM   24  C12 UNL     1      -8.534  16.797  40.708  1.00  0.00     0.007 C 
HETATM   25  C13 UNL     1      -8.434  16.332  39.289  1.00  0.00     0.017 C 
HETATM   26  C21 UNL     1      -9.678  15.521  39.011  1.00  0.00     0.032 C 
BRANCH  25  27
HETATM   27  C14 UNL     1      -7.177  15.514  39.133  1.00  0.00     0.126 C 
BRANCH  27  28
HETATM   28  O3  UNL     1      -6.304  15.746  40.204  1.00  0.00    -0.395 OA
ATOM     29  H3  UNL     1      -5.410  15.539  39.956  1.00  0.00     0.210 HD
ENDBRANCH  27  28
BRANCH  27  30
HETATM   30  C15 UNL     1      -6.486  15.696  37.807  1.00  0.00     0.015 C 
HETATM   31  C16 UNL     1      -6.956  14.757  36.746  1.00  0.00     0.007 C 
HETATM   32  C17 UNL     1      -8.043  15.268  35.877  1.00  0.00     0.000 C 
HETATM   33  C18 UNL     1      -7.847  16.691  35.420  1.00  0.00     0.000 C 
HETATM   34  C19 UNL     1      -7.786  17.543  36.681  1.00  0.00     0.000 C 
HETATM   35  C20 UNL     1      -6.568  17.148  37.439  1.00  0.00     0.007 C 
ENDBRANCH  27  30
ENDBRANCH  25  27
ENDBRANCH   3  21
TORSDOF 8
ENDMDL
