MODEL 1
REMARK VINA RESULT: -8.943295082      0.000      0.000
REMARK  7 active torsions:
REMARK  status: ('A' for Active; 'I' for Inactive)
REMARK       I    between atoms: C1_2  and  N1_3 
REMARK       I    between atoms: C1_2  and  N2_13 
REMARK    1  A    between atoms: N1_3  and  C2_5 
REMARK    2  A    between atoms: C5_8  and  O2_9 
REMARK    3  A    between atoms: N2_13  and  C8_15 
REMARK    4  A    between atoms: C12_19  and  C13_20 
REMARK    5  A    between atoms: C13_20  and  N3_21 
REMARK    6  A    between atoms: N3_21  and  C14_23 
REMARK    7  A    between atoms: C14_23  and  C15_24 
ROOT
HETATM    1  C8  UNL     1     -11.044  15.495  40.588  1.00  0.00     0.086 C 
HETATM    2  C9  UNL     1      -9.660  14.846  40.524  1.00  0.00     0.025 C 
HETATM    3  C10 UNL     1      -8.643  15.809  40.952  1.00  0.00     0.003 C 
HETATM    4  C11 UNL     1      -8.627  17.096  40.155  1.00  0.00     0.010 C 
HETATM    5  C12 UNL     1      -9.805  17.345  39.310  1.00  0.00     0.025 C 
HETATM    6  C21 UNL     1     -11.087  16.786  39.948  1.00  0.00     0.035 C 
ENDROOT
BRANCH   1   7
HETATM    7  N2  UNL     1     -11.925  14.528  39.933  1.00  0.00    -0.339 N 
HETATM    8  C1  UNL     1     -13.203  14.252  40.511  1.00  0.00     0.316 C 
HETATM    9  O1  UNL     1     -13.524  14.880  41.554  1.00  0.00    -0.247 OA
HETATM   10  N1  UNL     1     -14.065  13.319  39.955  1.00  0.00    -0.339 N 
ATOM     11  H1  UNL     1     -13.745  12.871  39.097  1.00  0.00     0.164 HD
ATOM     12  H2  UNL     1     -11.632  14.056  39.077  1.00  0.00     0.164 HD
BRANCH  10  13
HETATM   13  C2  UNL     1     -15.370  12.900  40.444  1.00  0.00     0.086 C 
HETATM   14  C3  UNL     1     -16.023  11.889  39.585  1.00  0.00     0.028 C 
HETATM   15  C4  UNL     1     -17.168  11.235  40.377  1.00  0.00     0.034 C 
HETATM   16  C5  UNL     1     -17.693  12.150  41.423  1.00  0.00     0.118 C 
HETATM   17  C6  UNL     1     -17.635  13.589  41.062  1.00  0.00     0.034 C 
HETATM   18  C7  UNL     1     -16.250  14.081  40.689  1.00  0.00     0.028 C 
BRANCH  16  19
HETATM   19  O2  UNL     1     -19.057  11.824  41.592  1.00  0.00    -0.396 OA
ATOM     20  H2  UNL     1     -19.514  12.180  40.838  1.00  0.00     0.210 HD
ENDBRANCH  16  19
ENDBRANCH  10  13
ENDBRANCH   1   7
BRANCH   5  21
HETATM   21  C13 UNL     1      -9.826  16.945  37.901  1.00  0.00     0.060 C 
BRANCH  21  22
HETATM   22  N3  UNL     1      -9.206  17.699  36.898  1.00  0.00    -0.398 N 
ATOM     23  H3  UNL     1      -9.739  18.378  36.354  1.00  0.00     0.158 HD
BRANCH  22  24
HETATM   24  C14 UNL     1      -7.793  17.498  36.647  1.00  0.00     0.159 C 
BRANCH  24  25
HETATM   25  C15 UNL     1      -7.360  16.138  36.767  1.00  0.00    -0.017 A 
HETATM   26  C16 UNL     1      -7.941  15.166  35.909  1.00  0.00     0.012 A 
HETATM   27  C17 UNL     1      -7.516  13.851  35.859  1.00  0.00     0.026 A 
HETATM   28  C18 UNL     1      -6.489  13.460  36.678  1.00  0.00     0.057 A 
HETATM   29 CL1  UNL     1      -5.897  11.819  36.658  1.00  0.00    -0.082 Cl
HETATM   30  C19 UNL     1      -5.897  14.370  37.522  1.00  0.00     0.078 A 
HETATM   31 CL2  UNL     1      -4.596  13.924  38.601  1.00  0.00    -0.081 Cl
HETATM   32  C20 UNL     1      -6.352  15.703  37.551  1.00  0.00     0.065 A 
HETATM   33 CL3  UNL     1      -5.508  16.774  38.688  1.00  0.00    -0.082 Cl
ENDBRANCH  24  25
ENDBRANCH  22  24
ENDBRANCH  21  22
ENDBRANCH   5  21
TORSDOF 7
ENDMDL
MODEL 2
REMARK VINA RESULT: -8.557415619      3.752      7.863
REMARK  7 active torsions:
REMARK  status: ('A' for Active; 'I' for Inactive)
REMARK       I    between atoms: C1_2  and  N1_3 
REMARK       I    between atoms: C1_2  and  N2_13 
REMARK    1  A    between atoms: N1_3  and  C2_5 
REMARK    2  A    between atoms: C5_8  and  O2_9 
REMARK    3  A    between atoms: N2_13  and  C8_15 
REMARK    4  A    between atoms: C12_19  and  C13_20 
REMARK    5  A    between atoms: C13_20  and  N3_21 
REMARK    6  A    between atoms: N3_21  and  C14_23 
REMARK    7  A    between atoms: C14_23  and  C15_24 
ROOT
HETATM    1  C8  UNL     1     -13.292  17.877  40.692  1.00  0.00     0.086 C 
HETATM    2  C9  UNL     1     -14.109  16.620  40.385  1.00  0.00     0.025 C 
HETATM    3  C10 UNL     1     -15.538  16.919  40.509  1.00  0.00     0.003 C 
HETATM    4  C11 UNL     1     -15.948  17.461  41.861  1.00  0.00     0.010 C 
HETATM    5  C12 UNL     1     -14.853  17.920  42.730  1.00  0.00     0.025 C 
HETATM    6  C21 UNL     1     -13.699  18.525  41.914  1.00  0.00     0.035 C 
ENDROOT
BRANCH   1   7
HETATM    7  N2  UNL     1     -11.911  17.400  40.757  1.00  0.00    -0.339 N 
HETATM    8  C1  UNL     1     -11.299  16.884  39.572  1.00  0.00     0.316 C 
HETATM    9  O1  UNL     1     -11.977  16.888  38.512  1.00  0.00    -0.247 OA
HETATM   10  N1  UNL     1     -10.006  16.385  39.581  1.00  0.00    -0.339 N 
ATOM     11  H1  UNL     1      -9.512  16.439  40.472  1.00  0.00     0.164 HD
ATOM     12  H2  UNL     1     -11.391  17.433  41.635  1.00  0.00     0.164 HD
BRANCH  10  13
HETATM   13  C2  UNL     1      -9.264  15.792  38.478  1.00  0.00     0.086 C 
HETATM   14  C3  UNL     1      -8.224  14.837  38.914  1.00  0.00     0.028 C 
HETATM   15  C4  UNL     1      -7.793  13.991  37.704  1.00  0.00     0.034 C 
HETATM   16  C5  UNL     1      -8.011  14.722  36.429  1.00  0.00     0.118 C 
HETATM   17  C6  UNL     1      -7.839  16.193  36.529  1.00  0.00     0.034 C 
HETATM   18  C7  UNL     1      -8.714  16.850  37.579  1.00  0.00     0.028 C 
BRANCH  16  19
HETATM   19  O2  UNL     1      -7.028  14.256  35.527  1.00  0.00    -0.396 OA
ATOM     20  H2  UNL     1      -6.361  14.931  35.484  1.00  0.00     0.210 HD
ENDBRANCH  16  19
ENDBRANCH  10  13
ENDBRANCH   1   7
BRANCH   5  21
HETATM   21  C13 UNL     1     -14.246  17.029  43.721  1.00  0.00     0.060 C 
BRANCH  21  22
HETATM   22  N3  UNL     1     -14.581  15.673  43.813  1.00  0.00    -0.398 N 
ATOM     23  H3  UNL     1     -15.543  15.387  43.990  1.00  0.00     0.158 HD
BRANCH  22  24
HETATM   24  C14 UNL     1     -13.534  14.684  43.653  1.00  0.00     0.159 C 
BRANCH  24  25
HETATM   25  C15 UNL     1     -13.582  13.968  42.413  1.00  0.00    -0.017 A 
HETATM   26  C16 UNL     1     -14.852  13.592  41.899  1.00  0.00     0.012 A 
HETATM   27  C17 UNL     1     -15.023  13.004  40.660  1.00  0.00     0.026 A 
HETATM   28  C18 UNL     1     -13.915  12.764  39.888  1.00  0.00     0.057 A 
HETATM   29 CL1  UNL     1     -14.059  12.035  38.310  1.00  0.00    -0.082 Cl
HETATM   30  C19 UNL     1     -12.667  13.115  40.346  1.00  0.00     0.078 A 
HETATM   31 CL2  UNL     1     -11.220  12.819  39.413  1.00  0.00    -0.081 Cl
HETATM   32  C20 UNL     1     -12.526  13.714  41.614  1.00  0.00     0.065 A 
HETATM   33 CL3  UNL     1     -10.862  14.111  42.089  1.00  0.00    -0.082 Cl
ENDBRANCH  24  25
ENDBRANCH  22  24
ENDBRANCH  21  22
ENDBRANCH   5  21
TORSDOF 7
ENDMDL
MODEL 3
REMARK VINA RESULT: -8.533833190      2.150      2.746
REMARK  7 active torsions:
REMARK  status: ('A' for Active; 'I' for Inactive)
REMARK       I    between atoms: C1_2  and  N1_3 
REMARK       I    between atoms: C1_2  and  N2_13 
REMARK    1  A    between atoms: N1_3  and  C2_5 
REMARK    2  A    between atoms: C5_8  and  O2_9 
REMARK    3  A    between atoms: N2_13  and  C8_15 
REMARK    4  A    between atoms: C12_19  and  C13_20 
REMARK    5  A    between atoms: C13_20  and  N3_21 
REMARK    6  A    between atoms: N3_21  and  C14_23 
REMARK    7  A    between atoms: C14_23  and  C15_24 
ROOT
HETATM    1  C8  UNL     1     -11.858  15.663  42.968  1.00  0.00     0.086 C 
HETATM    2  C9  UNL     1     -10.442  15.131  43.205  1.00  0.00     0.025 C 
HETATM    3  C10 UNL     1      -9.690  16.082  44.026  1.00  0.00     0.003 C 
HETATM    4  C11 UNL     1      -9.606  17.478  43.447  1.00  0.00     0.010 C 
HETATM    5  C12 UNL     1     -10.538  17.777  42.348  1.00  0.00     0.025 C 
HETATM    6  C21 UNL     1     -11.873  17.034  42.522  1.00  0.00     0.035 C 
ENDROOT
BRANCH   1   7
HETATM    7  N2  UNL     1     -12.420  14.754  41.969  1.00  0.00    -0.339 N 
HETATM    8  C1  UNL     1     -13.799  14.389  42.061  1.00  0.00     0.316 C 
HETATM    9  O1  UNL     1     -14.478  14.892  42.993  1.00  0.00    -0.247 OA
HETATM   10  N1  UNL     1     -14.377  13.504  41.165  1.00  0.00    -0.339 N 
ATOM     11  H1  UNL     1     -13.769  13.159  40.422  1.00  0.00     0.164 HD
ATOM     12  H2  UNL     1     -11.836  14.385  41.217  1.00  0.00     0.164 HD
BRANCH  10  13
HETATM   13  C2  UNL     1     -15.744  13.005  41.150  1.00  0.00     0.086 C 
HETATM   14  C3  UNL     1     -15.986  11.978  40.115  1.00  0.00     0.028 C 
HETATM   15  C4  UNL     1     -17.299  11.248  40.441  1.00  0.00     0.034 C 
HETATM   16  C5  UNL     1     -18.217  12.113  41.227  1.00  0.00     0.118 C 
HETATM   17  C6  UNL     1     -18.116  13.560  40.911  1.00  0.00     0.034 C 
HETATM   18  C7  UNL     1     -16.720  14.132  41.062  1.00  0.00     0.028 C 
BRANCH  16  19
HETATM   19  O2  UNL     1     -19.530  11.711  40.893  1.00  0.00    -0.396 OA
ATOM     20  H2  UNL     1     -19.455  11.162  40.122  1.00  0.00     0.210 HD
ENDBRANCH  16  19
ENDBRANCH  10  13
ENDBRANCH   1   7
BRANCH   5  21
HETATM   21  C13 UNL     1     -10.141  17.608  40.949  1.00  0.00     0.060 C 
BRANCH  21  22
HETATM   22  N3  UNL     1     -11.070  17.585  39.903  1.00  0.00    -0.398 N 
ATOM     23  H3  UNL     1     -11.576  18.431  39.640  1.00  0.00     0.158 HD
BRANCH  22  24
HETATM   24  C14 UNL     1     -11.301  16.338  39.201  1.00  0.00     0.159 C 
BRANCH  24  25
HETATM   25  C15 UNL     1     -10.123  15.755  38.631  1.00  0.00    -0.017 A 
HETATM   26  C16 UNL     1      -9.632  14.544  39.187  1.00  0.00     0.012 A 
HETATM   27  C17 UNL     1      -8.576  13.836  38.644  1.00  0.00     0.026 A 
HETATM   28  C18 UNL     1      -7.966  14.326  37.518  1.00  0.00     0.057 A 
HETATM   29 CL1  UNL     1      -6.635  13.478  36.774  1.00  0.00    -0.082 Cl
HETATM   30  C19 UNL     1      -8.412  15.494  36.946  1.00  0.00     0.078 A 
HETATM   31 CL2  UNL     1      -7.663  16.174  35.520  1.00  0.00    -0.081 Cl
HETATM   32  C20 UNL     1      -9.491  16.193  37.523  1.00  0.00     0.065 A 
HETATM   33 CL3  UNL     1      -9.964  17.689  36.692  1.00  0.00    -0.082 Cl
ENDBRANCH  24  25
ENDBRANCH  22  24
ENDBRANCH  21  22
ENDBRANCH   5  21
TORSDOF 7
ENDMDL
MODEL 4
REMARK VINA RESULT: -8.390717424      4.143      6.296
REMARK  7 active torsions:
REMARK  status: ('A' for Active; 'I' for Inactive)
REMARK       I    between atoms: C1_2  and  N1_3 
REMARK       I    between atoms: C1_2  and  N2_13 
REMARK    1  A    between atoms: N1_3  and  C2_5 
REMARK    2  A    between atoms: C5_8  and  O2_9 
REMARK    3  A    between atoms: N2_13  and  C8_15 
REMARK    4  A    between atoms: C12_19  and  C13_20 
REMARK    5  A    between atoms: C13_20  and  N3_21 
REMARK    6  A    between atoms: N3_21  and  C14_23 
REMARK    7  A    between atoms: C14_23  and  C15_24 
ROOT
HETATM    1  C8  UNL     1     -10.842  14.463  39.525  1.00  0.00     0.086 C 
HETATM    2  C9  UNL     1     -10.394  15.510  38.502  1.00  0.00     0.025 C 
HETATM    3  C10 UNL     1      -8.958  15.368  38.249  1.00  0.00     0.003 C 
HETATM    4  C11 UNL     1      -8.092  15.479  39.486  1.00  0.00     0.010 C 
HETATM    5  C12 UNL     1      -8.795  15.378  40.775  1.00  0.00     0.025 C 
HETATM    6  C21 UNL     1      -9.996  14.422  40.691  1.00  0.00     0.035 C 
ENDROOT
BRANCH   1   7
HETATM    7  N2  UNL     1     -12.214  14.849  39.854  1.00  0.00    -0.339 N 
HETATM    8  C1  UNL     1     -13.189  13.825  40.071  1.00  0.00     0.316 C 
HETATM    9  O1  UNL     1     -12.811  12.628  39.991  1.00  0.00    -0.247 OA
HETATM   10  N1  UNL     1     -14.512  14.131  40.351  1.00  0.00    -0.339 N 
ATOM     11  H1  UNL     1     -14.735  15.123  40.424  1.00  0.00     0.164 HD
ATOM     12  H2  UNL     1     -12.472  15.833  39.929  1.00  0.00     0.164 HD
BRANCH  10  13
HETATM   13  C2  UNL     1     -15.622  13.212  40.553  1.00  0.00     0.086 C 
HETATM   14  C3  UNL     1     -15.794  12.244  39.448  1.00  0.00     0.028 C 
HETATM   15  C4  UNL     1     -16.699  11.099  39.932  1.00  0.00     0.034 C 
HETATM   16  C5  UNL     1     -17.606  11.550  41.019  1.00  0.00     0.118 C 
HETATM   17  C6  UNL     1     -18.030  12.969  40.913  1.00  0.00     0.034 C 
HETATM   18  C7  UNL     1     -16.882  13.957  40.848  1.00  0.00     0.028 C 
BRANCH  16  19
HETATM   19  O2  UNL     1     -18.776  10.765  40.915  1.00  0.00    -0.396 OA
ATOM     20  H2  UNL     1     -18.783  10.192  41.673  1.00  0.00     0.210 HD
ENDBRANCH  16  19
ENDBRANCH  10  13
ENDBRANCH   1   7
BRANCH   5  21
HETATM   21  C13 UNL     1      -9.256  16.575  41.483  1.00  0.00     0.060 C 
BRANCH  21  22
HETATM   22  N3  UNL     1     -10.200  16.518  42.514  1.00  0.00    -0.398 N 
ATOM     23  H3  UNL     1     -10.111  15.830  43.262  1.00  0.00     0.158 HD
BRANCH  22  24
HETATM   24  C14 UNL     1     -11.307  17.453  42.500  1.00  0.00     0.159 C 
BRANCH  24  25
HETATM   25  C15 UNL     1     -12.584  16.862  42.773  1.00  0.00    -0.017 A 
HETATM   26  C16 UNL     1     -12.618  15.567  43.355  1.00  0.00     0.012 A 
HETATM   27  C17 UNL     1     -13.787  14.953  43.765  1.00  0.00     0.026 A 
HETATM   28  C18 UNL     1     -14.973  15.620  43.598  1.00  0.00     0.057 A 
HETATM   29 CL1  UNL     1     -16.484  14.908  44.103  1.00  0.00    -0.082 Cl
HETATM   30  C19 UNL     1     -14.984  16.877  43.041  1.00  0.00     0.078 A 
HETATM   31 CL2  UNL     1     -16.468  17.766  42.789  1.00  0.00    -0.081 Cl
HETATM   32  C20 UNL     1     -13.776  17.476  42.633  1.00  0.00     0.065 A 
HETATM   33 CL3  UNL     1     -13.930  19.096  41.922  1.00  0.00    -0.082 Cl
ENDBRANCH  24  25
ENDBRANCH  22  24
ENDBRANCH  21  22
ENDBRANCH   5  21
TORSDOF 7
ENDMDL
MODEL 5
REMARK VINA RESULT: -8.389367836      4.989      8.992
REMARK  7 active torsions:
REMARK  status: ('A' for Active; 'I' for Inactive)
REMARK       I    between atoms: C1_2  and  N1_3 
REMARK       I    between atoms: C1_2  and  N2_13 
REMARK    1  A    between atoms: N1_3  and  C2_5 
REMARK    2  A    between atoms: C5_8  and  O2_9 
REMARK    3  A    between atoms: N2_13  and  C8_15 
REMARK    4  A    between atoms: C12_19  and  C13_20 
REMARK    5  A    between atoms: C13_20  and  N3_21 
REMARK    6  A    between atoms: N3_21  and  C14_23 
REMARK    7  A    between atoms: C14_23  and  C15_24 
ROOT
HETATM    1  C8  UNL     1     -10.679  16.261  42.410  1.00  0.00     0.086 C 
HETATM    2  C9  UNL     1     -10.678  17.610  43.133  1.00  0.00     0.025 C 
HETATM    3  C10 UNL     1     -11.258  17.453  44.470  1.00  0.00     0.003 C 
HETATM    4  C11 UNL     1     -12.660  16.884  44.480  1.00  0.00     0.010 C 
HETATM    5  C12 UNL     1     -13.115  16.269  43.223  1.00  0.00     0.025 C 
HETATM    6  C21 UNL     1     -11.955  15.594  42.472  1.00  0.00     0.035 C 
ENDROOT
BRANCH   1   7
HETATM    7  N2  UNL     1     -10.297  16.590  41.037  1.00  0.00    -0.339 N 
HETATM    8  C1  UNL     1      -9.562  15.631  40.273  1.00  0.00     0.316 C 
HETATM    9  O1  UNL     1      -9.296  14.528  40.815  1.00  0.00    -0.247 OA
HETATM   10  N1  UNL     1      -9.142  15.902  38.980  1.00  0.00    -0.339 N 
ATOM     11  H1  UNL     1      -9.417  16.807  38.601  1.00  0.00     0.164 HD
ATOM     12  H2  UNL     1     -10.551  17.491  40.630  1.00  0.00     0.164 HD
BRANCH  10  13
HETATM   13  C2  UNL     1      -8.356  15.054  38.096  1.00  0.00     0.086 C 
HETATM   14  C3  UNL     1      -6.914  15.043  38.419  1.00  0.00     0.028 C 
HETATM   15  C4  UNL     1      -6.259  13.844  37.713  1.00  0.00     0.034 C 
HETATM   16  C5  UNL     1      -7.015  13.456  36.494  1.00  0.00     0.118 C 
HETATM   17  C6  UNL     1      -7.669  14.590  35.793  1.00  0.00     0.034 C 
HETATM   18  C7  UNL     1      -8.608  15.400  36.665  1.00  0.00     0.028 C 
BRANCH  16  19
HETATM   19  O2  UNL     1      -6.072  12.908  35.595  1.00  0.00    -0.396 OA
ATOM     20  H2  UNL     1      -6.371  13.134  34.722  1.00  0.00     0.210 HD
ENDBRANCH  16  19
ENDBRANCH  10  13
ENDBRANCH   1   7
BRANCH   5  21
HETATM   21  C13 UNL     1     -13.868  17.039  42.230  1.00  0.00     0.060 C 
BRANCH  21  22
HETATM   22  N3  UNL     1     -15.084  16.593  41.701  1.00  0.00    -0.398 N 
ATOM     23  H3  UNL     1     -15.496  17.051  40.888  1.00  0.00     0.158 HD
BRANCH  22  24
HETATM   24  C14 UNL     1     -15.748  15.468  42.330  1.00  0.00     0.159 C 
BRANCH  24  25
HETATM   25  C15 UNL     1     -15.942  14.340  41.468  1.00  0.00    -0.017 A 
HETATM   26  C16 UNL     1     -14.857  13.918  40.653  1.00  0.00     0.012 A 
HETATM   27  C17 UNL     1     -14.896  12.776  39.874  1.00  0.00     0.026 A 
HETATM   28  C18 UNL     1     -16.036  12.016  39.879  1.00  0.00     0.057 A 
HETATM   29 CL1  UNL     1     -16.150  10.558  38.928  1.00  0.00    -0.082 Cl
HETATM   30  C19 UNL     1     -17.109  12.387  40.655  1.00  0.00     0.078 A 
HETATM   31 CL2  UNL     1     -18.594  11.465  40.688  1.00  0.00    -0.081 Cl
HETATM   32  C20 UNL     1     -17.039  13.556  41.439  1.00  0.00     0.065 A 
HETATM   33 CL3  UNL     1     -18.492  13.927  42.389  1.00  0.00    -0.082 Cl
ENDBRANCH  24  25
ENDBRANCH  22  24
ENDBRANCH  21  22
ENDBRANCH   5  21
TORSDOF 7
ENDMDL
