MODEL 1
REMARK VINA RESULT: -5.851900908      0.000      0.000
REMARK  5 active torsions:
REMARK  status: ('A' for Active; 'I' for Inactive)
REMARK    1  A    between atoms: C1_2  and  C2_3 
REMARK    2  A    between atoms: C1_2  and  C5_9 
REMARK    3  A    between atoms: C2_3  and  C3_4 
REMARK    4  A    between atoms: C3_4  and  S1_5 
REMARK    5  A    between atoms: S1_5  and  C4_7 
ROOT
HETATM    1  C5  UNL     1      -4.529   5.809  -5.331  1.00  0.00     0.080 A 
HETATM    2  C6  UNL     1      -3.716   6.816  -5.803  1.00  0.00     0.055 A 
HETATM    3  C7  UNL     1      -3.746   6.780  -7.179  1.00  0.00     0.047 A 
HETATM    4 BR2  UNL     1      -2.822   7.924  -8.415  1.00  0.00    -0.048 Br
HETATM    5  C8  UNL     1      -4.582   5.747  -7.537  1.00  0.00     0.098 A 
HETATM    6 BR3  UNL     1      -4.993   5.241  -9.341  1.00  0.00    -0.030 Br
HETATM    7  N1  UNL     1      -5.029   5.192  -6.405  1.00  0.00    -0.346 N 
ATOM      8  H1  UNL     1      -5.670   4.399  -6.366  1.00  0.00     0.167 HD
ENDROOT
BRANCH   1   9
HETATM    9  C1  UNL     1      -4.788   5.488  -3.918  1.00  0.00     0.176 C 
HETATM   10  O1  UNL     1      -5.966   5.416  -3.479  1.00  0.00    -0.291 OA
BRANCH   9  11
HETATM   11  C2  UNL     1      -3.673   5.240  -2.980  1.00  0.00     0.098 C 
BRANCH  11  12
HETATM   12  C3  UNL     1      -3.820   6.060  -1.734  1.00  0.00     0.117 C 
BRANCH  12  13
HETATM   13  S1  UNL     1      -4.323   5.051  -0.362  1.00  0.00     0.025 S 
HETATM   14  O2  UNL     1      -4.638   3.510  -0.966  1.00  0.00    -0.257 OA
BRANCH  13  15
HETATM   15  C4  UNL     1      -5.832   5.672   0.309  1.00  0.00     0.193 C 
HETATM   16 BR1  UNL     1      -5.519   6.856   1.794  1.00  0.00    -0.083 Br
ENDBRANCH  13  15
ENDBRANCH  12  13
ENDBRANCH  11  12
ENDBRANCH   9  11
ENDBRANCH   1   9
TORSDOF 5
ENDMDL
MODEL 2
REMARK VINA RESULT: -5.739068414      1.022      1.809
REMARK  5 active torsions:
REMARK  status: ('A' for Active; 'I' for Inactive)
REMARK    1  A    between atoms: C1_2  and  C2_3 
REMARK    2  A    between atoms: C1_2  and  C5_9 
REMARK    3  A    between atoms: C2_3  and  C3_4 
REMARK    4  A    between atoms: C3_4  and  S1_5 
REMARK    5  A    between atoms: S1_5  and  C4_7 
ROOT
HETATM    1  C5  UNL     1      -4.512   5.697  -5.241  1.00  0.00     0.080 A 
HETATM    2  C6  UNL     1      -5.052   5.040  -6.326  1.00  0.00     0.055 A 
HETATM    3  C7  UNL     1      -4.602   5.660  -7.469  1.00  0.00     0.047 A 
HETATM    4 BR2  UNL     1      -5.000   5.214  -9.294  1.00  0.00    -0.048 Br
HETATM    5  C8  UNL     1      -3.786   6.695  -7.071  1.00  0.00     0.098 A 
HETATM    6 BR3  UNL     1      -2.882   7.900  -8.259  1.00  0.00    -0.030 Br
HETATM    7  N1  UNL     1      -3.759   6.683  -5.733  1.00  0.00    -0.346 N 
ATOM      8  H1  UNL     1      -3.230   7.343  -5.163  1.00  0.00     0.167 HD
ENDROOT
BRANCH   1   9
HETATM    9  C1  UNL     1      -4.730   5.365  -3.824  1.00  0.00     0.176 C 
HETATM   10  O1  UNL     1      -5.888   5.382  -3.329  1.00  0.00    -0.291 OA
BRANCH   9  11
HETATM   11  C2  UNL     1      -3.597   5.001  -2.947  1.00  0.00     0.098 C 
BRANCH  11  12
HETATM   12  C3  UNL     1      -4.063   4.231  -1.748  1.00  0.00     0.117 C 
BRANCH  12  13
HETATM   13  S1  UNL     1      -3.952   5.216  -0.275  1.00  0.00     0.025 S 
HETATM   14  O2  UNL     1      -3.100   4.313   0.864  1.00  0.00    -0.257 OA
BRANCH  13  15
HETATM   15  C4  UNL     1      -5.567   5.496   0.376  1.00  0.00     0.193 C 
HETATM   16 BR1  UNL     1      -5.549   6.796   1.796  1.00  0.00    -0.083 Br
ENDBRANCH  13  15
ENDBRANCH  12  13
ENDBRANCH  11  12
ENDBRANCH   9  11
ENDBRANCH   1   9
TORSDOF 5
ENDMDL
MODEL 3
REMARK VINA RESULT: -5.632187011      1.552      2.128
REMARK  5 active torsions:
REMARK  status: ('A' for Active; 'I' for Inactive)
REMARK    1  A    between atoms: C1_2  and  C2_3 
REMARK    2  A    between atoms: C1_2  and  C5_9 
REMARK    3  A    between atoms: C2_3  and  C3_4 
REMARK    4  A    between atoms: C3_4  and  S1_5 
REMARK    5  A    between atoms: S1_5  and  C4_7 
ROOT
HETATM    1  C5  UNL     1      -3.623   6.169  -4.912  1.00  0.00     0.080 A 
HETATM    2  C6  UNL     1      -4.428   5.428  -5.749  1.00  0.00     0.055 A 
HETATM    3  C7  UNL     1      -4.228   5.870  -7.037  1.00  0.00     0.047 A 
HETATM    4 BR2  UNL     1      -5.057   5.237  -8.649  1.00  0.00    -0.048 Br
HETATM    5  C8  UNL     1      -3.296   6.882  -6.976  1.00  0.00     0.098 A 
HETATM    6 BR3  UNL     1      -2.640   7.864  -8.487  1.00  0.00    -0.030 Br
HETATM    7  N1  UNL     1      -2.961   7.030  -5.689  1.00  0.00    -0.346 N 
ATOM      8  H1  UNL     1      -2.285   7.713  -5.345  1.00  0.00     0.167 HD
ENDROOT
BRANCH   1   9
HETATM    9  C1  UNL     1      -3.521   6.028  -3.450  1.00  0.00     0.176 C 
HETATM   10  O1  UNL     1      -2.556   6.536  -2.820  1.00  0.00    -0.291 OA
BRANCH   9  11
HETATM   11  C2  UNL     1      -4.548   5.290  -2.686  1.00  0.00     0.098 C 
BRANCH  11  12
HETATM   12  C3  UNL     1      -3.923   4.413  -1.643  1.00  0.00     0.117 C 
BRANCH  12  13
HETATM   13  S1  UNL     1      -3.872   5.232  -0.068  1.00  0.00     0.025 S 
HETATM   14  O2  UNL     1      -3.046   4.217   0.994  1.00  0.00    -0.257 OA
BRANCH  13  15
HETATM   15  C4  UNL     1      -5.511   5.424   0.554  1.00  0.00     0.193 C 
HETATM   16 BR1  UNL     1      -5.622   6.848   1.846  1.00  0.00    -0.083 Br
ENDBRANCH  13  15
ENDBRANCH  12  13
ENDBRANCH  11  12
ENDBRANCH   9  11
ENDBRANCH   1   9
TORSDOF 5
ENDMDL
MODEL 4
REMARK VINA RESULT: -5.507120501      2.190      2.296
REMARK  5 active torsions:
REMARK  status: ('A' for Active; 'I' for Inactive)
REMARK    1  A    between atoms: C1_2  and  C2_3 
REMARK    2  A    between atoms: C1_2  and  C5_9 
REMARK    3  A    between atoms: C2_3  and  C3_4 
REMARK    4  A    between atoms: C3_4  and  S1_5 
REMARK    5  A    between atoms: S1_5  and  C4_7 
ROOT
HETATM    1  C5  UNL     1      -2.969   5.831  -4.373  1.00  0.00     0.080 A 
HETATM    2  C6  UNL     1      -3.514   6.525  -5.431  1.00  0.00     0.055 A 
HETATM    3  C7  UNL     1      -2.962   6.036  -6.593  1.00  0.00     0.047 A 
HETATM    4 BR2  UNL     1      -3.314   6.591  -8.398  1.00  0.00    -0.048 Br
HETATM    5  C8  UNL     1      -2.081   5.041  -6.233  1.00  0.00     0.098 A 
HETATM    6 BR3  UNL     1      -1.026   4.011  -7.460  1.00  0.00    -0.030 Br
HETATM    7  N1  UNL     1      -2.114   4.951  -4.898  1.00  0.00    -0.346 N 
ATOM      8  H1  UNL     1      -1.557   4.293  -4.352  1.00  0.00     0.167 HD
ENDROOT
BRANCH   1   9
HETATM    9  C1  UNL     1      -3.278   6.030  -2.948  1.00  0.00     0.176 C 
HETATM   10  O1  UNL     1      -2.525   6.724  -2.216  1.00  0.00    -0.291 OA
BRANCH   9  11
HETATM   11  C2  UNL     1      -4.482   5.424  -2.341  1.00  0.00     0.098 C 
BRANCH  11  12
HETATM   12  C3  UNL     1      -4.113   4.388  -1.322  1.00  0.00     0.117 C 
BRANCH  12  13
HETATM   13  S1  UNL     1      -3.911   5.116   0.284  1.00  0.00     0.025 S 
HETATM   14  O2  UNL     1      -3.046   4.018   1.224  1.00  0.00    -0.257 OA
BRANCH  13  15
HETATM   15  C4  UNL     1      -5.490   5.329   1.042  1.00  0.00     0.193 C 
HETATM   16 BR1  UNL     1      -5.629   7.028   1.937  1.00  0.00    -0.083 Br
ENDBRANCH  13  15
ENDBRANCH  12  13
ENDBRANCH  11  12
ENDBRANCH   9  11
ENDBRANCH   1   9
TORSDOF 5
ENDMDL
MODEL 5
REMARK VINA RESULT: -5.448402035      2.923      3.414
REMARK  5 active torsions:
REMARK  status: ('A' for Active; 'I' for Inactive)
REMARK    1  A    between atoms: C1_2  and  C2_3 
REMARK    2  A    between atoms: C1_2  and  C5_9 
REMARK    3  A    between atoms: C2_3  and  C3_4 
REMARK    4  A    between atoms: C3_4  and  S1_5 
REMARK    5  A    between atoms: S1_5  and  C4_7 
ROOT
HETATM    1  C5  UNL     1      -5.209   4.598  -4.522  1.00  0.00     0.080 A 
HETATM    2  C6  UNL     1      -6.361   4.906  -5.214  1.00  0.00     0.055 A 
HETATM    3  C7  UNL     1      -7.069   3.741  -5.403  1.00  0.00     0.047 A 
HETATM    4 BR2  UNL     1      -8.754   3.511  -6.296  1.00  0.00    -0.048 Br
HETATM    5  C8  UNL     1      -6.343   2.727  -4.820  1.00  0.00     0.098 A 
HETATM    6 BR3  UNL     1      -6.864   0.882  -4.784  1.00  0.00    -0.030 Br
HETATM    7  N1  UNL     1      -5.238   3.281  -4.306  1.00  0.00    -0.346 N 
ATOM      8  H1  UNL     1      -4.512   2.763  -3.811  1.00  0.00     0.167 HD
ENDROOT
BRANCH   1   9
HETATM    9  C1  UNL     1      -4.162   5.546  -4.107  1.00  0.00     0.176 C 
HETATM   10  O1  UNL     1      -3.973   6.616  -4.744  1.00  0.00    -0.291 OA
BRANCH   9  11
HETATM   11  C2  UNL     1      -3.309   5.268  -2.932  1.00  0.00     0.098 C 
BRANCH  11  12
HETATM   12  C3  UNL     1      -3.756   6.055  -1.738  1.00  0.00     0.117 C 
BRANCH  12  13
HETATM   13  S1  UNL     1      -4.352   4.982  -0.454  1.00  0.00     0.025 S 
HETATM   14  O2  UNL     1      -4.748   3.513  -1.177  1.00  0.00    -0.257 OA
BRANCH  13  15
HETATM   15  C4  UNL     1      -5.833   5.647   0.235  1.00  0.00     0.193 C 
HETATM   16 BR1  UNL     1      -5.472   6.764   1.761  1.00  0.00    -0.083 Br
ENDBRANCH  13  15
ENDBRANCH  12  13
ENDBRANCH  11  12
ENDBRANCH   9  11
ENDBRANCH   1   9
TORSDOF 5
ENDMDL
