MODEL 1
REMARK VINA RESULT: -6.803773399      0.000      0.000
REMARK  8 active torsions:
REMARK  status: ('A' for Active; 'I' for Inactive)
REMARK    1  A    between atoms: N1_2  and  C2_3 
REMARK       I    between atoms: N1_2  and  C9_16 
REMARK    2  A    between atoms: C2_3  and  C3_4 
REMARK    3  A    between atoms: C3_4  and  N2_5 
REMARK    4  A    between atoms: N2_5  and  C4_7 
REMARK    5  A    between atoms: C9_16  and  C10_18 
REMARK    6  A    between atoms: C10_18  and  C11_19 
REMARK    7  A    between atoms: C11_19  and  C12_20 
REMARK    8  A    between atoms: C13_21  and  C14_22 
ROOT
HETATM    1  C3  UNL     1      -4.941   0.450  -1.831  1.00  0.00     0.141 C 
ENDROOT
BRANCH   1   2
HETATM    2  C2  UNL     1      -3.608   1.067  -1.473  1.00  0.00     0.145 C 
BRANCH   2   3
HETATM    3  N1  UNL     1      -3.603   2.415  -1.977  1.00  0.00    -0.355 N 
HETATM    4  C1  UNL     1      -3.999   2.649  -3.367  1.00  0.00     0.152 C 
HETATM    5  C9  UNL     1      -3.237   3.543  -1.204  1.00  0.00     0.220 C 
HETATM    6  O1  UNL     1      -2.891   3.374   0.002  1.00  0.00    -0.273 OA
BRANCH   5   7
HETATM    7  C10 UNL     1      -3.242   4.922  -1.750  1.00  0.00     0.115 C 
BRANCH   7   8
HETATM    8  C11 UNL     1      -4.622   5.538  -1.658  1.00  0.00     0.103 C 
BRANCH   8   9
HETATM    9  C12 UNL     1      -4.859   6.044  -0.306  1.00  0.00    -0.104 C 
HETATM   10  C13 UNL     1      -5.062   6.444   0.816  1.00  0.00    -0.075 C 
BRANCH  10  11
HETATM   11  C14 UNL     1      -5.294   6.928   2.186  1.00  0.00     0.315 C 
HETATM   12  F1  UNL     1      -6.523   6.504   2.655  1.00  0.00    -0.242 F 
ENDBRANCH  10  11
ENDBRANCH   8   9
ENDBRANCH   7   8
ENDBRANCH   5   7
ENDBRANCH   2   3
ENDBRANCH   1   2
BRANCH   1  13
HETATM   13  N2  UNL     1      -5.540  -0.264  -0.761  1.00  0.00    -0.375 N 
ATOM     14  H2  UNL     1      -5.848   0.307   0.027  1.00  0.00     0.161 HD
BRANCH  13  15
HETATM   15  C4  UNL     1      -5.751  -1.509  -0.641  1.00  0.00     0.103 A 
HETATM   16  C5  UNL     1      -7.067  -1.923  -0.650  1.00  0.00     0.067 A 
HETATM   17  C6  UNL     1      -7.410  -3.249  -0.526  1.00  0.00     0.017 A 
HETATM   18 BR1  UNL     1      -9.208  -3.858  -0.534  1.00  0.00    -0.051 Br
HETATM   19  C7  UNL     1      -6.382  -4.173  -0.389  1.00  0.00     0.056 A 
HETATM   20  C8  UNL     1      -5.092  -3.729  -0.385  1.00  0.00     0.082 A 
HETATM   21 BR2  UNL     1      -3.691  -5.028  -0.195  1.00  0.00    -0.031 Br
HETATM   22  N3  UNL     1      -4.791  -2.435  -0.507  1.00  0.00    -0.337 N 
ATOM     23  H3  UNL     1      -3.813  -2.145  -0.499  1.00  0.00     0.168 HD
ENDBRANCH  13  15
ENDBRANCH   1  13
TORSDOF 8
ENDMDL
MODEL 2
REMARK VINA RESULT: -6.756996462      0.889      2.114
REMARK  8 active torsions:
REMARK  status: ('A' for Active; 'I' for Inactive)
REMARK    1  A    between atoms: N1_2  and  C2_3 
REMARK       I    between atoms: N1_2  and  C9_16 
REMARK    2  A    between atoms: C2_3  and  C3_4 
REMARK    3  A    between atoms: C3_4  and  N2_5 
REMARK    4  A    between atoms: N2_5  and  C4_7 
REMARK    5  A    between atoms: C9_16  and  C10_18 
REMARK    6  A    between atoms: C10_18  and  C11_19 
REMARK    7  A    between atoms: C11_19  and  C12_20 
REMARK    8  A    between atoms: C13_21  and  C14_22 
ROOT
HETATM    1  C3  UNL     1      -4.970   0.235  -1.554  1.00  0.00     0.141 C 
ENDROOT
BRANCH   1   2
HETATM    2  C2  UNL     1      -3.653   0.918  -1.263  1.00  0.00     0.145 C 
BRANCH   2   3
HETATM    3  N1  UNL     1      -3.683   2.208  -1.898  1.00  0.00    -0.355 N 
HETATM    4  C1  UNL     1      -4.133   2.300  -3.288  1.00  0.00     0.152 C 
HETATM    5  C9  UNL     1      -3.301   3.411  -1.255  1.00  0.00     0.220 C 
HETATM    6  O1  UNL     1      -2.908   3.365  -0.053  1.00  0.00    -0.273 OA
BRANCH   5   7
HETATM    7  C10 UNL     1      -3.341   4.729  -1.935  1.00  0.00     0.115 C 
BRANCH   7   8
HETATM    8  C11 UNL     1      -4.741   5.305  -1.919  1.00  0.00     0.103 C 
BRANCH   8   9
HETATM    9  C12 UNL     1      -5.113   5.691  -0.558  1.00  0.00    -0.104 C 
HETATM   10  C13 UNL     1      -5.407   6.025   0.565  1.00  0.00    -0.075 C 
BRANCH  10  11
HETATM   11  C14 UNL     1      -5.776   6.440   1.927  1.00  0.00     0.315 C 
HETATM   12  F1  UNL     1      -5.113   7.599   2.286  1.00  0.00    -0.242 F 
ENDBRANCH  10  11
ENDBRANCH   8   9
ENDBRANCH   7   8
ENDBRANCH   5   7
ENDBRANCH   2   3
ENDBRANCH   1   2
BRANCH   1  13
HETATM   13  N2  UNL     1      -5.502  -0.469  -0.443  1.00  0.00    -0.375 N 
ATOM     14  H2  UNL     1      -5.386  -0.010   0.460  1.00  0.00     0.161 HD
BRANCH  13  15
HETATM   15  C4  UNL     1      -6.101  -1.587  -0.409  1.00  0.00     0.103 A 
HETATM   16  C5  UNL     1      -5.311  -2.718  -0.418  1.00  0.00     0.067 A 
HETATM   17  C6  UNL     1      -5.855  -3.981  -0.384  1.00  0.00     0.017 A 
HETATM   18 BR1  UNL     1      -4.803  -5.562  -0.395  1.00  0.00    -0.051 Br
HETATM   19  C7  UNL     1      -7.239  -4.089  -0.340  1.00  0.00     0.056 A 
HETATM   20  C8  UNL     1      -7.989  -2.949  -0.331  1.00  0.00     0.082 A 
HETATM   21 BR2  UNL     1      -9.900  -3.127  -0.270  1.00  0.00    -0.031 Br
HETATM   22  N3  UNL     1      -7.432  -1.738  -0.365  1.00  0.00    -0.337 N 
ATOM     23  H3  UNL     1      -8.030  -0.911  -0.357  1.00  0.00     0.168 HD
ENDBRANCH  13  15
ENDBRANCH   1  13
TORSDOF 8
ENDMDL
MODEL 3
REMARK VINA RESULT: -6.588842503      1.102      1.170
REMARK  8 active torsions:
REMARK  status: ('A' for Active; 'I' for Inactive)
REMARK    1  A    between atoms: N1_2  and  C2_3 
REMARK       I    between atoms: N1_2  and  C9_16 
REMARK    2  A    between atoms: C2_3  and  C3_4 
REMARK    3  A    between atoms: C3_4  and  N2_5 
REMARK    4  A    between atoms: N2_5  and  C4_7 
REMARK    5  A    between atoms: C9_16  and  C10_18 
REMARK    6  A    between atoms: C10_18  and  C11_19 
REMARK    7  A    between atoms: C11_19  and  C12_20 
REMARK    8  A    between atoms: C13_21  and  C14_22 
ROOT
HETATM    1  C3  UNL     1      -4.056   0.092  -2.881  1.00  0.00     0.141 C 
ENDROOT
BRANCH   1   2
HETATM    2  C2  UNL     1      -4.828   1.240  -3.491  1.00  0.00     0.145 C 
BRANCH   2   3
HETATM    3  N1  UNL     1      -4.060   2.438  -3.285  1.00  0.00    -0.355 N 
HETATM    4  C1  UNL     1      -3.239   2.948  -4.386  1.00  0.00     0.152 C 
HETATM    5  C9  UNL     1      -4.046   3.167  -2.071  1.00  0.00     0.220 C 
HETATM    6  O1  UNL     1      -4.746   2.753  -1.101  1.00  0.00    -0.273 OA
BRANCH   5   7
HETATM    7  C10 UNL     1      -3.243   4.400  -1.888  1.00  0.00     0.115 C 
BRANCH   7   8
HETATM    8  C11 UNL     1      -4.124   5.631  -1.916  1.00  0.00     0.103 C 
BRANCH   8   9
HETATM    9  C12 UNL     1      -4.651   5.907  -0.579  1.00  0.00    -0.104 C 
HETATM   10  C13 UNL     1      -5.069   6.144   0.529  1.00  0.00    -0.075 C 
BRANCH  10  11
HETATM   11  C14 UNL     1      -5.585   6.445   1.873  1.00  0.00     0.315 C 
HETATM   12  F1  UNL     1      -5.196   7.707   2.278  1.00  0.00    -0.242 F 
ENDBRANCH  10  11
ENDBRANCH   8   9
ENDBRANCH   7   8
ENDBRANCH   5   7
ENDBRANCH   2   3
ENDBRANCH   1   2
BRANCH   1  13
HETATM   13  N2  UNL     1      -4.528  -0.292  -1.599  1.00  0.00    -0.375 N 
ATOM     14  H2  UNL     1      -4.509   0.442  -0.890  1.00  0.00     0.161 HD
BRANCH  13  15
HETATM   15  C4  UNL     1      -4.970  -1.413  -1.206  1.00  0.00     0.103 A 
HETATM   16  C5  UNL     1      -6.334  -1.516  -1.021  1.00  0.00     0.067 A 
HETATM   17  C6  UNL     1      -6.921  -2.685  -0.597  1.00  0.00     0.017 A 
HETATM   18 BR1  UNL     1      -8.793  -2.866  -0.331  1.00  0.00    -0.051 Br
HETATM   19  C7  UNL     1      -6.094  -3.774  -0.355  1.00  0.00     0.056 A 
HETATM   20  C8  UNL     1      -4.751  -3.638  -0.549  1.00  0.00     0.082 A 
HETATM   21 BR2  UNL     1      -3.631  -5.159  -0.207  1.00  0.00    -0.031 Br
HETATM   22  N3  UNL     1      -4.211  -2.490  -0.961  1.00  0.00    -0.337 N 
ATOM     23  H3  UNL     1      -3.201  -2.430  -1.093  1.00  0.00     0.168 HD
ENDBRANCH  13  15
ENDBRANCH   1  13
TORSDOF 8
ENDMDL
MODEL 4
REMARK VINA RESULT: -6.586292460      5.640      7.782
REMARK  8 active torsions:
REMARK  status: ('A' for Active; 'I' for Inactive)
REMARK    1  A    between atoms: N1_2  and  C2_3 
REMARK       I    between atoms: N1_2  and  C9_16 
REMARK    2  A    between atoms: C2_3  and  C3_4 
REMARK    3  A    between atoms: C3_4  and  N2_5 
REMARK    4  A    between atoms: N2_5  and  C4_7 
REMARK    5  A    between atoms: C9_16  and  C10_18 
REMARK    6  A    between atoms: C10_18  and  C11_19 
REMARK    7  A    between atoms: C11_19  and  C12_20 
REMARK    8  A    between atoms: C13_21  and  C14_22 
ROOT
HETATM    1  C3  UNL     1      -5.318   2.444  -5.549  1.00  0.00     0.141 C 
ENDROOT
BRANCH   1   2
HETATM    2  C2  UNL     1      -3.888   2.280  -5.087  1.00  0.00     0.145 C 
BRANCH   2   3
HETATM    3  N1  UNL     1      -3.821   2.716  -3.717  1.00  0.00    -0.355 N 
HETATM    4  C1  UNL     1      -4.302   1.817  -2.666  1.00  0.00     0.152 C 
HETATM    5  C9  UNL     1      -3.313   3.975  -3.316  1.00  0.00     0.220 C 
HETATM    6  O1  UNL     1      -2.889   4.775  -4.201  1.00  0.00    -0.273 OA
BRANCH   5   7
HETATM    7  C10 UNL     1      -3.257   4.399  -1.895  1.00  0.00     0.115 C 
BRANCH   7   8
HETATM    8  C11 UNL     1      -3.546   5.879  -1.758  1.00  0.00     0.103 C 
BRANCH   8   9
HETATM    9  C12 UNL     1      -4.337   6.128  -0.553  1.00  0.00    -0.104 C 
HETATM   10  C13 UNL     1      -4.973   6.338   0.452  1.00  0.00    -0.075 C 
BRANCH  10  11
HETATM   11  C14 UNL     1      -5.750   6.607   1.672  1.00  0.00     0.315 C 
HETATM   12  F1  UNL     1      -5.128   7.565   2.450  1.00  0.00    -0.242 F 
ENDBRANCH  10  11
ENDBRANCH   8   9
ENDBRANCH   7   8
ENDBRANCH   5   7
ENDBRANCH   2   3
ENDBRANCH   1   2
BRANCH   1  13
HETATM   13  N2  UNL     1      -5.676   3.791  -5.819  1.00  0.00    -0.375 N 
ATOM     14  H2  UNL     1      -6.391   4.183  -5.206  1.00  0.00     0.161 HD
BRANCH  13  15
HETATM   15  C4  UNL     1      -5.236   4.579  -6.711  1.00  0.00     0.103 A 
HETATM   16  C5  UNL     1      -5.622   4.326  -8.011  1.00  0.00     0.067 A 
HETATM   17  C6  UNL     1      -5.204   5.116  -9.057  1.00  0.00     0.017 A 
HETATM   18 BR1  UNL     1      -5.712   4.801 -10.859  1.00  0.00    -0.051 Br
HETATM   19  C7  UNL     1      -4.372   6.189  -8.765  1.00  0.00     0.056 A 
HETATM   20  C8  UNL     1      -4.011   6.410  -7.468  1.00  0.00     0.082 A 
HETATM   21 BR2  UNL     1      -2.860   7.899  -7.094  1.00  0.00    -0.031 Br
HETATM   22  N3  UNL     1      -4.433   5.625  -6.475  1.00  0.00    -0.337 N 
ATOM     23  H3  UNL     1      -4.139   5.826  -5.519  1.00  0.00     0.168 HD
ENDBRANCH  13  15
ENDBRANCH   1  13
TORSDOF 8
ENDMDL
MODEL 5
REMARK VINA RESULT: -6.570458406      1.325      2.163
REMARK  8 active torsions:
REMARK  status: ('A' for Active; 'I' for Inactive)
REMARK    1  A    between atoms: N1_2  and  C2_3 
REMARK       I    between atoms: N1_2  and  C9_16 
REMARK    2  A    between atoms: C2_3  and  C3_4 
REMARK    3  A    between atoms: C3_4  and  N2_5 
REMARK    4  A    between atoms: N2_5  and  C4_7 
REMARK    5  A    between atoms: C9_16  and  C10_18 
REMARK    6  A    between atoms: C10_18  and  C11_19 
REMARK    7  A    between atoms: C11_19  and  C12_20 
REMARK    8  A    between atoms: C13_21  and  C14_22 
ROOT
HETATM    1  C3  UNL     1      -5.059   0.416  -1.764  1.00  0.00     0.141 C 
ENDROOT
BRANCH   1   2
HETATM    2  C2  UNL     1      -3.718   1.010  -1.398  1.00  0.00     0.145 C 
BRANCH   2   3
HETATM    3  N1  UNL     1      -3.670   2.342  -1.939  1.00  0.00    -0.355 N 
HETATM    4  C1  UNL     1      -4.028   2.546  -3.345  1.00  0.00     0.152 C 
HETATM    5  C9  UNL     1      -3.295   3.484  -1.190  1.00  0.00     0.220 C 
HETATM    6  O1  UNL     1      -2.981   3.341   0.028  1.00  0.00    -0.273 OA
BRANCH   5   7
HETATM    7  C10 UNL     1      -3.254   4.846  -1.775  1.00  0.00     0.115 C 
BRANCH   7   8
HETATM    8  C11 UNL     1      -4.610   5.515  -1.688  1.00  0.00     0.103 C 
BRANCH   8   9
HETATM    9  C12 UNL     1      -4.836   6.024  -0.335  1.00  0.00    -0.104 C 
HETATM   10  C13 UNL     1      -5.041   6.450   0.776  1.00  0.00    -0.075 C 
BRANCH  10  11
HETATM   11  C14 UNL     1      -5.295   6.955   2.134  1.00  0.00     0.315 C 
HETATM   12  F1  UNL     1      -6.498   6.479   2.619  1.00  0.00    -0.242 F 
ENDBRANCH  10  11
ENDBRANCH   8   9
ENDBRANCH   7   8
ENDBRANCH   5   7
ENDBRANCH   2   3
ENDBRANCH   1   2
BRANCH   1  13
HETATM   13  N2  UNL     1      -5.318  -0.830  -1.137  1.00  0.00    -0.375 N 
ATOM     14  H2  UNL     1      -4.658  -1.096  -0.407  1.00  0.00     0.161 HD
BRANCH  13  15
HETATM   15  C4  UNL     1      -6.251  -1.662  -1.353  1.00  0.00     0.103 A 
HETATM   16  C5  UNL     1      -6.183  -2.864  -0.677  1.00  0.00     0.067 A 
HETATM   17  C6  UNL     1      -7.140  -3.838  -0.836  1.00  0.00     0.017 A 
HETATM   18 BR1  UNL     1      -7.083  -5.504   0.074  1.00  0.00    -0.051 Br
HETATM   19  C7  UNL     1      -8.192  -3.578  -1.706  1.00  0.00     0.056 A 
HETATM   20  C8  UNL     1      -8.227  -2.379  -2.356  1.00  0.00     0.082 A 
HETATM   21 BR2  UNL     1      -9.691  -2.045  -3.553  1.00  0.00    -0.031 Br
HETATM   22  N3  UNL     1      -7.283  -1.453  -2.181  1.00  0.00    -0.337 N 
ATOM     23  H3  UNL     1      -7.348  -0.570  -2.688  1.00  0.00     0.168 HD
ENDBRANCH  13  15
ENDBRANCH   1  13
TORSDOF 8
ENDMDL
