MODEL 1
REMARK VINA RESULT: -6.658455700      0.000      0.000
REMARK  7 active torsions:
REMARK  status: ('A' for Active; 'I' for Inactive)
REMARK    1  A    between atoms: N1_2  and  C2_3 
REMARK    2  A    between atoms: C2_3  and  C3_4 
REMARK    3  A    between atoms: C4_6  and  C5_7 
REMARK    4  A    between atoms: C6_8  and  C7_9 
REMARK       I    between atoms: C7_9  and  N2_11 
REMARK    5  A    between atoms: N2_11  and  C8_13 
REMARK    6  A    between atoms: C14_20  and  C15_22 
REMARK    7  A    between atoms: C16_23  and  C17_24 
ROOT
HETATM    1  C2  UNL     1      -3.858   2.856  -5.263  1.00  0.00     0.288 C 
ENDROOT
BRANCH   1   2
HETATM    2  N1  UNL     1      -5.191   2.911  -5.857  1.00  0.00    -0.014 N 
HETATM    3  C1  UNL     1      -5.597   1.587  -6.279  1.00  0.00     0.278 C 
HETATM    4  C11 UNL     1      -6.149   3.480  -4.933  1.00  0.00     0.268 C 
HETATM    5  C12 UNL     1      -7.294   4.112  -5.643  1.00  0.00     0.196 C 
HETATM    6  O2  UNL     1      -7.495   3.647  -6.938  1.00  0.00    -0.383 OA
HETATM    7  C13 UNL     1      -6.404   3.878  -7.752  1.00  0.00     0.256 C 
HETATM    8  C14 UNL     1      -5.100   3.790  -7.001  1.00  0.00     0.352 C 
HETATM    9  F1  UNL     1      -4.089   3.291  -7.824  1.00  0.00    -0.194 F 
BRANCH   8  10
HETATM   10  C15 UNL     1      -4.659   5.112  -6.510  1.00  0.00    -0.030 C 
HETATM   11  C16 UNL     1      -4.291   6.202  -6.130  1.00  0.00    -0.086 C 
BRANCH  11  12
HETATM   12  C17 UNL     1      -3.853   7.518  -5.644  1.00  0.00     0.208 C 
HETATM   13 CL1  UNL     1      -2.921   8.309  -6.960  1.00  0.00    -0.117 Cl
ENDBRANCH  11  12
ENDBRANCH   8  10
ENDBRANCH   1   2
BRANCH   1  14
HETATM   14  C3  UNL     1      -3.849   2.476  -3.863  1.00  0.00     0.015 C 
HETATM   15 BR1  UNL     1      -4.263   0.673  -3.397  1.00  0.00    -0.054 Br
HETATM   16  C4  UNL     1      -3.583   3.277  -2.867  1.00  0.00     0.017 C 
BRANCH  16  17
HETATM   17  C5  UNL     1      -3.265   4.652  -3.060  1.00  0.00     0.007 C 
HETATM   18  C6  UNL     1      -3.742   5.667  -2.409  1.00  0.00     0.074 C 
BRANCH  18  19
HETATM   19  C7  UNL     1      -4.701   5.628  -1.349  1.00  0.00     0.241 C 
HETATM   20  O1  UNL     1      -5.911   5.533  -1.515  1.00  0.00    -0.269 OA
HETATM   21  N2  UNL     1      -4.177   5.707   0.006  1.00  0.00    -0.353 N 
ATOM     22  H2  UNL     1      -3.172   5.788   0.163  1.00  0.00     0.163 HD
BRANCH  21  23
HETATM   23  C8  UNL     1      -5.087   5.673   1.123  1.00  0.00     0.084 A 
HETATM   24  C9  UNL     1      -5.476   7.008   1.715  1.00  0.00     0.027 A 
HETATM   25  C10 UNL     1      -4.577   6.112   2.476  1.00  0.00     0.027 A 
ENDBRANCH  21  23
ENDBRANCH  18  19
ENDBRANCH  16  17
ENDBRANCH   1  14
TORSDOF 7
ENDMDL
MODEL 2
REMARK VINA RESULT: -6.556045895      2.724      3.268
REMARK  7 active torsions:
REMARK  status: ('A' for Active; 'I' for Inactive)
REMARK    1  A    between atoms: N1_2  and  C2_3 
REMARK    2  A    between atoms: C2_3  and  C3_4 
REMARK    3  A    between atoms: C4_6  and  C5_7 
REMARK    4  A    between atoms: C6_8  and  C7_9 
REMARK       I    between atoms: C7_9  and  N2_11 
REMARK    5  A    between atoms: N2_11  and  C8_13 
REMARK    6  A    between atoms: C14_20  and  C15_22 
REMARK    7  A    between atoms: C16_23  and  C17_24 
ROOT
HETATM    1  C2  UNL     1      -4.354   5.531  -6.253  1.00  0.00     0.288 C 
ENDROOT
BRANCH   1   2
HETATM    2  N1  UNL     1      -3.564   4.456  -6.848  1.00  0.00    -0.014 N 
HETATM    3  C1  UNL     1      -3.510   3.326  -5.945  1.00  0.00     0.278 C 
HETATM    4  C11 UNL     1      -4.099   4.069  -8.136  1.00  0.00     0.268 C 
HETATM    5  C12 UNL     1      -3.052   3.480  -9.015  1.00  0.00     0.196 C 
HETATM    6  O2  UNL     1      -1.949   2.974  -8.337  1.00  0.00    -0.383 OA
HETATM    7  C13 UNL     1      -1.292   3.946  -7.608  1.00  0.00     0.256 C 
HETATM    8  C14 UNL     1      -2.235   4.986  -7.060  1.00  0.00     0.352 C 
HETATM    9  F1  UNL     1      -1.781   5.462  -5.828  1.00  0.00    -0.194 F 
BRANCH   8  10
HETATM   10  C15 UNL     1      -2.359   6.146  -7.964  1.00  0.00    -0.030 C 
HETATM   11  C16 UNL     1      -2.438   7.102  -8.706  1.00  0.00    -0.086 C 
BRANCH  11  12
HETATM   12  C17 UNL     1      -2.559   8.257  -9.607  1.00  0.00     0.208 C 
HETATM   13 CL1  UNL     1      -3.439   7.718 -11.077  1.00  0.00    -0.117 Cl
ENDBRANCH  11  12
ENDBRANCH   8  10
ENDBRANCH   1   2
BRANCH   1  14
HETATM   14  C3  UNL     1      -5.213   5.101  -5.167  1.00  0.00     0.015 C 
HETATM   15 BR1  UNL     1      -6.888   4.288  -5.586  1.00  0.00    -0.054 Br
HETATM   16  C4  UNL     1      -4.941   5.227  -3.896  1.00  0.00     0.017 C 
BRANCH  16  17
HETATM   17  C5  UNL     1      -3.733   5.822  -3.431  1.00  0.00     0.007 C 
HETATM   18  C6  UNL     1      -3.301   5.870  -2.210  1.00  0.00     0.074 C 
BRANCH  18  19
HETATM   19  C7  UNL     1      -3.949   5.333  -1.053  1.00  0.00     0.241 C 
HETATM   20  O1  UNL     1      -3.937   4.148  -0.742  1.00  0.00    -0.269 OA
HETATM   21  N2  UNL     1      -4.661   6.280  -0.209  1.00  0.00    -0.353 N 
ATOM     22  H2  UNL     1      -4.683   7.270  -0.453  1.00  0.00     0.163 HD
BRANCH  21  23
HETATM   23  C8  UNL     1      -5.336   5.808   0.975  1.00  0.00     0.084 A 
HETATM   24  C9  UNL     1      -5.763   6.861   1.971  1.00  0.00     0.027 A 
HETATM   25  C10 UNL     1      -4.637   5.961   2.306  1.00  0.00     0.027 A 
ENDBRANCH  21  23
ENDBRANCH  18  19
ENDBRANCH  16  17
ENDBRANCH   1  14
TORSDOF 7
ENDMDL
MODEL 3
REMARK VINA RESULT: -6.425442990      2.574      3.422
REMARK  7 active torsions:
REMARK  status: ('A' for Active; 'I' for Inactive)
REMARK    1  A    between atoms: N1_2  and  C2_3 
REMARK    2  A    between atoms: C2_3  and  C3_4 
REMARK    3  A    between atoms: C4_6  and  C5_7 
REMARK    4  A    between atoms: C6_8  and  C7_9 
REMARK       I    between atoms: C7_9  and  N2_11 
REMARK    5  A    between atoms: N2_11  and  C8_13 
REMARK    6  A    between atoms: C14_20  and  C15_22 
REMARK    7  A    between atoms: C16_23  and  C17_24 
ROOT
HETATM    1  C2  UNL     1      -4.558   5.010  -5.741  1.00  0.00     0.288 C 
ENDROOT
BRANCH   1   2
HETATM    2  N1  UNL     1      -3.495   4.882  -6.734  1.00  0.00    -0.014 N 
HETATM    3  C1  UNL     1      -2.312   5.584  -6.283  1.00  0.00     0.278 C 
HETATM    4  C11 UNL     1      -3.203   3.491  -7.007  1.00  0.00     0.268 C 
HETATM    5  C12 UNL     1      -2.633   3.302  -8.368  1.00  0.00     0.196 C 
HETATM    6  O2  UNL     1      -2.051   4.442  -8.911  1.00  0.00    -0.383 OA
HETATM    7  C13 UNL     1      -2.955   5.477  -9.048  1.00  0.00     0.256 C 
HETATM    8  C14 UNL     1      -3.991   5.479  -7.954  1.00  0.00     0.352 C 
HETATM    9  F1  UNL     1      -4.378   6.785  -7.644  1.00  0.00    -0.194 F 
BRANCH   8  10
HETATM   10  C15 UNL     1      -5.207   4.739  -8.347  1.00  0.00    -0.030 C 
HETATM   11  C16 UNL     1      -6.206   4.143  -8.690  1.00  0.00    -0.086 C 
BRANCH  11  12
HETATM   12  C17 UNL     1      -7.415   3.407  -9.083  1.00  0.00     0.208 C 
HETATM   13 CL1  UNL     1      -8.555   3.436  -7.695  1.00  0.00    -0.117 Cl
ENDBRANCH  11  12
ENDBRANCH   8  10
ENDBRANCH   1   2
BRANCH   1  14
HETATM   14  C3  UNL     1      -4.658   3.883  -4.834  1.00  0.00     0.015 C 
HETATM   15 BR1  UNL     1      -5.789   2.420  -5.306  1.00  0.00    -0.054 Br
HETATM   16  C4  UNL     1      -4.034   3.777  -3.693  1.00  0.00     0.017 C 
BRANCH  16  17
HETATM   17  C5  UNL     1      -3.163   4.793  -3.204  1.00  0.00     0.007 C 
HETATM   18  C6  UNL     1      -3.381   5.609  -2.221  1.00  0.00     0.074 C 
BRANCH  18  19
HETATM   19  C7  UNL     1      -4.555   5.669  -1.405  1.00  0.00     0.241 C 
HETATM   20  O1  UNL     1      -5.699   5.567  -1.833  1.00  0.00    -0.269 OA
HETATM   21  N2  UNL     1      -4.347   5.866   0.021  1.00  0.00    -0.353 N 
ATOM     22  H2  UNL     1      -3.402   5.955   0.394  1.00  0.00     0.163 HD
BRANCH  21  23
HETATM   23  C8  UNL     1      -5.487   5.936   0.902  1.00  0.00     0.084 A 
HETATM   24  C9  UNL     1      -5.486   7.057   1.915  1.00  0.00     0.027 A 
HETATM   25  C10 UNL     1      -5.271   5.666   2.373  1.00  0.00     0.027 A 
ENDBRANCH  21  23
ENDBRANCH  18  19
ENDBRANCH  16  17
ENDBRANCH   1  14
TORSDOF 7
ENDMDL
MODEL 4
REMARK VINA RESULT: -6.399631496      2.804      3.670
REMARK  7 active torsions:
REMARK  status: ('A' for Active; 'I' for Inactive)
REMARK    1  A    between atoms: N1_2  and  C2_3 
REMARK    2  A    between atoms: C2_3  and  C3_4 
REMARK    3  A    between atoms: C4_6  and  C5_7 
REMARK    4  A    between atoms: C6_8  and  C7_9 
REMARK       I    between atoms: C7_9  and  N2_11 
REMARK    5  A    between atoms: N2_11  and  C8_13 
REMARK    6  A    between atoms: C14_20  and  C15_22 
REMARK    7  A    between atoms: C16_23  and  C17_24 
ROOT
HETATM    1  C2  UNL     1      -4.777   5.851  -6.129  1.00  0.00     0.288 C 
ENDROOT
BRANCH   1   2
HETATM    2  N1  UNL     1      -3.608   5.382  -6.867  1.00  0.00    -0.014 N 
HETATM    3  C1  UNL     1      -2.425   6.083  -6.412  1.00  0.00     0.278 C 
HETATM    4  C11 UNL     1      -3.448   3.950  -6.733  1.00  0.00     0.268 C 
HETATM    5  C12 UNL     1      -2.718   3.365  -7.890  1.00  0.00     0.196 C 
HETATM    6  O2  UNL     1      -1.933   4.271  -8.594  1.00  0.00    -0.383 OA
HETATM    7  C13 UNL     1      -2.679   5.302  -9.132  1.00  0.00     0.256 C 
HETATM    8  C14 UNL     1      -3.852   5.674  -8.262  1.00  0.00     0.352 C 
HETATM    9  F1  UNL     1      -4.120   7.042  -8.355  1.00  0.00    -0.194 F 
BRANCH   8  10
HETATM   10  C15 UNL     1      -5.079   4.955  -8.657  1.00  0.00    -0.030 C 
HETATM   11  C16 UNL     1      -6.078   4.361  -9.002  1.00  0.00    -0.086 C 
BRANCH  11  12
HETATM   12  C17 UNL     1      -7.298   3.643  -9.397  1.00  0.00     0.208 C 
HETATM   13 CL1  UNL     1      -7.695   4.117 -11.084  1.00  0.00    -0.117 Cl
ENDBRANCH  11  12
ENDBRANCH   8  10
ENDBRANCH   1   2
BRANCH   1  14
HETATM   14  C3  UNL     1      -5.231   4.937  -5.098  1.00  0.00     0.015 C 
HETATM   15 BR1  UNL     1      -6.658   3.736  -5.497  1.00  0.00    -0.054 Br
HETATM   16  C4  UNL     1      -4.743   4.863  -3.890  1.00  0.00     0.017 C 
BRANCH  16  17
HETATM   17  C5  UNL     1      -3.681   5.701  -3.444  1.00  0.00     0.007 C 
HETATM   18  C6  UNL     1      -3.315   5.922  -2.220  1.00  0.00     0.074 C 
BRANCH  18  19
HETATM   19  C7  UNL     1      -3.903   5.367  -1.040  1.00  0.00     0.241 C 
HETATM   20  O1  UNL     1      -3.770   4.203  -0.683  1.00  0.00    -0.269 OA
HETATM   21  N2  UNL     1      -4.708   6.269  -0.230  1.00  0.00    -0.353 N 
ATOM     22  H2  UNL     1      -4.832   7.241  -0.512  1.00  0.00     0.163 HD
BRANCH  21  23
HETATM   23  C8  UNL     1      -5.330   5.776   0.975  1.00  0.00     0.084 A 
HETATM   24  C9  UNL     1      -5.798   6.818   1.964  1.00  0.00     0.027 A 
HETATM   25  C10 UNL     1      -4.615   5.991   2.289  1.00  0.00     0.027 A 
ENDBRANCH  21  23
ENDBRANCH  18  19
ENDBRANCH  16  17
ENDBRANCH   1  14
TORSDOF 7
ENDMDL
MODEL 5
REMARK VINA RESULT: -6.279038937      3.285      4.254
REMARK  7 active torsions:
REMARK  status: ('A' for Active; 'I' for Inactive)
REMARK    1  A    between atoms: N1_2  and  C2_3 
REMARK    2  A    between atoms: C2_3  and  C3_4 
REMARK    3  A    between atoms: C4_6  and  C5_7 
REMARK    4  A    between atoms: C6_8  and  C7_9 
REMARK       I    between atoms: C7_9  and  N2_11 
REMARK    5  A    between atoms: N2_11  and  C8_13 
REMARK    6  A    between atoms: C14_20  and  C15_22 
REMARK    7  A    between atoms: C16_23  and  C17_24 
ROOT
HETATM    1  C2  UNL     1      -4.188   5.376  -6.901  1.00  0.00     0.288 C 
ENDROOT
BRANCH   1   2
HETATM    2  N1  UNL     1      -3.041   4.918  -7.681  1.00  0.00    -0.014 N 
HETATM    3  C1  UNL     1      -2.877   5.754  -8.852  1.00  0.00     0.278 C 
HETATM    4  C11 UNL     1      -1.837   4.904  -6.878  1.00  0.00     0.268 C 
HETATM    5  C12 UNL     1      -0.847   3.915  -7.383  1.00  0.00     0.196 C 
HETATM    6  O2  UNL     1      -1.013   3.565  -8.719  1.00  0.00    -0.383 OA
HETATM    7  C13 UNL     1      -2.243   2.986  -8.959  1.00  0.00     0.256 C 
HETATM    8  C14 UNL     1      -3.326   3.558  -8.079  1.00  0.00     0.352 C 
HETATM    9  F1  UNL     1      -4.550   3.574  -8.751  1.00  0.00    -0.194 F 
BRANCH   8  10
HETATM   10  C15 UNL     1      -3.508   2.764  -6.847  1.00  0.00    -0.030 C 
HETATM   11  C16 UNL     1      -3.660   2.094  -5.849  1.00  0.00    -0.086 C 
BRANCH  11  12
HETATM   12  C17 UNL     1      -3.841   1.302  -4.624  1.00  0.00     0.208 C 
HETATM   13 CL1  UNL     1      -5.542   1.504  -4.083  1.00  0.00    -0.117 Cl
ENDBRANCH  11  12
ENDBRANCH   8  10
ENDBRANCH   1   2
BRANCH   1  14
HETATM   14  C3  UNL     1      -3.865   6.393  -5.918  1.00  0.00     0.015 C 
HETATM   15 BR1  UNL     1      -3.280   8.105  -6.524  1.00  0.00    -0.054 Br
HETATM   16  C4  UNL     1      -3.936   6.239  -4.624  1.00  0.00     0.017 C 
BRANCH  16  17
HETATM   17  C5  UNL     1      -4.348   5.015  -4.024  1.00  0.00     0.007 C 
HETATM   18  C6  UNL     1      -4.425   4.747  -2.758  1.00  0.00     0.074 C 
BRANCH  18  19
HETATM   19  C7  UNL     1      -4.108   5.630  -1.677  1.00  0.00     0.241 C 
HETATM   20  O1  UNL     1      -3.108   6.335  -1.633  1.00  0.00    -0.269 OA
HETATM   21  N2  UNL     1      -5.054   5.670  -0.573  1.00  0.00    -0.353 N 
ATOM     22  H2  UNL     1      -5.891   5.089  -0.592  1.00  0.00     0.163 HD
BRANCH  21  23
HETATM   23  C8  UNL     1      -4.798   6.539   0.550  1.00  0.00     0.084 A 
HETATM   24  C9  UNL     1      -4.622   5.868   1.892  1.00  0.00     0.027 A 
HETATM   25  C10 UNL     1      -5.852   6.646   1.627  1.00  0.00     0.027 A 
ENDBRANCH  21  23
ENDBRANCH  18  19
ENDBRANCH  16  17
ENDBRANCH   1  14
TORSDOF 7
ENDMDL
