MODEL 1
REMARK VINA RESULT: -6.126951994      0.000      0.000
REMARK  5 active torsions:
REMARK  status: ('A' for Active; 'I' for Inactive)
REMARK    1  A    between atoms: C2_2  and  C3_3 
REMARK    2  A    between atoms: C3_3  and  O1_4 
REMARK    3  A    between atoms: O1_4  and  C4_5 
REMARK    4  A    between atoms: C7_9  and  C8_10 
REMARK    5  A    between atoms: N1_12  and  C9_13 
ROOT
HETATM    1  C4  UNL     1      -3.830   4.385  -1.447  1.00  0.00     0.157 A 
HETATM    2  C5  UNL     1      -3.883   3.316  -2.218  1.00  0.00     0.077 A 
HETATM    3 BR1  UNL     1      -4.418   1.599  -1.600  1.00  0.00    -0.045 Br
HETATM    4  C6  UNL     1      -3.464   3.696  -3.592  1.00  0.00     0.062 A 
HETATM    5  C7  UNL     1      -3.423   2.818  -4.544  1.00  0.00     0.016 C 
HETATM    6  N1  UNL     1      -3.154   5.081  -3.606  1.00  0.00    -0.255 N 
HETATM    7  C10 UNL     1      -3.386   5.515  -2.236  1.00  0.00     0.289 A 
HETATM    8  O2  UNL     1      -3.204   6.706  -1.881  1.00  0.00    -0.264 OA
ENDROOT
BRANCH   6   9
HETATM    9  C9  UNL     1      -2.715   5.947  -4.636  1.00  0.00     0.157 C 
HETATM   10  N2  UNL     1      -1.476   6.057  -4.968  1.00  0.00    -0.379 N 
ATOM     11  H22 UNL     1      -0.836   5.426  -4.487  1.00  0.00     0.158 HD
ATOM     12  H21 UNL     1      -1.159   6.681  -5.710  1.00  0.00     0.158 HD
HETATM   13 BR3  UNL     1      -3.927   7.141  -5.548  1.00  0.00    -0.010 Br
ENDBRANCH   6   9
BRANCH   5  14
HETATM   14  C8  UNL     1      -3.043   2.932  -5.952  1.00  0.00     0.114 C 
HETATM   15 BR2  UNL     1      -4.476   3.539  -7.099  1.00  0.00    -0.092 Br
ENDBRANCH   5  14
BRANCH   1  16
HETATM   16  O1  UNL     1      -4.142   4.453  -0.094  1.00  0.00    -0.341 OA
BRANCH  16  17
HETATM   17  C3  UNL     1      -5.260   5.102   0.432  1.00  0.00     0.202 C 
BRANCH  17  18
HETATM   18  C2  UNL     1      -4.769   5.972   1.562  1.00  0.00    -0.011 C 
HETATM   19  C1  UNL     1      -5.422   7.059   1.924  1.00  0.00     0.009 C 
ENDBRANCH  17  18
ENDBRANCH  16  17
ENDBRANCH   1  16
TORSDOF 5
ENDMDL
MODEL 2
REMARK VINA RESULT: -5.794005274      2.283      2.754
REMARK  5 active torsions:
REMARK  status: ('A' for Active; 'I' for Inactive)
REMARK    1  A    between atoms: C2_2  and  C3_3 
REMARK    2  A    between atoms: C3_3  and  O1_4 
REMARK    3  A    between atoms: O1_4  and  C4_5 
REMARK    4  A    between atoms: C7_9  and  C8_10 
REMARK    5  A    between atoms: N1_12  and  C9_13 
ROOT
HETATM    1  C4  UNL     1      -5.262   5.459  -2.870  1.00  0.00     0.157 A 
HETATM    2  C5  UNL     1      -5.925   5.484  -4.009  1.00  0.00     0.077 A 
HETATM    3 BR1  UNL     1      -7.806   5.740  -4.127  1.00  0.00    -0.045 Br
HETATM    4  C6  UNL     1      -4.965   5.282  -5.126  1.00  0.00     0.062 A 
HETATM    5  C7  UNL     1      -5.369   5.258  -6.357  1.00  0.00     0.016 C 
HETATM    6  N1  UNL     1      -3.662   5.137  -4.583  1.00  0.00    -0.255 N 
HETATM    7  C10 UNL     1      -3.857   5.247  -3.145  1.00  0.00     0.289 A 
HETATM    8  O2  UNL     1      -2.896   5.161  -2.340  1.00  0.00    -0.264 OA
ENDROOT
BRANCH   6   9
HETATM    9  C9  UNL     1      -2.398   4.929  -5.187  1.00  0.00     0.157 C 
HETATM   10  N2  UNL     1      -1.481   5.833  -5.205  1.00  0.00    -0.379 N 
ATOM     11  H22 UNL     1      -1.698   6.688  -4.693  1.00  0.00     0.158 HD
ATOM     12  H21 UNL     1      -0.571   5.684  -5.641  1.00  0.00     0.158 HD
HETATM   13 BR3  UNL     1      -1.988   3.312  -6.157  1.00  0.00    -0.010 Br
ENDBRANCH   6   9
BRANCH   5  14
HETATM   14  C8  UNL     1      -4.641   5.069  -7.612  1.00  0.00     0.114 C 
HETATM   15 BR2  UNL     1      -3.739   6.660  -8.237  1.00  0.00    -0.092 Br
ENDBRANCH   5  14
BRANCH   1  16
HETATM   16  O1  UNL     1      -5.792   5.609  -1.593  1.00  0.00    -0.341 OA
BRANCH  16  17
HETATM   17  C3  UNL     1      -5.044   5.602  -0.415  1.00  0.00     0.202 C 
BRANCH  17  18
HETATM   18  C2  UNL     1      -5.971   6.031   0.694  1.00  0.00    -0.011 C 
HETATM   19  C1  UNL     1      -5.552   6.806   1.676  1.00  0.00     0.009 C 
ENDBRANCH  17  18
ENDBRANCH  16  17
ENDBRANCH   1  16
TORSDOF 5
ENDMDL
MODEL 3
REMARK VINA RESULT: -5.430712374      2.845      4.305
REMARK  5 active torsions:
REMARK  status: ('A' for Active; 'I' for Inactive)
REMARK    1  A    between atoms: C2_2  and  C3_3 
REMARK    2  A    between atoms: C3_3  and  O1_4 
REMARK    3  A    between atoms: O1_4  and  C4_5 
REMARK    4  A    between atoms: C7_9  and  C8_10 
REMARK    5  A    between atoms: N1_12  and  C9_13 
ROOT
HETATM    1  C4  UNL     1      -3.644   1.971  -2.343  1.00  0.00     0.157 A 
HETATM    2  C5  UNL     1      -4.216   2.398  -3.452  1.00  0.00     0.077 A 
HETATM    3 BR1  UNL     1      -4.690   1.258  -4.898  1.00  0.00    -0.045 Br
HETATM    4  C6  UNL     1      -4.406   3.869  -3.356  1.00  0.00     0.062 A 
HETATM    5  C7  UNL     1      -4.945   4.537  -4.328  1.00  0.00     0.016 C 
HETATM    6  N1  UNL     1      -3.912   4.310  -2.101  1.00  0.00    -0.255 N 
HETATM    7  C10 UNL     1      -3.425   3.097  -1.461  1.00  0.00     0.289 A 
HETATM    8  O2  UNL     1      -2.908   3.118  -0.315  1.00  0.00    -0.264 OA
ENDROOT
BRANCH   6   9
HETATM    9  C9  UNL     1      -3.849   5.590  -1.501  1.00  0.00     0.157 C 
HETATM   10  N2  UNL     1      -2.980   6.476  -1.846  1.00  0.00    -0.379 N 
ATOM     11  H22 UNL     1      -2.383   6.221  -2.632  1.00  0.00     0.158 HD
ATOM     12  H21 UNL     1      -2.935   7.399  -1.413  1.00  0.00     0.158 HD
HETATM   13 BR3  UNL     1      -4.981   6.074  -0.014  1.00  0.00    -0.010 Br
ENDBRANCH   6   9
BRANCH   5  14
HETATM   14  C8  UNL     1      -5.229   5.964  -4.481  1.00  0.00     0.114 C 
HETATM   15 BR2  UNL     1      -3.927   6.905  -5.556  1.00  0.00    -0.092 Br
ENDBRANCH   5  14
BRANCH   1  16
HETATM   16  O1  UNL     1      -3.296   0.661  -2.036  1.00  0.00    -0.341 OA
BRANCH  16  17
HETATM   17  C3  UNL     1      -3.838  -0.082  -0.987  1.00  0.00     0.202 C 
BRANCH  17  18
HETATM   18  C2  UNL     1      -5.255  -0.422  -1.378  1.00  0.00    -0.011 C 
HETATM   19  C1  UNL     1      -5.957  -1.312  -0.703  1.00  0.00     0.009 C 
ENDBRANCH  17  18
ENDBRANCH  16  17
ENDBRANCH   1  16
TORSDOF 5
ENDMDL
MODEL 4
REMARK VINA RESULT: -5.420119093      2.293      5.216
REMARK  5 active torsions:
REMARK  status: ('A' for Active; 'I' for Inactive)
REMARK    1  A    between atoms: C2_2  and  C3_3 
REMARK    2  A    between atoms: C3_3  and  O1_4 
REMARK    3  A    between atoms: O1_4  and  C4_5 
REMARK    4  A    between atoms: C7_9  and  C8_10 
REMARK    5  A    between atoms: N1_12  and  C9_13 
ROOT
HETATM    1  C4  UNL     1      -3.085   5.605  -4.050  1.00  0.00     0.157 A 
HETATM    2  C5  UNL     1      -3.423   4.340  -4.205  1.00  0.00     0.077 A 
HETATM    3 BR1  UNL     1      -3.553   3.486  -5.898  1.00  0.00    -0.045 Br
HETATM    4  C6  UNL     1      -3.670   3.743  -2.866  1.00  0.00     0.062 A 
HETATM    5  C7  UNL     1      -4.026   2.503  -2.743  1.00  0.00     0.016 C 
HETATM    6  N1  UNL     1      -3.453   4.739  -1.878  1.00  0.00    -0.255 N 
HETATM    7  C10 UNL     1      -3.084   5.924  -2.638  1.00  0.00     0.289 A 
HETATM    8  O2  UNL     1      -2.819   7.015  -2.072  1.00  0.00    -0.264 OA
ENDROOT
BRANCH   6   9
HETATM    9  C9  UNL     1      -3.542   4.712  -0.466  1.00  0.00     0.157 C 
HETATM   10  N2  UNL     1      -2.681   4.102   0.272  1.00  0.00    -0.379 N 
ATOM     11  H22 UNL     1      -1.887   3.698  -0.224  1.00  0.00     0.158 HD
ATOM     12  H21 UNL     1      -2.745   4.082   1.290  1.00  0.00     0.158 HD
HETATM   13 BR3  UNL     1      -5.044   5.478   0.474  1.00  0.00    -0.010 Br
ENDBRANCH   6   9
BRANCH   5  14
HETATM   14  C8  UNL     1      -4.333   1.695  -1.562  1.00  0.00     0.114 C 
HETATM   15 BR2  UNL     1      -3.524  -0.060  -1.587  1.00  0.00    -0.092 Br
ENDBRANCH   5  14
BRANCH   1  16
HETATM   16  O1  UNL     1      -2.774   6.514  -5.055  1.00  0.00    -0.341 OA
BRANCH  16  17
HETATM   17  C3  UNL     1      -3.697   7.349  -5.686  1.00  0.00     0.202 C 
BRANCH  17  18
HETATM   18  C2  UNL     1      -3.256   7.482  -7.122  1.00  0.00    -0.011 C 
HETATM   19  C1  UNL     1      -3.709   6.668  -8.056  1.00  0.00     0.009 C 
ENDBRANCH  17  18
ENDBRANCH  16  17
ENDBRANCH   1  16
TORSDOF 5
ENDMDL
MODEL 5
REMARK VINA RESULT: -5.343530021      2.246      3.384
REMARK  5 active torsions:
REMARK  status: ('A' for Active; 'I' for Inactive)
REMARK    1  A    between atoms: C2_2  and  C3_3 
REMARK    2  A    between atoms: C3_3  and  O1_4 
REMARK    3  A    between atoms: O1_4  and  C4_5 
REMARK    4  A    between atoms: C7_9  and  C8_10 
REMARK    5  A    between atoms: N1_12  and  C9_13 
ROOT
HETATM    1  C4  UNL     1      -4.087   3.980  -1.527  1.00  0.00     0.157 A 
HETATM    2  C5  UNL     1      -3.452   4.573  -2.519  1.00  0.00     0.077 A 
HETATM    3 BR1  UNL     1      -2.794   6.355  -2.431  1.00  0.00    -0.045 Br
HETATM    4  C6  UNL     1      -3.358   3.626  -3.660  1.00  0.00     0.062 A 
HETATM    5  C7  UNL     1      -2.780   3.972  -4.768  1.00  0.00     0.016 C 
HETATM    6  N1  UNL     1      -3.979   2.405  -3.290  1.00  0.00    -0.255 N 
HETATM    7  C10 UNL     1      -4.445   2.637  -1.931  1.00  0.00     0.289 A 
HETATM    8  O2  UNL     1      -5.055   1.750  -1.282  1.00  0.00    -0.264 OA
ENDROOT
BRANCH   6   9
HETATM    9  C9  UNL     1      -4.166   1.186  -3.983  1.00  0.00     0.157 C 
HETATM   10  N2  UNL     1      -3.526   0.110  -3.680  1.00  0.00    -0.379 N 
ATOM     11  H22 UNL     1      -2.925   0.175  -2.858  1.00  0.00     0.158 HD
ATOM     12  H21 UNL     1      -3.661  -0.769  -4.180  1.00  0.00     0.158 HD
HETATM   13 BR3  UNL     1      -5.304   1.062  -5.537  1.00  0.00    -0.010 Br
ENDBRANCH   6   9
BRANCH   5  14
HETATM   14  C8  UNL     1      -2.569   3.243  -6.019  1.00  0.00     0.114 C 
HETATM   15 BR2  UNL     1      -1.019   3.832  -7.012  1.00  0.00    -0.092 Br
ENDBRANCH   5  14
BRANCH   1  16
HETATM   16  O1  UNL     1      -4.382   4.525  -0.282  1.00  0.00    -0.341 OA
BRANCH  16  17
HETATM   17  C3  UNL     1      -5.492   5.324  -0.006  1.00  0.00     0.202 C 
BRANCH  17  18
HETATM   18  C2  UNL     1      -4.989   6.523   0.759  1.00  0.00    -0.011 C 
HETATM   19  C1  UNL     1      -5.590   6.936   1.858  1.00  0.00     0.009 C 
ENDBRANCH  17  18
ENDBRANCH  16  17
ENDBRANCH   1  16
TORSDOF 5
ENDMDL
