MODEL 1
REMARK VINA RESULT: -6.615604384      0.000      0.000
REMARK  6 active torsions:
REMARK  status: ('A' for Active; 'I' for Inactive)
REMARK    1  A    between atoms: C3_4  and  C4_6 
REMARK    2  A    between atoms: C4_6  and  N1_7 
REMARK       I    between atoms: N1_7  and  C5_9 
REMARK    3  A    between atoms: C5_9  and  C6_11 
REMARK    4  A    between atoms: C6_11  and  N2_12 
REMARK    5  A    between atoms: C7_13  and  C8_14 
REMARK    6  A    between atoms: C13_22  and  C14_23 
ROOT
HETATM    1  N2  UNL     1      -4.533   5.693  -4.362  1.00  0.00    -0.327 N 
HETATM    2  C7  UNL     1      -4.810   5.603  -2.942  1.00  0.00     0.094 C 
HETATM    3  N3  UNL     1      -6.098   5.634  -2.782  1.00  0.00    -0.314 N 
ATOM      4  H3  UNL     1      -6.576   5.585  -1.882  1.00  0.00     0.170 HD
HETATM    5  C12 UNL     1      -6.744   5.745  -4.042  1.00  0.00     0.246 C 
HETATM    6  O2  UNL     1      -7.881   6.192  -4.340  1.00  0.00    -0.271 OA
HETATM    7  C13 UNL     1      -5.709   5.174  -5.009  1.00  0.00     0.186 C 
ENDROOT
BRANCH   1   8
HETATM    8  C6  UNL     1      -3.338   6.191  -4.870  1.00  0.00     0.167 C 
BRANCH   8   9
HETATM    9  C5  UNL     1      -3.363   7.182  -5.960  1.00  0.00     0.257 C 
HETATM   10  N1  UNL     1      -2.691   6.771  -7.164  1.00  0.00    -0.351 N 
ATOM     11  H1  UNL     1      -2.242   5.858  -7.226  1.00  0.00     0.163 HD
HETATM   12  O1  UNL     1      -3.883   8.299  -5.960  1.00  0.00    -0.267 OA
BRANCH  10  13
HETATM   13  C4  UNL     1      -2.669   7.682  -8.279  1.00  0.00     0.175 C 
BRANCH  13  14
HETATM   14  C3  UNL     1      -3.465   7.185  -9.429  1.00  0.00     0.042 C 
HETATM   15  C2  UNL     1      -3.298   7.646 -10.643  1.00  0.00     0.004 C 
HETATM   16  C1  UNL     1      -2.290   8.694 -10.899  1.00  0.00     0.058 C 
HETATM   17 BR1  UNL     1      -4.364   6.951 -12.059  1.00  0.00    -0.055 Br
HETATM   18 CL1  UNL     1      -4.652   5.944  -9.112  1.00  0.00    -0.086 Cl
ENDBRANCH  13  14
ENDBRANCH  10  13
ENDBRANCH   8   9
ENDBRANCH   1   8
BRANCH   2  19
HETATM   19  C8  UNL     1      -3.823   5.498  -1.893  1.00  0.00     0.008 C 
HETATM   20  C9  UNL     1      -4.524   5.674  -0.530  1.00  0.00     0.022 C 
HETATM   21  C10 UNL     1      -2.715   6.482  -1.904  1.00  0.00     0.022 C 
HETATM   22  C11 UNL     1      -3.206   4.095  -1.782  1.00  0.00     0.022 C 
ENDBRANCH   2  19
BRANCH   7  23
HETATM   23  C14 UNL     1      -5.852   3.678  -4.848  1.00  0.00     0.010 C 
HETATM   24  C15 UNL     1      -7.122   3.249  -5.550  1.00  0.00     0.012 C 
HETATM   25  C16 UNL     1      -4.705   2.947  -5.502  1.00  0.00     0.012 C 
ENDBRANCH   7  23
TORSDOF 6
ENDMDL
MODEL 2
REMARK VINA RESULT: -6.499034345      2.705      4.061
REMARK  6 active torsions:
REMARK  status: ('A' for Active; 'I' for Inactive)
REMARK    1  A    between atoms: C3_4  and  C4_6 
REMARK    2  A    between atoms: C4_6  and  N1_7 
REMARK       I    between atoms: N1_7  and  C5_9 
REMARK    3  A    between atoms: C5_9  and  C6_11 
REMARK    4  A    between atoms: C6_11  and  N2_12 
REMARK    5  A    between atoms: C7_13  and  C8_14 
REMARK    6  A    between atoms: C13_22  and  C14_23 
ROOT
HETATM    1  N2  UNL     1      -3.254   3.512  -3.004  1.00  0.00    -0.327 N 
HETATM    2  C7  UNL     1      -3.796   2.327  -2.370  1.00  0.00     0.094 C 
HETATM    3  N3  UNL     1      -3.518   2.386  -1.104  1.00  0.00    -0.314 N 
ATOM      4  H3  UNL     1      -3.780   1.682  -0.414  1.00  0.00     0.170 HD
HETATM    5  C12 UNL     1      -2.795   3.575  -0.818  1.00  0.00     0.246 C 
HETATM    6  O2  UNL     1      -2.010   3.847   0.126  1.00  0.00    -0.271 OA
HETATM    7  C13 UNL     1      -3.197   4.504  -1.961  1.00  0.00     0.186 C 
ENDROOT
BRANCH   1   8
HETATM    8  C6  UNL     1      -2.908   3.560  -4.349  1.00  0.00     0.167 C 
BRANCH   8   9
HETATM    9  C5  UNL     1      -2.905   4.852  -5.059  1.00  0.00     0.257 C 
HETATM   10  N1  UNL     1      -3.987   5.031  -5.990  1.00  0.00    -0.351 N 
ATOM     11  H1  UNL     1      -4.685   4.300  -6.126  1.00  0.00     0.163 HD
HETATM   12  O1  UNL     1      -2.100   5.779  -4.948  1.00  0.00    -0.267 OA
BRANCH  10  13
HETATM   13  C4  UNL     1      -4.059   6.267  -6.725  1.00  0.00     0.175 C 
BRANCH  13  14
HETATM   14  C3  UNL     1      -4.365   6.052  -8.161  1.00  0.00     0.042 C 
HETATM   15  C2  UNL     1      -3.786   6.747  -9.108  1.00  0.00     0.004 C 
HETATM   16  C1  UNL     1      -2.795   7.784  -8.757  1.00  0.00     0.058 C 
HETATM   17 BR1  UNL     1      -4.240   6.405 -10.924  1.00  0.00    -0.055 Br
HETATM   18 CL1  UNL     1      -5.538   4.822  -8.561  1.00  0.00    -0.086 Cl
ENDBRANCH  13  14
ENDBRANCH  10  13
ENDBRANCH   8   9
ENDBRANCH   1   8
BRANCH   2  19
HETATM   19  C8  UNL     1      -4.517   1.267  -3.035  1.00  0.00     0.008 C 
HETATM   20  C9  UNL     1      -5.350   0.499  -1.989  1.00  0.00     0.022 C 
HETATM   21  C10 UNL     1      -3.714   0.240  -3.741  1.00  0.00     0.022 C 
HETATM   22  C11 UNL     1      -5.584   1.783  -4.012  1.00  0.00     0.022 C 
ENDBRANCH   2  19
BRANCH   7  23
HETATM   23  C14 UNL     1      -4.564   5.004  -1.556  1.00  0.00     0.010 C 
HETATM   24  C15 UNL     1      -4.377   6.103  -0.531  1.00  0.00     0.012 C 
HETATM   25  C16 UNL     1      -5.297   5.602  -2.731  1.00  0.00     0.012 C 
ENDBRANCH   7  23
TORSDOF 6
ENDMDL
MODEL 3
REMARK VINA RESULT: -6.396255539      3.010      4.274
REMARK  6 active torsions:
REMARK  status: ('A' for Active; 'I' for Inactive)
REMARK    1  A    between atoms: C3_4  and  C4_6 
REMARK    2  A    between atoms: C4_6  and  N1_7 
REMARK       I    between atoms: N1_7  and  C5_9 
REMARK    3  A    between atoms: C5_9  and  C6_11 
REMARK    4  A    between atoms: C6_11  and  N2_12 
REMARK    5  A    between atoms: C7_13  and  C8_14 
REMARK    6  A    between atoms: C13_22  and  C14_23 
ROOT
HETATM    1  N2  UNL     1      -3.432   3.063  -3.163  1.00  0.00    -0.327 N 
HETATM    2  C7  UNL     1      -3.951   2.047  -2.269  1.00  0.00     0.094 C 
HETATM    3  N3  UNL     1      -3.574   2.342  -1.063  1.00  0.00    -0.314 N 
ATOM      4  H3  UNL     1      -3.799   1.797  -0.231  1.00  0.00     0.170 HD
HETATM    5  C12 UNL     1      -2.803   3.536  -1.071  1.00  0.00     0.246 C 
HETATM    6  O2  UNL     1      -1.941   3.956  -0.258  1.00  0.00    -0.271 OA
HETATM    7  C13 UNL     1      -3.270   4.237  -2.344  1.00  0.00     0.186 C 
ENDROOT
BRANCH   1   8
HETATM    8  C6  UNL     1      -3.189   2.834  -4.512  1.00  0.00     0.167 C 
BRANCH   8   9
HETATM    9  C5  UNL     1      -2.369   3.786  -5.281  1.00  0.00     0.257 C 
HETATM   10  N1  UNL     1      -3.107   4.851  -5.905  1.00  0.00    -0.351 N 
ATOM     11  H1  UNL     1      -4.120   4.913  -5.805  1.00  0.00     0.163 HD
HETATM   12  O1  UNL     1      -1.147   3.777  -5.446  1.00  0.00    -0.267 OA
BRANCH  10  13
HETATM   13  C4  UNL     1      -2.380   5.827  -6.675  1.00  0.00     0.175 C 
BRANCH  13  14
HETATM   14  C3  UNL     1      -2.803   5.852  -8.097  1.00  0.00     0.042 C 
HETATM   15  C2  UNL     1      -3.126   6.964  -8.709  1.00  0.00     0.004 C 
HETATM   16  C1  UNL     1      -3.074   8.246  -7.978  1.00  0.00     0.058 C 
HETATM   17 BR1  UNL     1      -3.659   6.903 -10.535  1.00  0.00    -0.055 Br
HETATM   18 CL1  UNL     1      -2.859   4.329  -8.950  1.00  0.00    -0.086 Cl
ENDBRANCH  13  14
ENDBRANCH  10  13
ENDBRANCH   8   9
ENDBRANCH   1   8
BRANCH   2  19
HETATM   19  C8  UNL     1      -4.746   0.906  -2.658  1.00  0.00     0.008 C 
HETATM   20  C9  UNL     1      -3.808  -0.197  -3.189  1.00  0.00     0.022 C 
HETATM   21  C10 UNL     1      -5.759   1.116  -3.719  1.00  0.00     0.022 C 
HETATM   22  C11 UNL     1      -5.443   0.222  -1.472  1.00  0.00     0.022 C 
ENDBRANCH   2  19
BRANCH   7  23
HETATM   23  C14 UNL     1      -4.590   4.859  -1.950  1.00  0.00     0.010 C 
HETATM   24  C15 UNL     1      -4.306   5.979  -0.971  1.00  0.00     0.012 C 
HETATM   25  C16 UNL     1      -5.285   5.467  -3.143  1.00  0.00     0.012 C 
ENDBRANCH   7  23
TORSDOF 6
ENDMDL
MODEL 4
REMARK VINA RESULT: -6.260051110      5.528      8.006
REMARK  6 active torsions:
REMARK  status: ('A' for Active; 'I' for Inactive)
REMARK    1  A    between atoms: C3_4  and  C4_6 
REMARK    2  A    between atoms: C4_6  and  N1_7 
REMARK       I    between atoms: N1_7  and  C5_9 
REMARK    3  A    between atoms: C5_9  and  C6_11 
REMARK    4  A    between atoms: C6_11  and  N2_12 
REMARK    5  A    between atoms: C7_13  and  C8_14 
REMARK    6  A    between atoms: C13_22  and  C14_23 
ROOT
HETATM    1  N2  UNL     1      -4.131   3.342  -3.800  1.00  0.00    -0.327 N 
HETATM    2  C7  UNL     1      -3.321   4.439  -3.310  1.00  0.00     0.094 C 
HETATM    3  N3  UNL     1      -2.478   4.762  -4.242  1.00  0.00    -0.314 N 
ATOM      4  H3  UNL     1      -1.784   5.506  -4.170  1.00  0.00     0.170 HD
HETATM    5  C12 UNL     1      -2.662   3.929  -5.378  1.00  0.00     0.246 C 
HETATM    6  O2  UNL     1      -1.866   3.618  -6.300  1.00  0.00    -0.271 OA
HETATM    7  C13 UNL     1      -4.111   3.469  -5.233  1.00  0.00     0.186 C 
ENDROOT
BRANCH   1   8
HETATM    8  C6  UNL     1      -4.753   2.425  -2.959  1.00  0.00     0.167 C 
BRANCH   8   9
HETATM    9  C5  UNL     1      -4.032   1.211  -2.539  1.00  0.00     0.257 C 
HETATM   10  N1  UNL     1      -4.336   0.759  -1.207  1.00  0.00    -0.351 N 
ATOM     11  H1  UNL     1      -5.004   1.264  -0.624  1.00  0.00     0.163 HD
HETATM   12  O1  UNL     1      -3.215   0.550  -3.183  1.00  0.00    -0.267 OA
BRANCH  10  13
HETATM   13  C4  UNL     1      -3.674  -0.422  -0.718  1.00  0.00     0.175 C 
BRANCH  13  14
HETATM   14  C3  UNL     1      -4.581  -1.596  -0.665  1.00  0.00     0.042 C 
HETATM   15  C2  UNL     1      -4.140  -2.807  -0.438  1.00  0.00     0.004 C 
HETATM   16  C1  UNL     1      -2.697  -3.036  -0.224  1.00  0.00     0.058 C 
HETATM   17 BR1  UNL     1      -5.375  -4.255  -0.388  1.00  0.00    -0.055 Br
HETATM   18 CL1  UNL     1      -6.285  -1.311  -0.919  1.00  0.00    -0.086 Cl
ENDBRANCH  13  14
ENDBRANCH  10  13
ENDBRANCH   8   9
ENDBRANCH   1   8
BRANCH   2  19
HETATM   19  C8  UNL     1      -3.434   5.060  -2.011  1.00  0.00     0.008 C 
HETATM   20  C9  UNL     1      -2.747   6.440  -2.056  1.00  0.00     0.022 C 
HETATM   21  C10 UNL     1      -2.826   4.346  -0.863  1.00  0.00     0.022 C 
HETATM   22  C11 UNL     1      -4.881   5.410  -1.633  1.00  0.00     0.022 C 
ENDBRANCH   2  19
BRANCH   7  23
HETATM   23  C14 UNL     1      -4.915   4.651  -5.725  1.00  0.00     0.010 C 
HETATM   24  C15 UNL     1      -4.914   4.622  -7.239  1.00  0.00     0.012 C 
HETATM   25  C16 UNL     1      -6.351   4.560  -5.272  1.00  0.00     0.012 C 
ENDBRANCH   7  23
TORSDOF 6
ENDMDL
MODEL 5
REMARK VINA RESULT: -6.250845752      1.600      1.724
REMARK  6 active torsions:
REMARK  status: ('A' for Active; 'I' for Inactive)
REMARK    1  A    between atoms: C3_4  and  C4_6 
REMARK    2  A    between atoms: C4_6  and  N1_7 
REMARK       I    between atoms: N1_7  and  C5_9 
REMARK    3  A    between atoms: C5_9  and  C6_11 
REMARK    4  A    between atoms: C6_11  and  N2_12 
REMARK    5  A    between atoms: C7_13  and  C8_14 
REMARK    6  A    between atoms: C13_22  and  C14_23 
ROOT
HETATM    1  N2  UNL     1      -3.880   4.122  -4.508  1.00  0.00    -0.327 N 
HETATM    2  C7  UNL     1      -4.494   4.789  -3.377  1.00  0.00     0.094 C 
HETATM    3  N3  UNL     1      -5.765   4.893  -3.614  1.00  0.00    -0.314 N 
ATOM      4  H3  UNL     1      -6.443   5.322  -2.985  1.00  0.00     0.170 HD
HETATM    5  C12 UNL     1      -6.075   4.323  -4.878  1.00  0.00     0.246 C 
HETATM    6  O2  UNL     1      -7.035   4.542  -5.659  1.00  0.00    -0.271 OA
HETATM    7  C13 UNL     1      -4.931   3.335  -5.097  1.00  0.00     0.186 C 
ENDROOT
BRANCH   1   8
HETATM    8  C6  UNL     1      -2.542   4.284  -4.848  1.00  0.00     0.167 C 
BRANCH   8   9
HETATM    9  C5  UNL     1      -2.180   5.051  -6.053  1.00  0.00     0.257 C 
HETATM   10  N1  UNL     1      -2.911   6.278  -6.229  1.00  0.00    -0.351 N 
ATOM     11  H1  UNL     1      -3.618   6.566  -5.554  1.00  0.00     0.163 HD
HETATM   12  O1  UNL     1      -1.340   4.770  -6.911  1.00  0.00    -0.267 OA
BRANCH  10  13
HETATM   13  C4  UNL     1      -2.618   7.089  -7.383  1.00  0.00     0.175 C 
BRANCH  13  14
HETATM   14  C3  UNL     1      -3.476   6.748  -8.544  1.00  0.00     0.042 C 
HETATM   15  C2  UNL     1      -3.241   7.216  -9.744  1.00  0.00     0.004 C 
HETATM   16  C1  UNL     1      -2.090   8.112  -9.972  1.00  0.00     0.058 C 
HETATM   17 BR1  UNL     1      -4.396   6.727 -11.177  1.00  0.00    -0.055 Br
HETATM   18 CL1  UNL     1      -4.833   5.686  -8.261  1.00  0.00    -0.086 Cl
ENDBRANCH  13  14
ENDBRANCH  10  13
ENDBRANCH   8   9
ENDBRANCH   1   8
BRANCH   2  19
HETATM   19  C8  UNL     1      -3.806   5.255  -2.196  1.00  0.00     0.008 C 
HETATM   20  C9  UNL     1      -4.853   5.674  -1.143  1.00  0.00     0.022 C 
HETATM   21  C10 UNL     1      -2.905   6.421  -2.351  1.00  0.00     0.022 C 
HETATM   22  C11 UNL     1      -3.021   4.147  -1.477  1.00  0.00     0.022 C 
ENDBRANCH   2  19
BRANCH   7  23
HETATM   23  C14 UNL     1      -5.316   2.145  -4.247  1.00  0.00     0.010 C 
HETATM   24  C15 UNL     1      -6.434   1.407  -4.952  1.00  0.00     0.012 C 
HETATM   25  C16 UNL     1      -4.162   1.185  -4.100  1.00  0.00     0.012 C 
ENDBRANCH   7  23
TORSDOF 6
ENDMDL
