MODEL 1
REMARK VINA RESULT: -6.969573420      0.000      0.000
REMARK  5 active torsions:
REMARK  status: ('A' for Active; 'I' for Inactive)
REMARK    1  A    between atoms: C4_8  and  C5_9 
REMARK       I    between atoms: C5_9  and  N3_11 
REMARK    2  A    between atoms: N3_11  and  N4_13 
REMARK    3  A    between atoms: N4_13  and  C6_15 
REMARK    4  A    between atoms: C6_15  and  N5_17 
REMARK    5  A    between atoms: N5_17  and  N6_19 
REMARK       I    between atoms: N6_19  and  C7_21 
ROOT
HETATM    1  C5  UNL     1      12.046  14.334  60.127  1.00  0.00     0.297 C 
HETATM    2  O1  UNL     1      11.008  13.650  60.289  1.00  0.00    -0.267 OA
HETATM    3  N3  UNL     1      12.994  13.900  59.166  1.00  0.00    -0.264 N 
ATOM      4  H3  UNL     1      13.841  14.452  59.028  1.00  0.00     0.190 HD
ENDROOT
BRANCH   3   5
HETATM    5  N4  UNL     1      12.813  12.748  58.402  1.00  0.00    -0.272 N 
ATOM      6  H4  UNL     1      11.917  12.264  58.465  1.00  0.00     0.189 HD
BRANCH   5   7
HETATM    7  C6  UNL     1      13.798  12.215  57.548  1.00  0.00     0.205 C 
HETATM    8  S1  UNL     1      15.362  12.649  57.794  1.00  0.00    -0.038 SA
BRANCH   7   9
HETATM    9  N5  UNL     1      13.448  11.322  56.497  1.00  0.00    -0.271 N 
ATOM     10  H5  UNL     1      12.468  11.074  56.367  1.00  0.00     0.189 HD
BRANCH   9  11
HETATM   11  N6  UNL     1      14.402  10.773  55.637  1.00  0.00    -0.252 N 
HETATM   12  C7  UNL     1      14.203   9.486  55.107  1.00  0.00     0.347 C 
HETATM   13  N7  UNL     1      15.159   8.907  54.231  1.00  0.00    -0.038 NA
HETATM   14  O2  UNL     1      13.168   8.850  55.418  1.00  0.00    -0.249 OA
ATOM     15  H6  UNL     1      15.238  11.304  55.394  1.00  0.00     0.191 HD
ENDBRANCH   9  11
ENDBRANCH   7   9
ENDBRANCH   5   7
ENDBRANCH   3   5
BRANCH   1  16
HETATM   16  C4  UNL     1      12.311  15.555  60.888  1.00  0.00     0.511 C 
HETATM   17  N1  UNL     1      12.455  15.309  62.315  1.00  0.00     0.126 N 
HETATM   18  C1  UNL     1      13.506  14.341  62.557  1.00  0.00     0.313 C 
HETATM   19  C2  UNL     1      12.925  16.603  62.780  1.00  0.00     0.302 C 
HETATM   20  C3  UNL     1      13.751  17.121  61.622  1.00  0.00     0.265 C 
HETATM   21  N2  UNL     1      13.599  16.146  60.568  1.00  0.00    -0.033 N 
ATOM     22  H22 UNL     1      13.681  16.517  59.621  1.00  0.00     0.280 HD
ATOM     23  H21 UNL     1      14.368  15.483  60.477  1.00  0.00     0.280 HD
ENDBRANCH   1  16
TORSDOF 5
ENDMDL
MODEL 2
REMARK VINA RESULT: -6.818268559      3.164      6.843
REMARK  5 active torsions:
REMARK  status: ('A' for Active; 'I' for Inactive)
REMARK    1  A    between atoms: C4_8  and  C5_9 
REMARK       I    between atoms: C5_9  and  N3_11 
REMARK    2  A    between atoms: N3_11  and  N4_13 
REMARK    3  A    between atoms: N4_13  and  C6_15 
REMARK    4  A    between atoms: C6_15  and  N5_17 
REMARK    5  A    between atoms: N5_17  and  N6_19 
REMARK       I    between atoms: N6_19  and  C7_21 
ROOT
HETATM    1  C5  UNL     1      15.180  12.855  60.054  1.00  0.00     0.297 C 
HETATM    2  O1  UNL     1      16.036  12.210  60.705  1.00  0.00    -0.267 OA
HETATM    3  N3  UNL     1      15.167  14.267  60.176  1.00  0.00    -0.264 N 
ATOM      4  H3  UNL     1      14.474  14.799  59.650  1.00  0.00     0.190 HD
ENDROOT
BRANCH   3   5
HETATM    5  N4  UNL     1      16.066  14.958  60.989  1.00  0.00    -0.272 N 
ATOM      6  H4  UNL     1      16.794  14.424  61.463  1.00  0.00     0.189 HD
BRANCH   5   7
HETATM    7  C6  UNL     1      16.025  16.351  61.190  1.00  0.00     0.205 C 
HETATM    8  S1  UNL     1      17.409  17.116  61.629  1.00  0.00    -0.038 SA
BRANCH   7   9
HETATM    9  N5  UNL     1      14.815  17.079  61.017  1.00  0.00    -0.271 N 
ATOM     10  H5  UNL     1      14.739  17.729  60.236  1.00  0.00     0.189 HD
BRANCH   9  11
HETATM   11  N6  UNL     1      13.727  16.933  61.881  1.00  0.00    -0.252 N 
HETATM   12  C7  UNL     1      12.560  16.294  61.431  1.00  0.00     0.347 C 
HETATM   13  N7  UNL     1      11.442  16.134  62.291  1.00  0.00    -0.038 NA
HETATM   14  O2  UNL     1      12.515  15.862  60.254  1.00  0.00    -0.249 OA
ATOM     15  H6  UNL     1      13.780  17.290  62.836  1.00  0.00     0.191 HD
ENDBRANCH   9  11
ENDBRANCH   7   9
ENDBRANCH   5   7
ENDBRANCH   3   5
BRANCH   1  16
HETATM   16  C4  UNL     1      14.202  12.206  59.180  1.00  0.00     0.511 C 
HETATM   17  N1  UNL     1      14.221  12.733  57.824  1.00  0.00     0.126 N 
HETATM   18  C1  UNL     1      15.548  12.611  57.253  1.00  0.00     0.313 C 
HETATM   19  C2  UNL     1      13.354  11.791  57.139  1.00  0.00     0.302 C 
HETATM   20  C3  UNL     1      13.607  10.483  57.859  1.00  0.00     0.265 C 
HETATM   21  N2  UNL     1      14.503  10.804  58.946  1.00  0.00    -0.033 N 
ATOM     22  H22 UNL     1      14.421  10.202  59.766  1.00  0.00     0.280 HD
ATOM     23  H21 UNL     1      15.486  10.596  58.772  1.00  0.00     0.280 HD
ENDBRANCH   1  16
TORSDOF 5
ENDMDL
MODEL 3
REMARK VINA RESULT: -6.802944721      3.226      6.691
REMARK  5 active torsions:
REMARK  status: ('A' for Active; 'I' for Inactive)
REMARK    1  A    between atoms: C4_8  and  C5_9 
REMARK       I    between atoms: C5_9  and  N3_11 
REMARK    2  A    between atoms: N3_11  and  N4_13 
REMARK    3  A    between atoms: N4_13  and  C6_15 
REMARK    4  A    between atoms: C6_15  and  N5_17 
REMARK    5  A    between atoms: N5_17  and  N6_19 
REMARK       I    between atoms: N6_19  and  C7_21 
ROOT
HETATM    1  C5  UNL     1      15.647  12.712  60.019  1.00  0.00     0.297 C 
HETATM    2  O1  UNL     1      16.048  12.111  61.044  1.00  0.00    -0.267 OA
HETATM    3  N3  UNL     1      15.571  14.127  60.055  1.00  0.00    -0.264 N 
ATOM      4  H3  UNL     1      15.246  14.622  59.225  1.00  0.00     0.190 HD
ENDROOT
BRANCH   3   5
HETATM    5  N4  UNL     1      15.924  14.868  61.183  1.00  0.00    -0.272 N 
ATOM      6  H4  UNL     1      16.126  14.364  62.047  1.00  0.00     0.189 HD
BRANCH   5   7
HETATM    7  C6  UNL     1      16.017  16.272  61.196  1.00  0.00     0.205 C 
HETATM    8  S1  UNL     1      17.484  16.954  61.476  1.00  0.00    -0.038 SA
BRANCH   7   9
HETATM    9  N5  UNL     1      14.870  17.083  60.971  1.00  0.00    -0.271 N 
ATOM     10  H5  UNL     1      14.885  17.755  60.205  1.00  0.00     0.189 HD
BRANCH   9  11
HETATM   11  N6  UNL     1      13.725  16.991  61.765  1.00  0.00    -0.252 N 
HETATM   12  C7  UNL     1      12.654  16.181  61.349  1.00  0.00     0.347 C 
HETATM   13  N7  UNL     1      11.479  16.071  62.139  1.00  0.00    -0.038 NA
HETATM   14  O2  UNL     1      12.746  15.552  60.268  1.00  0.00    -0.249 OA
ATOM     15  H6  UNL     1      13.666  17.508  62.642  1.00  0.00     0.191 HD
ENDBRANCH   9  11
ENDBRANCH   7   9
ENDBRANCH   5   7
ENDBRANCH   3   5
BRANCH   1  16
HETATM   16  C4  UNL     1      15.258  12.008  58.796  1.00  0.00     0.511 C 
HETATM   17  N1  UNL     1      14.033  11.240  58.953  1.00  0.00     0.126 N 
HETATM   18  C1  UNL     1      12.950  12.098  59.392  1.00  0.00     0.313 C 
HETATM   19  C2  UNL     1      13.763  10.850  57.580  1.00  0.00     0.302 C 
HETATM   20  C3  UNL     1      14.281  12.018  56.768  1.00  0.00     0.265 C 
HETATM   21  N2  UNL     1      14.891  12.915  57.721  1.00  0.00    -0.033 N 
ATOM     22  H22 UNL     1      15.655  13.482  57.354  1.00  0.00     0.280 HD
ATOM     23  H21 UNL     1      14.312  13.706  58.003  1.00  0.00     0.280 HD
ENDBRANCH   1  16
TORSDOF 5
ENDMDL
MODEL 4
REMARK VINA RESULT: -6.679013660      2.376      6.926
REMARK  5 active torsions:
REMARK  status: ('A' for Active; 'I' for Inactive)
REMARK    1  A    between atoms: C4_8  and  C5_9 
REMARK       I    between atoms: C5_9  and  N3_11 
REMARK    2  A    between atoms: N3_11  and  N4_13 
REMARK    3  A    between atoms: N4_13  and  C6_15 
REMARK    4  A    between atoms: C6_15  and  N5_17 
REMARK    5  A    between atoms: N5_17  and  N6_19 
REMARK       I    between atoms: N6_19  and  C7_21 
ROOT
HETATM    1  C5  UNL     1      12.850  12.454  58.666  1.00  0.00     0.297 C 
HETATM    2  O1  UNL     1      12.609  11.461  59.392  1.00  0.00    -0.267 OA
HETATM    3  N3  UNL     1      12.362  13.721  59.077  1.00  0.00    -0.264 N 
ATOM      4  H3  UNL     1      12.554  14.534  58.491  1.00  0.00     0.190 HD
ENDROOT
BRANCH   3   5
HETATM    5  N4  UNL     1      11.630  13.898  60.250  1.00  0.00    -0.272 N 
ATOM      6  H4  UNL     1      10.631  13.688  60.231  1.00  0.00     0.189 HD
BRANCH   5   7
HETATM    7  C6  UNL     1      12.190  14.349  61.460  1.00  0.00     0.205 C 
HETATM    8  S1  UNL     1      12.981  13.264  62.406  1.00  0.00    -0.038 SA
BRANCH   7   9
HETATM    9  N5  UNL     1      12.077  15.711  61.855  1.00  0.00    -0.271 N 
ATOM     10  H5  UNL     1      11.230  16.225  61.613  1.00  0.00     0.189 HD
BRANCH   9  11
HETATM   11  N6  UNL     1      13.085  16.368  62.563  1.00  0.00    -0.252 N 
HETATM   12  C7  UNL     1      13.966  17.228  61.884  1.00  0.00     0.347 C 
HETATM   13  N7  UNL     1      14.999  17.907  62.582  1.00  0.00    -0.038 NA
HETATM   14  O2  UNL     1      13.831  17.389  60.648  1.00  0.00    -0.249 OA
ATOM     15  H6  UNL     1      13.182  16.226  63.568  1.00  0.00     0.191 HD
ENDBRANCH   9  11
ENDBRANCH   7   9
ENDBRANCH   5   7
ENDBRANCH   3   5
BRANCH   1  16
HETATM   16  C4  UNL     1      13.611  12.354  57.420  1.00  0.00     0.511 C 
HETATM   17  N1  UNL     1      14.938  12.941  57.522  1.00  0.00     0.126 N 
HETATM   18  C1  UNL     1      15.682  12.325  58.603  1.00  0.00     0.313 C 
HETATM   19  C2  UNL     1      15.536  12.511  56.269  1.00  0.00     0.302 C 
HETATM   20  C3  UNL     1      14.902  11.160  56.015  1.00  0.00     0.265 C 
HETATM   21  N2  UNL     1      13.931  10.980  57.069  1.00  0.00    -0.033 N 
ATOM     22  H22 UNL     1      13.130  10.398  56.825  1.00  0.00     0.280 HD
ATOM     23  H21 UNL     1      14.240  10.397  57.846  1.00  0.00     0.280 HD
ENDBRANCH   1  16
TORSDOF 5
ENDMDL
MODEL 5
REMARK VINA RESULT: -6.663804199      3.242      6.385
REMARK  5 active torsions:
REMARK  status: ('A' for Active; 'I' for Inactive)
REMARK    1  A    between atoms: C4_8  and  C5_9 
REMARK       I    between atoms: C5_9  and  N3_11 
REMARK    2  A    between atoms: N3_11  and  N4_13 
REMARK    3  A    between atoms: N4_13  and  C6_15 
REMARK    4  A    between atoms: C6_15  and  N5_17 
REMARK    5  A    between atoms: N5_17  and  N6_19 
REMARK       I    between atoms: N6_19  and  C7_21 
ROOT
HETATM    1  C5  UNL     1      15.739  11.796  59.886  1.00  0.00     0.297 C 
HETATM    2  O1  UNL     1      15.703  10.740  60.561  1.00  0.00    -0.267 OA
HETATM    3  N3  UNL     1      15.788  13.033  60.576  1.00  0.00    -0.264 N 
ATOM      4  H3  UNL     1      15.819  13.897  60.033  1.00  0.00     0.190 HD
ENDROOT
BRANCH   3   5
HETATM    5  N4  UNL     1      15.797  13.116  61.968  1.00  0.00    -0.272 N 
ATOM      6  H4  UNL     1      16.617  12.769  62.466  1.00  0.00     0.189 HD
BRANCH   5   7
HETATM    7  C6  UNL     1      14.738  13.652  62.725  1.00  0.00     0.205 C 
HETATM    8  S1  UNL     1      14.983  15.070  63.514  1.00  0.00    -0.038 SA
BRANCH   7   9
HETATM    9  N5  UNL     1      13.485  12.982  62.805  1.00  0.00    -0.271 N 
ATOM     10  H5  UNL     1      13.171  12.632  63.709  1.00  0.00     0.189 HD
BRANCH   9  11
HETATM   11  N6  UNL     1      12.670  12.789  61.687  1.00  0.00    -0.252 N 
HETATM   12  C7  UNL     1      11.736  13.776  61.327  1.00  0.00     0.347 C 
HETATM   13  N7  UNL     1      10.896  13.602  60.196  1.00  0.00    -0.038 NA
HETATM   14  O2  UNL     1      11.650  14.818  62.021  1.00  0.00    -0.249 OA
ATOM     15  H6  UNL     1      12.753  11.936  61.134  1.00  0.00     0.191 HD
ENDBRANCH   9  11
ENDBRANCH   7   9
ENDBRANCH   5   7
ENDBRANCH   3   5
BRANCH   1  16
HETATM   16  C4  UNL     1      15.733  11.795  58.422  1.00  0.00     0.511 C 
HETATM   17  N1  UNL     1      14.558  11.144  57.864  1.00  0.00     0.126 N 
HETATM   18  C1  UNL     1      13.349  11.771  58.360  1.00  0.00     0.313 C 
HETATM   19  C2  UNL     1      14.689  11.480  56.457  1.00  0.00     0.302 C 
HETATM   20  C3  UNL     1      15.335  12.849  56.474  1.00  0.00     0.265 C 
HETATM   21  N2  UNL     1      15.614  13.131  57.863  1.00  0.00    -0.033 N 
ATOM     22  H22 UNL     1      16.414  13.742  58.028  1.00  0.00     0.280 HD
ATOM     23  H21 UNL     1      14.935  13.735  58.327  1.00  0.00     0.280 HD
ENDBRANCH   1  16
TORSDOF 5
ENDMDL
