MODEL 1
REMARK VINA RESULT: -7.200604711      0.000      0.000
REMARK  3 active torsions:
REMARK  status: ('A' for Active; 'I' for Inactive)
REMARK       I    between atoms: C1_4  and  N2_5 
REMARK       I    between atoms: C1_4  and  N4_10 
REMARK    1  A    between atoms: N2_5  and  N3_7 
REMARK    2  A    between atoms: N4_10  and  S1_12 
REMARK    3  A    between atoms: S1_12  and  N5_15 
REMARK       I    between atoms: N6_18  and  C4_19 
ROOT
HETATM    1  S1  UNL     1      15.083  13.111  60.212  1.00  0.00     0.342 S 
HETATM    2  O1  UNL     1      14.971  12.443  61.566  1.00  0.00    -0.181 OA
HETATM    3  O2  UNL     1      16.394  13.868  60.175  1.00  0.00    -0.181 OA
ENDROOT
BRANCH   1   4
HETATM    4  N4  UNL     1      13.797  14.218  59.936  1.00  0.00    -0.098 N 
HETATM    5  C1  UNL     1      12.464  13.756  60.006  1.00  0.00     0.700 C 
HETATM    6  N1  UNL     1      12.020  13.240  61.098  1.00  0.00    -0.233 N 
HETATM    7  N2  UNL     1      11.599  13.855  58.878  1.00  0.00    -0.138 N 
ATOM      8  H12 UNL     1      11.057  12.907  61.148  1.00  0.00     0.174 HD
ATOM      9  H11 UNL     1      12.639  13.169  61.905  1.00  0.00     0.174 HD
ATOM     10  H2  UNL     1      11.887  13.499  57.966  1.00  0.00     0.205 HD
ATOM     11  H4  UNL     1      13.994  15.196  59.725  1.00  0.00     0.199 HD
BRANCH   7  12
HETATM   12  N3  UNL     1      10.346  14.451  59.050  1.00  0.00    -0.331 N 
ATOM     13  H32 UNL     1       9.685  14.475  58.274  1.00  0.00     0.177 HD
ATOM     14  H31 UNL     1      10.120  14.852  59.960  1.00  0.00     0.177 HD
ENDBRANCH   7  12
ENDBRANCH   1   4
BRANCH   1  15
HETATM   15  N5  UNL     1      15.127  11.875  59.016  1.00  0.00    -0.249 N 
HETATM   16  C2  UNL     1      15.451  12.340  57.736  1.00  0.00     0.102 C 
HETATM   17  C3  UNL     1      14.451  12.076  56.652  1.00  0.00     0.171 C 
HETATM   18  N6  UNL     1      14.094  10.688  56.723  1.00  0.00    -0.346 N 
HETATM   19  C4  UNL     1      14.098   9.895  55.562  1.00  0.00     0.184 C 
HETATM   20  C5  UNL     1      13.736  10.118  57.972  1.00  0.00     0.171 C 
HETATM   21  N7  UNL     1      13.187   9.017  55.316  1.00  0.00    -0.374 N 
HETATM   22  N8  UNL     1      15.131  10.039  54.600  1.00  0.00    -0.064 NA
ATOM     23  H72 UNL     1      12.444   8.913  56.007  1.00  0.00     0.158 HD
ATOM     24  H71 UNL     1      13.189   8.441  54.473  1.00  0.00     0.158 HD
HETATM   25  C6  UNL     1      14.185  10.862  59.176  1.00  0.00     0.102 C 
ENDBRANCH   1  15
TORSDOF 3
ENDMDL
MODEL 2
REMARK VINA RESULT: -7.142516706      2.702      5.515
REMARK  3 active torsions:
REMARK  status: ('A' for Active; 'I' for Inactive)
REMARK       I    between atoms: C1_4  and  N2_5 
REMARK       I    between atoms: C1_4  and  N4_10 
REMARK    1  A    between atoms: N2_5  and  N3_7 
REMARK    2  A    between atoms: N4_10  and  S1_12 
REMARK    3  A    between atoms: S1_12  and  N5_15 
REMARK       I    between atoms: N6_18  and  C4_19 
ROOT
HETATM    1  S1  UNL     1      15.197  12.471  56.999  1.00  0.00     0.342 S 
HETATM    2  O1  UNL     1      15.628  13.535  56.011  1.00  0.00    -0.181 OA
HETATM    3  O2  UNL     1      16.294  11.429  57.065  1.00  0.00    -0.181 OA
ENDROOT
BRANCH   1   4
HETATM    4  N4  UNL     1      13.734  11.707  56.520  1.00  0.00    -0.098 N 
HETATM    5  C1  UNL     1      13.561  10.329  56.777  1.00  0.00     0.700 C 
HETATM    6  N1  UNL     1      13.598   9.893  57.988  1.00  0.00    -0.233 N 
HETATM    7  N2  UNL     1      13.342   9.410  55.711  1.00  0.00    -0.138 N 
ATOM      8  H12 UNL     1      13.473   8.898  58.174  1.00  0.00     0.174 HD
ATOM      9  H11 UNL     1      13.755  10.551  58.751  1.00  0.00     0.174 HD
ATOM     10  H2  UNL     1      13.968   9.386  54.906  1.00  0.00     0.205 HD
ATOM     11  H4  UNL     1      13.000  12.242  56.055  1.00  0.00     0.199 HD
BRANCH   7  12
HETATM   12  N3  UNL     1      12.250   8.542  55.793  1.00  0.00    -0.331 N 
ATOM     13  H32 UNL     1      11.603   8.614  56.579  1.00  0.00     0.177 HD
ATOM     14  H31 UNL     1      12.123   7.850  55.055  1.00  0.00     0.177 HD
ENDBRANCH   7  12
ENDBRANCH   1   4
BRANCH   1  15
HETATM   15  N5  UNL     1      15.051  13.215  58.544  1.00  0.00    -0.249 N 
HETATM   16  C2  UNL     1      16.112  12.930  59.410  1.00  0.00     0.102 C 
HETATM   17  C3  UNL     1      15.760  12.278  60.712  1.00  0.00     0.171 C 
HETATM   18  N6  UNL     1      14.685  13.030  61.294  1.00  0.00    -0.346 N 
HETATM   19  C4  UNL     1      14.750  13.435  62.639  1.00  0.00     0.184 C 
HETATM   20  C5  UNL     1      13.553  13.362  60.505  1.00  0.00     0.171 C 
HETATM   21  N7  UNL     1      13.731  13.398  63.427  1.00  0.00    -0.374 N 
HETATM   22  N8  UNL     1      15.971  13.911  63.185  1.00  0.00    -0.064 NA
ATOM     23  H72 UNL     1      12.853  13.057  63.035  1.00  0.00     0.158 HD
ATOM     24  H71 UNL     1      13.778  13.693  64.403  1.00  0.00     0.158 HD
HETATM   25  C6  UNL     1      13.751  13.309  59.034  1.00  0.00     0.102 C 
ENDBRANCH   1  15
TORSDOF 3
ENDMDL
MODEL 3
REMARK VINA RESULT: -7.058004323      2.330      5.971
REMARK  3 active torsions:
REMARK  status: ('A' for Active; 'I' for Inactive)
REMARK       I    between atoms: C1_4  and  N2_5 
REMARK       I    between atoms: C1_4  and  N4_10 
REMARK    1  A    between atoms: N2_5  and  N3_7 
REMARK    2  A    between atoms: N4_10  and  S1_12 
REMARK    3  A    between atoms: S1_12  and  N5_15 
REMARK       I    between atoms: N6_18  and  C4_19 
ROOT
HETATM    1  S1  UNL     1      15.029  12.119  58.726  1.00  0.00     0.342 S 
HETATM    2  O1  UNL     1      14.868  13.048  57.541  1.00  0.00    -0.181 OA
HETATM    3  O2  UNL     1      16.511  11.966  58.997  1.00  0.00    -0.181 OA
ENDROOT
BRANCH   1   4
HETATM    4  N4  UNL     1      14.359  10.567  58.418  1.00  0.00    -0.098 N 
HETATM    5  C1  UNL     1      13.760  10.311  57.165  1.00  0.00     0.700 C 
HETATM    6  N1  UNL     1      14.455  10.419  56.088  1.00  0.00    -0.233 N 
HETATM    7  N2  UNL     1      12.389   9.933  57.077  1.00  0.00    -0.138 N 
ATOM      8  H12 UNL     1      14.022  10.234  55.182  1.00  0.00     0.174 HD
ATOM      9  H11 UNL     1      15.436  10.690  56.151  1.00  0.00     0.174 HD
ATOM     10  H2  UNL     1      11.665  10.485  57.537  1.00  0.00     0.205 HD
ATOM     11  H4  UNL     1      14.394   9.838  59.132  1.00  0.00     0.199 HD
BRANCH   7  12
HETATM   12  N3  UNL     1      12.060   8.789  56.345  1.00  0.00    -0.331 N 
ATOM     13  H32 UNL     1      12.787   8.285  55.836  1.00  0.00     0.177 HD
ATOM     14  H31 UNL     1      11.088   8.480  56.337  1.00  0.00     0.177 HD
ENDBRANCH   7  12
ENDBRANCH   1   4
BRANCH   1  15
HETATM   15  N5  UNL     1      14.295  12.870  60.089  1.00  0.00    -0.249 N 
HETATM   16  C2  UNL     1      13.151  13.613  59.775  1.00  0.00     0.102 C 
HETATM   17  C3  UNL     1      13.171  15.065  60.145  1.00  0.00     0.171 C 
HETATM   18  N6  UNL     1      13.601  15.157  61.511  1.00  0.00    -0.346 N 
HETATM   19  C4  UNL     1      12.881  15.942  62.429  1.00  0.00     0.184 C 
HETATM   20  C5  UNL     1      14.758  14.452  61.932  1.00  0.00     0.171 C 
HETATM   21  N7  UNL     1      13.457  16.680  63.316  1.00  0.00    -0.374 N 
HETATM   22  N8  UNL     1      11.462  15.947  62.409  1.00  0.00    -0.064 NA
ATOM     23  H72 UNL     1      14.477  16.676  63.330  1.00  0.00     0.158 HD
ATOM     24  H71 UNL     1      12.935  17.249  63.982  1.00  0.00     0.158 HD
HETATM   25  C6  UNL     1      15.180  13.323  61.064  1.00  0.00     0.102 C 
ENDBRANCH   1  15
TORSDOF 3
ENDMDL
MODEL 4
REMARK VINA RESULT: -7.056130584      3.276      6.623
REMARK  3 active torsions:
REMARK  status: ('A' for Active; 'I' for Inactive)
REMARK       I    between atoms: C1_4  and  N2_5 
REMARK       I    between atoms: C1_4  and  N4_10 
REMARK    1  A    between atoms: N2_5  and  N3_7 
REMARK    2  A    between atoms: N4_10  and  S1_12 
REMARK    3  A    between atoms: S1_12  and  N5_15 
REMARK       I    between atoms: N6_18  and  C4_19 
ROOT
HETATM    1  S1  UNL     1      12.336  13.425  59.888  1.00  0.00     0.342 S 
HETATM    2  O1  UNL     1      12.731  12.369  60.899  1.00  0.00    -0.181 OA
HETATM    3  O2  UNL     1      10.834  13.602  59.964  1.00  0.00    -0.181 OA
ENDROOT
BRANCH   1   4
HETATM    4  N4  UNL     1      12.761  12.969  58.286  1.00  0.00    -0.098 N 
HETATM    5  C1  UNL     1      13.987  12.306  58.061  1.00  0.00     0.700 C 
HETATM    6  N1  UNL     1      14.220  11.176  58.633  1.00  0.00    -0.233 N 
HETATM    7  N2  UNL     1      14.975  12.872  57.204  1.00  0.00    -0.138 N 
ATOM      8  H12 UNL     1      15.106  10.697  58.470  1.00  0.00     0.174 HD
ATOM      9  H11 UNL     1      13.513  10.771  59.246  1.00  0.00     0.174 HD
ATOM     10  H2  UNL     1      15.288  13.834  57.333  1.00  0.00     0.205 HD
ATOM     11  H4  UNL     1      12.134  13.174  57.508  1.00  0.00     0.199 HD
BRANCH   7  12
HETATM   12  N3  UNL     1      15.504  12.077  56.183  1.00  0.00    -0.331 N 
ATOM     13  H32 UNL     1      15.669  11.084  56.347  1.00  0.00     0.177 HD
ATOM     14  H31 UNL     1      15.716  12.516  55.287  1.00  0.00     0.177 HD
ENDBRANCH   7  12
ENDBRANCH   1   4
BRANCH   1  15
HETATM   15  N5  UNL     1      13.088  14.903  60.349  1.00  0.00    -0.249 N 
HETATM   16  C2  UNL     1      14.444  14.770  60.670  1.00  0.00     0.102 C 
HETATM   17  C3  UNL     1      14.853  15.201  62.046  1.00  0.00     0.171 C 
HETATM   18  N6  UNL     1      14.300  16.506  62.271  1.00  0.00    -0.346 N 
HETATM   19  C4  UNL     1      15.108  17.542  62.770  1.00  0.00     0.184 C 
HETATM   20  C5  UNL     1      12.930  16.746  61.990  1.00  0.00     0.171 C 
HETATM   21  N7  UNL     1      14.695  18.384  63.655  1.00  0.00    -0.374 N 
HETATM   22  N8  UNL     1      16.439  17.700  62.303  1.00  0.00    -0.064 NA
ATOM     23  H72 UNL     1      13.738  18.271  63.990  1.00  0.00     0.158 HD
ATOM     24  H71 UNL     1      15.281  19.136  64.016  1.00  0.00     0.158 HD
HETATM   25  C6  UNL     1      12.280  15.780  61.068  1.00  0.00     0.102 C 
ENDBRANCH   1  15
TORSDOF 3
ENDMDL
MODEL 5
REMARK VINA RESULT: -6.969938641      4.516      7.701
REMARK  3 active torsions:
REMARK  status: ('A' for Active; 'I' for Inactive)
REMARK       I    between atoms: C1_4  and  N2_5 
REMARK       I    between atoms: C1_4  and  N4_10 
REMARK    1  A    between atoms: N2_5  and  N3_7 
REMARK    2  A    between atoms: N4_10  and  S1_12 
REMARK    3  A    between atoms: S1_12  and  N5_15 
REMARK       I    between atoms: N6_18  and  C4_19 
ROOT
HETATM    1  S1  UNL     1      14.411  14.230  62.125  1.00  0.00     0.342 S 
HETATM    2  O1  UNL     1      15.591  13.840  61.259  1.00  0.00    -0.181 OA
HETATM    3  O2  UNL     1      14.586  13.563  63.473  1.00  0.00    -0.181 OA
ENDROOT
BRANCH   1   4
HETATM    4  N4  UNL     1      12.919  13.720  61.442  1.00  0.00    -0.098 N 
HETATM    5  C1  UNL     1      12.603  14.094  60.118  1.00  0.00     0.700 C 
HETATM    6  N1  UNL     1      13.371  13.735  59.149  1.00  0.00    -0.233 N 
HETATM    7  N2  UNL     1      11.440  14.868  59.837  1.00  0.00    -0.138 N 
ATOM      8  H12 UNL     1      13.143  14.006  58.192  1.00  0.00     0.174 HD
ATOM      9  H11 UNL     1      14.204  13.182  59.350  1.00  0.00     0.174 HD
ATOM     10  H2  UNL     1      11.256  15.735  60.340  1.00  0.00     0.205 HD
ATOM     11  H4  UNL     1      12.269  13.153  61.987  1.00  0.00     0.199 HD
BRANCH   7  12
HETATM   12  N3  UNL     1      10.557  14.408  58.856  1.00  0.00    -0.331 N 
ATOM     13  H32 UNL     1      10.487  14.901  57.965  1.00  0.00     0.177 HD
ATOM     14  H31 UNL     1       9.996  13.581  59.056  1.00  0.00     0.177 HD
ENDBRANCH   7  12
ENDBRANCH   1   4
BRANCH   1  15
HETATM   15  N5  UNL     1      14.460  15.936  62.345  1.00  0.00    -0.249 N 
HETATM   16  C2  UNL     1      15.738  16.431  62.629  1.00  0.00     0.102 C 
HETATM   17  C3  UNL     1      15.895  17.188  63.913  1.00  0.00     0.171 C 
HETATM   18  N6  UNL     1      14.838  18.157  63.975  1.00  0.00    -0.346 N 
HETATM   19  C4  UNL     1      15.123  19.496  64.292  1.00  0.00     0.184 C 
HETATM   20  C5  UNL     1      13.501  17.756  63.716  1.00  0.00     0.171 C 
HETATM   21  N7  UNL     1      14.372  20.204  65.065  1.00  0.00    -0.374 N 
HETATM   22  N8  UNL     1      16.275  20.129  63.756  1.00  0.00    -0.064 NA
ATOM     23  H72 UNL     1      13.544  19.749  65.450  1.00  0.00     0.158 HD
ATOM     24  H71 UNL     1      14.579  21.176  65.295  1.00  0.00     0.158 HD
HETATM   25  C6  UNL     1      13.341  16.486  62.964  1.00  0.00     0.102 C 
ENDBRANCH   1  15
TORSDOF 3
ENDMDL
