MODEL 1
REMARK VINA RESULT: -7.800610597      0.000      0.000
REMARK  5 active torsions:
REMARK  status: ('A' for Active; 'I' for Inactive)
REMARK       I    between atoms: C2_2  and  N1_4 
REMARK    1  A    between atoms: N1_4  and  N2_6 
REMARK       I    between atoms: N2_6  and  C3_8 
REMARK       I    between atoms: C3_8  and  N3_10 
REMARK    2  A    between atoms: N3_10  and  N4_12 
REMARK       I    between atoms: N4_12  and  C4_13 
REMARK    3  A    between atoms: C4_13  and  C5_15 
REMARK    4  A    between atoms: C9_19  and  N5_20 
REMARK    5  A    between atoms: C9_19  and  C10_24 
ROOT
HETATM    1  N4  UNL     1      12.411  12.978  59.512  1.00  0.00    -0.282 NA
HETATM    2  C4  UNL     1      12.161  13.133  60.973  1.00  0.00     0.320 C 
HETATM    3  O3  UNL     1      11.053  13.336  61.336  1.00  0.00    -0.255 OA
ENDROOT
BRANCH   2   4
HETATM    4  C5  UNL     1      13.407  13.019  61.796  1.00  0.00     0.151 A 
HETATM    5  C6  UNL     1      14.630  13.708  61.341  1.00  0.00     0.011 A 
HETATM    6  C7  UNL     1      15.995  13.033  61.502  1.00  0.00     0.019 C 
HETATM    7  C8  UNL     1      14.673  14.840  60.371  1.00  0.00     0.019 C 
HETATM    8  C9  UNL     1      13.913  14.071  62.673  1.00  0.00     0.222 A 
BRANCH   8   9
HETATM    9  N5  UNL     1      14.718  13.636  63.865  1.00  0.00    -0.060 N 
ATOM     10  H53 UNL     1      14.319  14.043  64.711  1.00  0.00     0.275 HD
ATOM     11  H52 UNL     1      14.559  12.644  64.040  1.00  0.00     0.275 HD
ATOM     12  H51 UNL     1      15.720  13.821  63.840  1.00  0.00     0.275 HD
ENDBRANCH   8   9
BRANCH   8  13
HETATM   13  C10 UNL     1      13.474  15.445  62.823  1.00  0.00     0.269 C 
HETATM   14  N6  UNL     1      14.402  16.432  63.334  1.00  0.00    -0.060 NA
HETATM   15  O4  UNL     1      12.344  15.932  62.556  1.00  0.00    -0.274 OA
ENDBRANCH   8  13
ENDBRANCH   2   4
BRANCH   1  16
HETATM   16  N3  UNL     1      12.607  12.854  58.303  1.00  0.00    -0.180 N 
HETATM   17  C3  UNL     1      13.007  11.497  57.734  1.00  0.00     0.363 C 
HETATM   18  N2  UNL     1      13.156  11.342  56.364  1.00  0.00    -0.247 N 
HETATM   19  O2  UNL     1      13.139  10.678  58.620  1.00  0.00    -0.243 OA
ATOM     20  H2  UNL     1      13.049  12.143  55.743  1.00  0.00     0.192 HD
ATOM     21  H3  UNL     1      12.503  13.657  57.683  1.00  0.00     0.207 HD
BRANCH  18  22
HETATM   22  N1  UNL     1      13.461  10.045  55.825  1.00  0.00    -0.266 N 
HETATM   23  C2  UNL     1      14.662   9.929  55.049  1.00  0.00     0.232 C 
HETATM   24  C1  UNL     1      15.091   8.692  54.400  1.00  0.00     0.119 C 
HETATM   25  O1  UNL     1      15.350  11.008  54.948  1.00  0.00    -0.272 OA
ATOM     26  H1  UNL     1      12.852   9.244  55.987  1.00  0.00     0.190 HD
ENDBRANCH  18  22
ENDBRANCH   1  16
TORSDOF 5
ENDMDL
MODEL 2
REMARK VINA RESULT: -7.753407124      1.552      1.802
REMARK  5 active torsions:
REMARK  status: ('A' for Active; 'I' for Inactive)
REMARK       I    between atoms: C2_2  and  N1_4 
REMARK    1  A    between atoms: N1_4  and  N2_6 
REMARK       I    between atoms: N2_6  and  C3_8 
REMARK       I    between atoms: C3_8  and  N3_10 
REMARK    2  A    between atoms: N3_10  and  N4_12 
REMARK       I    between atoms: N4_12  and  C4_13 
REMARK    3  A    between atoms: C4_13  and  C5_15 
REMARK    4  A    between atoms: C9_19  and  N5_20 
REMARK    5  A    between atoms: C9_19  and  C10_24 
ROOT
HETATM    1  N4  UNL     1      12.960  14.254  60.312  1.00  0.00    -0.282 NA
HETATM    2  C4  UNL     1      12.672  14.569  61.740  1.00  0.00     0.320 C 
HETATM    3  O3  UNL     1      11.545  14.564  62.101  1.00  0.00    -0.255 OA
ENDROOT
BRANCH   2   4
HETATM    4  C5  UNL     1      13.906  14.873  62.532  1.00  0.00     0.151 A 
HETATM    5  C6  UNL     1      14.878  15.845  61.997  1.00  0.00     0.011 A 
HETATM    6  C7  UNL     1      16.380  15.598  62.163  1.00  0.00     0.019 C 
HETATM    7  C8  UNL     1      14.589  16.870  60.952  1.00  0.00     0.019 C 
HETATM    8  C9  UNL     1      14.099  16.086  63.321  1.00  0.00     0.222 A 
BRANCH   8   9
HETATM    9  N5  UNL     1      15.004  15.986  64.517  1.00  0.00    -0.060 N 
ATOM     10  H53 UNL     1      14.446  16.020  65.369  1.00  0.00     0.275 HD
ATOM     11  H52 UNL     1      15.385  15.042  64.577  1.00  0.00     0.275 HD
ATOM     12  H51 UNL     1      15.764  16.663  64.581  1.00  0.00     0.275 HD
ENDBRANCH   8   9
BRANCH   8  13
HETATM   13  C10 UNL     1      13.288  17.287  63.391  1.00  0.00     0.269 C 
HETATM   14  N6  UNL     1      13.707  18.375  64.250  1.00  0.00    -0.060 NA
HETATM   15  O4  UNL     1      12.218  17.537  62.777  1.00  0.00    -0.274 OA
ENDBRANCH   8  13
ENDBRANCH   2   4
BRANCH   1  16
HETATM   16  N3  UNL     1      13.186  13.994  59.130  1.00  0.00    -0.180 N 
HETATM   17  C3  UNL     1      13.075  12.557  58.633  1.00  0.00     0.363 C 
HETATM   18  N2  UNL     1      13.259  12.277  57.288  1.00  0.00    -0.247 N 
HETATM   19  O2  UNL     1      12.812  11.803  59.547  1.00  0.00    -0.243 OA
ATOM     20  H2  UNL     1      13.518  13.022  56.640  1.00  0.00     0.192 HD
ATOM     21  H3  UNL     1      13.448  14.739  58.484  1.00  0.00     0.207 HD
BRANCH  18  22
HETATM   22  N1  UNL     1      13.082  10.934  56.811  1.00  0.00    -0.266 N 
HETATM   23  C2  UNL     1      14.021  10.460  55.835  1.00  0.00     0.232 C 
HETATM   24  C1  UNL     1      13.954   9.135  55.222  1.00  0.00     0.119 C 
HETATM   25  O1  UNL     1      14.942  11.297  55.517  1.00  0.00    -0.272 OA
ATOM     26  H1  UNL     1      12.324  10.343  57.151  1.00  0.00     0.190 HD
ENDBRANCH  18  22
ENDBRANCH   1  16
TORSDOF 5
ENDMDL
MODEL 3
REMARK VINA RESULT: -7.725552560      1.749      1.955
REMARK  5 active torsions:
REMARK  status: ('A' for Active; 'I' for Inactive)
REMARK       I    between atoms: C2_2  and  N1_4 
REMARK    1  A    between atoms: N1_4  and  N2_6 
REMARK       I    between atoms: N2_6  and  C3_8 
REMARK       I    between atoms: C3_8  and  N3_10 
REMARK    2  A    between atoms: N3_10  and  N4_12 
REMARK       I    between atoms: N4_12  and  C4_13 
REMARK    3  A    between atoms: C4_13  and  C5_15 
REMARK    4  A    between atoms: C9_19  and  N5_20 
REMARK    5  A    between atoms: C9_19  and  C10_24 
ROOT
HETATM    1  N4  UNL     1      12.568  13.335  60.053  1.00  0.00    -0.282 NA
HETATM    2  C4  UNL     1      12.534  14.689  60.673  1.00  0.00     0.320 C 
HETATM    3  O3  UNL     1      11.943  15.549  60.114  1.00  0.00    -0.255 OA
ENDROOT
BRANCH   2   4
HETATM    4  C5  UNL     1      13.300  14.764  61.957  1.00  0.00     0.151 A 
HETATM    5  C6  UNL     1      14.742  14.455  61.949  1.00  0.00     0.011 A 
HETATM    6  C7  UNL     1      15.366  13.674  63.110  1.00  0.00     0.019 C 
HETATM    7  C8  UNL     1      15.622  14.469  60.744  1.00  0.00     0.019 C 
HETATM    8  C9  UNL     1      14.192  15.861  62.321  1.00  0.00     0.222 A 
BRANCH   8   9
HETATM    9  N5  UNL     1      14.361  16.147  63.786  1.00  0.00    -0.060 N 
ATOM     10  H53 UNL     1      13.602  16.750  64.104  1.00  0.00     0.275 HD
ATOM     11  H52 UNL     1      14.168  15.302  64.322  1.00  0.00     0.275 HD
ATOM     12  H51 UNL     1      15.254  16.540  64.082  1.00  0.00     0.275 HD
ENDBRANCH   8   9
BRANCH   8  13
HETATM   13  C10 UNL     1      14.664  16.977  61.522  1.00  0.00     0.269 C 
HETATM   14  N6  UNL     1      15.922  17.608  61.862  1.00  0.00    -0.060 NA
HETATM   15  O4  UNL     1      14.111  17.502  60.521  1.00  0.00    -0.274 OA
ENDBRANCH   8  13
ENDBRANCH   2   4
BRANCH   1  16
HETATM   16  N3  UNL     1      12.591  12.220  59.531  1.00  0.00    -0.180 N 
HETATM   17  C3  UNL     1      13.401  11.992  58.259  1.00  0.00     0.363 C 
HETATM   18  N2  UNL     1      13.485  10.720  57.715  1.00  0.00    -0.247 N 
HETATM   19  O2  UNL     1      13.906  13.028  57.877  1.00  0.00    -0.243 OA
ATOM     20  H2  UNL     1      12.965   9.948  58.133  1.00  0.00     0.192 HD
ATOM     21  H3  UNL     1      12.069  11.449  59.949  1.00  0.00     0.207 HD
BRANCH  18  22
HETATM   22  N1  UNL     1      14.307  10.494  56.559  1.00  0.00    -0.266 N 
HETATM   23  C2  UNL     1      13.875   9.482  55.639  1.00  0.00     0.232 C 
HETATM   24  C1  UNL     1      14.619   9.105  54.439  1.00  0.00     0.119 C 
HETATM   25  O1  UNL     1      12.769   8.905  55.947  1.00  0.00    -0.272 OA
ATOM     26  H1  UNL     1      15.160  11.030  56.399  1.00  0.00     0.190 HD
ENDBRANCH  18  22
ENDBRANCH   1  16
TORSDOF 5
ENDMDL
MODEL 4
REMARK VINA RESULT: -7.463796233      1.913      2.690
REMARK  5 active torsions:
REMARK  status: ('A' for Active; 'I' for Inactive)
REMARK       I    between atoms: C2_2  and  N1_4 
REMARK    1  A    between atoms: N1_4  and  N2_6 
REMARK       I    between atoms: N2_6  and  C3_8 
REMARK       I    between atoms: C3_8  and  N3_10 
REMARK    2  A    between atoms: N3_10  and  N4_12 
REMARK       I    between atoms: N4_12  and  C4_13 
REMARK    3  A    between atoms: C4_13  and  C5_15 
REMARK    4  A    between atoms: C9_19  and  N5_20 
REMARK    5  A    between atoms: C9_19  and  C10_24 
ROOT
HETATM    1  N4  UNL     1      13.022  13.895  60.771  1.00  0.00    -0.282 NA
HETATM    2  C4  UNL     1      13.207  13.985  62.247  1.00  0.00     0.320 C 
HETATM    3  O3  UNL     1      12.998  13.020  62.900  1.00  0.00    -0.255 OA
ENDROOT
BRANCH   2   4
HETATM    4  C5  UNL     1      13.631  15.347  62.701  1.00  0.00     0.151 A 
HETATM    5  C6  UNL     1      14.770  15.469  63.631  1.00  0.00     0.011 A 
HETATM    6  C7  UNL     1      14.733  16.507  64.756  1.00  0.00     0.019 C 
HETATM    7  C8  UNL     1      15.812  14.427  63.861  1.00  0.00     0.019 C 
HETATM    8  C9  UNL     1      14.801  16.057  62.192  1.00  0.00     0.222 A 
BRANCH   8   9
HETATM    9  N5  UNL     1      14.750  17.559  62.212  1.00  0.00    -0.060 N 
ATOM     10  H53 UNL     1      14.618  17.882  63.170  1.00  0.00     0.275 HD
ATOM     11  H52 UNL     1      15.676  17.934  62.011  1.00  0.00     0.275 HD
ATOM     12  H51 UNL     1      14.063  18.007  61.605  1.00  0.00     0.275 HD
ENDBRANCH   8   9
BRANCH   8  13
HETATM   13  C10 UNL     1      15.863  15.591  61.320  1.00  0.00     0.269 C 
HETATM   14  N6  UNL     1      17.102  16.337  61.254  1.00  0.00    -0.060 NA
HETATM   15  O4  UNL     1      15.866  14.576  60.576  1.00  0.00    -0.274 OA
ENDBRANCH   8  13
ENDBRANCH   2   4
BRANCH   1  16
HETATM   16  N3  UNL     1      12.865  13.809  59.553  1.00  0.00    -0.180 N 
HETATM   17  C3  UNL     1      13.228  12.518  58.828  1.00  0.00     0.363 C 
HETATM   18  N2  UNL     1      12.983  12.399  57.469  1.00  0.00    -0.247 N 
HETATM   19  O2  UNL     1      13.706  11.710  59.598  1.00  0.00    -0.243 OA
ATOM     20  H2  UNL     1      12.609  13.190  56.944  1.00  0.00     0.192 HD
ATOM     21  H3  UNL     1      12.494  14.602  59.029  1.00  0.00     0.207 HD
BRANCH  18  22
HETATM   22  N1  UNL     1      13.258  11.156  56.803  1.00  0.00    -0.266 N 
HETATM   23  C2  UNL     1      14.411  11.115  55.951  1.00  0.00     0.232 C 
HETATM   24  C1  UNL     1      14.804   9.941  55.174  1.00  0.00     0.119 C 
HETATM   25  O1  UNL     1      15.091  12.204  55.903  1.00  0.00    -0.272 OA
ATOM     26  H1  UNL     1      12.661  10.339  56.931  1.00  0.00     0.190 HD
ENDBRANCH  18  22
ENDBRANCH   1  16
TORSDOF 5
ENDMDL
MODEL 5
REMARK VINA RESULT: -7.298358724      1.462      1.654
REMARK  5 active torsions:
REMARK  status: ('A' for Active; 'I' for Inactive)
REMARK       I    between atoms: C2_2  and  N1_4 
REMARK    1  A    between atoms: N1_4  and  N2_6 
REMARK       I    between atoms: N2_6  and  C3_8 
REMARK       I    between atoms: C3_8  and  N3_10 
REMARK    2  A    between atoms: N3_10  and  N4_12 
REMARK       I    between atoms: N4_12  and  C4_13 
REMARK    3  A    between atoms: C4_13  and  C5_15 
REMARK    4  A    between atoms: C9_19  and  N5_20 
REMARK    5  A    between atoms: C9_19  and  C10_24 
ROOT
HETATM    1  N4  UNL     1      12.592  12.168  58.761  1.00  0.00    -0.282 NA
HETATM    2  C4  UNL     1      12.606  12.625  60.180  1.00  0.00     0.320 C 
HETATM    3  O3  UNL     1      11.616  13.091  60.630  1.00  0.00    -0.255 OA
ENDROOT
BRANCH   2   4
HETATM    4  C5  UNL     1      13.934  12.432  60.843  1.00  0.00     0.151 A 
HETATM    5  C6  UNL     1      15.164  12.597  60.046  1.00  0.00     0.011 A 
HETATM    6  C7  UNL     1      16.354  11.660  60.268  1.00  0.00     0.019 C 
HETATM    7  C8  UNL     1      15.261  13.332  58.751  1.00  0.00     0.019 C 
HETATM    8  C9  UNL     1      14.819  13.521  61.248  1.00  0.00     0.222 A 
BRANCH   8   9
HETATM    9  N5  UNL     1      15.727  13.264  62.416  1.00  0.00    -0.060 N 
ATOM     10  H53 UNL     1      15.662  14.041  63.075  1.00  0.00     0.275 HD
ATOM     11  H52 UNL     1      15.348  12.505  62.982  1.00  0.00     0.275 HD
ATOM     12  H51 UNL     1      16.708  13.077  62.208  1.00  0.00     0.275 HD
ENDBRANCH   8   9
BRANCH   8  13
HETATM   13  C10 UNL     1      14.726  14.943  60.972  1.00  0.00     0.269 C 
HETATM   14  N6  UNL     1      15.920  15.758  61.055  1.00  0.00    -0.060 NA
HETATM   15  O4  UNL     1      13.706  15.605  60.650  1.00  0.00    -0.274 OA
ENDBRANCH   8  13
ENDBRANCH   2   4
BRANCH   1  16
HETATM   16  N3  UNL     1      12.570  11.795  57.588  1.00  0.00    -0.180 N 
HETATM   17  C3  UNL     1      13.284  10.509  57.185  1.00  0.00     0.363 C 
HETATM   18  N2  UNL     1      13.197  10.053  55.879  1.00  0.00    -0.247 N 
HETATM   19  O2  UNL     1      13.863  10.021  58.135  1.00  0.00    -0.243 OA
ATOM     20  H2  UNL     1      12.701  10.601  55.177  1.00  0.00     0.192 HD
ATOM     21  H3  UNL     1      12.076  12.346  56.886  1.00  0.00     0.207 HD
BRANCH  18  22
HETATM   22  N1  UNL     1      13.809   8.804  55.521  1.00  0.00    -0.266 N 
HETATM   23  C2  UNL     1      14.799   8.838  54.482  1.00  0.00     0.232 C 
HETATM   24  C1  UNL     1      15.484   7.651  53.976  1.00  0.00     0.119 C 
HETATM   25  O1  UNL     1      15.046  10.005  54.006  1.00  0.00    -0.272 OA
ATOM     26  H1  UNL     1      13.553   7.932  55.984  1.00  0.00     0.190 HD
ENDBRANCH  18  22
ENDBRANCH   1  16
TORSDOF 5
ENDMDL
