MODEL 1
REMARK VINA RESULT: -3.712528376      0.000      0.000
REMARK  6 active torsions:
REMARK  status: ('A' for Active; 'I' for Inactive)
REMARK    1  A    between atoms: C2_2  and  C3_3 
REMARK    2  A    between atoms: C3_3  and  O1_4 
REMARK    3  A    between atoms: C3_3  and  C4_6 
REMARK    4  A    between atoms: C4_6  and  N1_7 
REMARK    5  A    between atoms: C11_14  and  C12_15 
REMARK    6  A    between atoms: N3_17  and  O2_19 
ROOT
HETATM    1  N1  UNL     1     -33.698  20.830 -23.129  1.00  0.00    -0.380 N 
HETATM    2  C5  UNL     1     -35.096  20.968 -23.163  1.00  0.00     0.059 C 
HETATM    3  C6  UNL     1     -35.583  22.357 -23.492  1.00  0.00     0.044 C 
HETATM    4  C7  UNL     1     -34.860  23.458 -22.798  1.00  0.00     0.005 C 
HETATM    5  C8  UNL     1     -34.772  23.334 -21.313  1.00  0.00     0.000 C 
HETATM    6  C9  UNL     1     -33.398  22.733 -20.980  1.00  0.00     0.002 C 
HETATM    7  C10 UNL     1     -33.647  21.260 -20.715  1.00  0.00     0.033 C 
HETATM    8  C11 UNL     1     -33.099  20.469 -21.872  1.00  0.00     0.150 C 
ENDROOT
BRANCH   1   9
HETATM    9  C4  UNL     1     -33.041  20.210 -24.210  1.00  0.00     0.154 C 
BRANCH   9  10
HETATM   10  C3  UNL     1     -33.947  19.985 -25.435  1.00  0.00     0.135 C 
BRANCH  10  11
HETATM   11  C2  UNL     1     -34.360  18.510 -25.293  1.00  0.00     0.029 C 
HETATM   12  C1  UNL     1     -35.066  18.031 -26.537  1.00  0.00     0.007 C 
ENDBRANCH  10  11
BRANCH  10  13
HETATM   13  O1  UNL     1     -33.218  20.061 -26.620  1.00  0.00    -0.394 OA
ATOM     14  H1  UNL     1     -32.741  20.882 -26.577  1.00  0.00     0.210 HD
ENDBRANCH  10  13
ENDBRANCH   9  10
ENDBRANCH   1   9
BRANCH   8  15
HETATM   15  C12 UNL     1     -32.987  19.034 -21.605  1.00  0.00     0.136 C 
HETATM   16  N2  UNL     1     -34.135  18.177 -21.658  1.00  0.00    -0.083 NA
HETATM   17  N3  UNL     1     -31.909  18.446 -21.317  1.00  0.00    -0.257 N 
ATOM     18  H3  UNL     1     -32.020  17.443 -21.161  1.00  0.00     0.195 HD
BRANCH  17  19
HETATM   19  O2  UNL     1     -30.653  18.874 -21.175  1.00  0.00    -0.289 OA
ATOM     20  H2  UNL     1     -29.826  18.579 -21.539  1.00  0.00     0.244 HD
ENDBRANCH  17  19
ENDBRANCH   8  15
TORSDOF 6
ENDMDL
MODEL 2
REMARK VINA RESULT: -3.123505408      3.189      6.215
REMARK  6 active torsions:
REMARK  status: ('A' for Active; 'I' for Inactive)
REMARK    1  A    between atoms: C2_2  and  C3_3 
REMARK    2  A    between atoms: C3_3  and  O1_4 
REMARK    3  A    between atoms: C3_3  and  C4_6 
REMARK    4  A    between atoms: C4_6  and  N1_7 
REMARK    5  A    between atoms: C11_14  and  C12_15 
REMARK    6  A    between atoms: N3_17  and  O2_19 
ROOT
HETATM    1  N1  UNL     1     -34.150  22.807 -21.613  1.00  0.00    -0.380 N 
HETATM    2  C5  UNL     1     -34.368  21.977 -20.501  1.00  0.00     0.059 C 
HETATM    3  C6  UNL     1     -33.189  21.119 -20.114  1.00  0.00     0.044 C 
HETATM    4  C7  UNL     1     -32.483  20.470 -21.253  1.00  0.00     0.005 C 
HETATM    5  C8  UNL     1     -33.347  19.683 -22.182  1.00  0.00     0.000 C 
HETATM    6  C9  UNL     1     -33.668  20.581 -23.386  1.00  0.00     0.002 C 
HETATM    7  C10 UNL     1     -35.065  21.118 -23.139  1.00  0.00     0.033 C 
HETATM    8  C11 UNL     1     -34.957  22.576 -22.781  1.00  0.00     0.150 C 
ENDROOT
BRANCH   1   9
HETATM    9  C4  UNL     1     -33.916  24.182 -21.412  1.00  0.00     0.154 C 
BRANCH   9  10
HETATM   10  C3  UNL     1     -34.984  24.865 -20.536  1.00  0.00     0.135 C 
BRANCH  10  11
HETATM   11  C2  UNL     1     -34.245  26.101 -19.995  1.00  0.00     0.029 C 
HETATM   12  C1  UNL     1     -35.150  26.915 -19.102  1.00  0.00     0.007 C 
ENDBRANCH  10  11
BRANCH  10  13
HETATM   13  O1  UNL     1     -35.289  24.089 -19.420  1.00  0.00    -0.394 OA
ATOM     14  H1  UNL     1     -34.644  24.318 -18.761  1.00  0.00     0.210 HD
ENDBRANCH  10  13
ENDBRANCH   9  10
ENDBRANCH   1   9
BRANCH   8  15
HETATM   15  C12 UNL     1     -36.235  23.291 -22.827  1.00  0.00     0.136 C 
HETATM   16  N2  UNL     1     -37.178  23.195 -21.751  1.00  0.00    -0.083 NA
HETATM   17  N3  UNL     1     -36.604  24.028 -23.781  1.00  0.00    -0.257 N 
ATOM     18  H3  UNL     1     -37.525  24.444 -23.643  1.00  0.00     0.195 HD
BRANCH  17  19
HETATM   19  O2  UNL     1     -36.029  24.371 -24.936  1.00  0.00    -0.289 OA
ATOM     20  H2  UNL     1     -36.309  24.301 -25.841  1.00  0.00     0.244 HD
ENDBRANCH  17  19
ENDBRANCH   8  15
TORSDOF 6
ENDMDL
MODEL 3
REMARK VINA RESULT: -3.030049348      3.463      6.210
REMARK  6 active torsions:
REMARK  status: ('A' for Active; 'I' for Inactive)
REMARK    1  A    between atoms: C2_2  and  C3_3 
REMARK    2  A    between atoms: C3_3  and  O1_4 
REMARK    3  A    between atoms: C3_3  and  C4_6 
REMARK    4  A    between atoms: C4_6  and  N1_7 
REMARK    5  A    between atoms: C11_14  and  C12_15 
REMARK    6  A    between atoms: N3_17  and  O2_19 
ROOT
HETATM    1  N1  UNL     1     -34.176  22.912 -21.637  1.00  0.00    -0.380 N 
HETATM    2  C5  UNL     1     -34.473  22.097 -20.533  1.00  0.00     0.059 C 
HETATM    3  C6  UNL     1     -33.345  21.200 -20.091  1.00  0.00     0.044 C 
HETATM    4  C7  UNL     1     -32.612  20.519 -21.194  1.00  0.00     0.005 C 
HETATM    5  C8  UNL     1     -33.463  19.758 -22.157  1.00  0.00     0.000 C 
HETATM    6  C9  UNL     1     -33.696  20.660 -23.378  1.00  0.00     0.002 C 
HETATM    7  C10 UNL     1     -35.083  21.248 -23.195  1.00  0.00     0.033 C 
HETATM    8  C11 UNL     1     -34.938  22.703 -22.840  1.00  0.00     0.150 C 
ENDROOT
BRANCH   1   9
HETATM    9  C4  UNL     1     -33.902  24.278 -21.432  1.00  0.00     0.154 C 
BRANCH   9  10
HETATM   10  C3  UNL     1     -34.942  24.987 -20.543  1.00  0.00     0.135 C 
BRANCH  10  11
HETATM   11  C2  UNL     1     -34.147  26.167 -19.956  1.00  0.00     0.029 C 
HETATM   12  C1  UNL     1     -35.035  27.034 -19.098  1.00  0.00     0.007 C 
ENDBRANCH  10  11
BRANCH  10  13
HETATM   13  O1  UNL     1     -35.296  24.193 -19.455  1.00  0.00    -0.394 OA
ATOM     14  H1  UNL     1     -35.248  23.295 -19.764  1.00  0.00     0.210 HD
ENDBRANCH  10  13
ENDBRANCH   9  10
ENDBRANCH   1   9
BRANCH   8  15
HETATM   15  C12 UNL     1     -36.186  23.463 -22.945  1.00  0.00     0.136 C 
HETATM   16  N2  UNL     1     -36.437  24.328 -24.061  1.00  0.00    -0.083 NA
HETATM   17  N3  UNL     1     -37.116  23.425 -22.095  1.00  0.00    -0.257 N 
ATOM     18  H3  UNL     1     -37.910  24.021 -22.331  1.00  0.00     0.195 HD
BRANCH  17  19
HETATM   19  O2  UNL     1     -37.268  22.759 -20.948  1.00  0.00    -0.289 OA
ATOM     20  H2  UNL     1     -37.755  22.947 -20.153  1.00  0.00     0.244 HD
ENDBRANCH  17  19
ENDBRANCH   8  15
TORSDOF 6
ENDMDL
MODEL 4
REMARK VINA RESULT: -3.022769868      3.275      5.111
REMARK  6 active torsions:
REMARK  status: ('A' for Active; 'I' for Inactive)
REMARK    1  A    between atoms: C2_2  and  C3_3 
REMARK    2  A    between atoms: C3_3  and  O1_4 
REMARK    3  A    between atoms: C3_3  and  C4_6 
REMARK    4  A    between atoms: C4_6  and  N1_7 
REMARK    5  A    between atoms: C11_14  and  C12_15 
REMARK    6  A    between atoms: N3_17  and  O2_19 
ROOT
HETATM    1  N1  UNL     1     -35.355  22.080 -22.383  1.00  0.00    -0.380 N 
HETATM    2  C5  UNL     1     -34.644  22.186 -23.590  1.00  0.00     0.059 C 
HETATM    3  C6  UNL     1     -34.531  20.899 -24.369  1.00  0.00     0.044 C 
HETATM    4  C7  UNL     1     -34.207  19.697 -23.553  1.00  0.00     0.005 C 
HETATM    5  C8  UNL     1     -33.005  19.818 -22.676  1.00  0.00     0.000 C 
HETATM    6  C9  UNL     1     -33.497  20.175 -21.265  1.00  0.00     0.002 C 
HETATM    7  C10 UNL     1     -33.290  21.672 -21.124  1.00  0.00     0.033 C 
HETATM    8  C11 UNL     1     -34.636  22.344 -21.165  1.00  0.00     0.150 C 
ENDROOT
BRANCH   1   9
HETATM    9  C4  UNL     1     -36.676  22.566 -22.317  1.00  0.00     0.154 C 
BRANCH   9  10
HETATM   10  C3  UNL     1     -36.807  24.050 -22.708  1.00  0.00     0.135 C 
BRANCH  10  11
HETATM   11  C2  UNL     1     -38.276  24.366 -22.379  1.00  0.00     0.029 C 
HETATM   12  C1  UNL     1     -38.810  23.402 -21.348  1.00  0.00     0.007 C 
ENDBRANCH  10  11
BRANCH  10  13
HETATM   13  O1  UNL     1     -36.683  24.219 -24.085  1.00  0.00    -0.394 OA
ATOM     14  H1  UNL     1     -37.556  24.424 -24.400  1.00  0.00     0.210 HD
ENDBRANCH  10  13
ENDBRANCH   9  10
ENDBRANCH   1   9
BRANCH   8  15
HETATM   15  C12 UNL     1     -34.612  23.740 -20.726  1.00  0.00     0.136 C 
HETATM   16  N2  UNL     1     -33.980  24.756 -21.517  1.00  0.00    -0.083 NA
HETATM   17  N3  UNL     1     -35.127  24.159 -19.654  1.00  0.00    -0.257 N 
ATOM     18  H3  UNL     1     -35.013  25.162 -19.510  1.00  0.00     0.195 HD
BRANCH  17  19
HETATM   19  O2  UNL     1     -35.793  23.549 -18.670  1.00  0.00    -0.289 OA
ATOM     20  H2  UNL     1     -35.699  22.697 -18.261  1.00  0.00     0.244 HD
ENDBRANCH  17  19
ENDBRANCH   8  15
TORSDOF 6
ENDMDL
MODEL 5
REMARK VINA RESULT: -3.019646525      2.141      3.759
REMARK  6 active torsions:
REMARK  status: ('A' for Active; 'I' for Inactive)
REMARK    1  A    between atoms: C2_2  and  C3_3 
REMARK    2  A    between atoms: C3_3  and  O1_4 
REMARK    3  A    between atoms: C3_3  and  C4_6 
REMARK    4  A    between atoms: C4_6  and  N1_7 
REMARK    5  A    between atoms: C11_14  and  C12_15 
REMARK    6  A    between atoms: N3_17  and  O2_19 
ROOT
HETATM    1  N1  UNL     1     -33.572  19.684 -23.499  1.00  0.00    -0.380 N 
HETATM    2  C5  UNL     1     -32.264  19.974 -23.921  1.00  0.00     0.059 C 
HETATM    3  C6  UNL     1     -31.246  18.912 -23.590  1.00  0.00     0.044 C 
HETATM    4  C7  UNL     1     -31.351  18.345 -22.218  1.00  0.00     0.005 C 
HETATM    5  C8  UNL     1     -31.360  19.344 -21.108  1.00  0.00     0.000 C 
HETATM    6  C9  UNL     1     -32.825  19.582 -20.713  1.00  0.00     0.002 C 
HETATM    7  C10 UNL     1     -33.228  20.881 -21.386  1.00  0.00     0.033 C 
HETATM    8  C11 UNL     1     -34.162  20.559 -22.521  1.00  0.00     0.150 C 
ENDROOT
BRANCH   1   9
HETATM    9  C4  UNL     1     -34.523  19.255 -24.446  1.00  0.00     0.154 C 
BRANCH   9  10
HETATM   10  C3  UNL     1     -33.944  19.077 -25.863  1.00  0.00     0.135 C 
BRANCH  10  11
HETATM   11  C2  UNL     1     -35.196  19.118 -26.755  1.00  0.00     0.029 C 
HETATM   12  C1  UNL     1     -35.714  17.724 -27.011  1.00  0.00     0.007 C 
ENDBRANCH  10  11
BRANCH  10  13
HETATM   13  O1  UNL     1     -33.404  17.804 -26.028  1.00  0.00    -0.394 OA
ATOM     14  H1  UNL     1     -32.643  17.771 -25.459  1.00  0.00     0.210 HD
ENDBRANCH  10  13
ENDBRANCH   9  10
ENDBRANCH   1   9
BRANCH   8  15
HETATM   15  C12 UNL     1     -34.870  21.726 -23.051  1.00  0.00     0.136 C 
HETATM   16  N2  UNL     1     -34.960  21.962 -24.462  1.00  0.00    -0.083 NA
HETATM   17  N3  UNL     1     -35.445  22.594 -22.339  1.00  0.00    -0.257 N 
ATOM     18  H3  UNL     1     -35.886  23.338 -22.879  1.00  0.00     0.195 HD
BRANCH  17  19
HETATM   19  O2  UNL     1     -35.590  22.731 -21.019  1.00  0.00    -0.289 OA
ATOM     20  H2  UNL     1     -36.354  22.804 -20.458  1.00  0.00     0.244 HD
ENDBRANCH  17  19
ENDBRANCH   8  15
TORSDOF 6
ENDMDL
