MODEL 1
REMARK VINA RESULT: -7.130147307      0.000      0.000
REMARK  5 active torsions:
REMARK  status: ('A' for Active; 'I' for Inactive)
REMARK    1  A    between atoms: C2_3  and  C3_4 
REMARK    2  A    between atoms: C2_3  and  N6_17 
REMARK    3  A    between atoms: C3_4  and  S1_5 
REMARK    4  A    between atoms: S1_5  and  C4_6 
REMARK    5  A    between atoms: C5_9  and  N3_10 
ROOT
HETATM    1  N1  UNL     1     -32.152  18.879 -21.552  1.00  0.00    -0.195 NA
HETATM    2  C1  UNL     1     -32.754  19.486 -22.341  1.00  0.00     0.085 C 
HETATM    3  C2  UNL     1     -33.515  20.266 -23.316  1.00  0.00     0.204 C 
ENDROOT
BRANCH   3   4
HETATM    4  C3  UNL     1     -34.274  19.292 -24.173  1.00  0.00     0.123 C 
BRANCH   4   5
HETATM    5  S1  UNL     1     -33.896  19.631 -25.916  1.00  0.00    -0.089 SA
BRANCH   5   6
HETATM    6  C4  UNL     1     -34.127  18.157 -26.905  1.00  0.00     0.174 A 
HETATM    7  N2  UNL     1     -35.190  17.818 -27.672  1.00  0.00    -0.168 N 
HETATM    8  C5  UNL     1     -34.986  16.635 -28.254  1.00  0.00     0.692 A 
ATOM      9  H2  UNL     1     -36.029  18.386 -27.787  1.00  0.00     0.186 HD
HETATM   10  N4  UNL     1     -33.760  16.215 -27.848  1.00  0.00    -0.130 N 
HETATM   11  N5  UNL     1     -33.270  17.137 -27.046  1.00  0.00    -0.265 N 
ATOM     12  H4  UNL     1     -33.303  15.344 -28.114  1.00  0.00     0.205 HD
ATOM     13  H5  UNL     1     -32.358  17.083 -26.592  1.00  0.00     0.189 HD
BRANCH   8  14
HETATM   14  N3  UNL     1     -35.742  15.959 -29.054  1.00  0.00    -0.233 N 
ATOM     15  H32 UNL     1     -36.636  16.300 -29.406  1.00  0.00     0.174 HD
ATOM     16  H31 UNL     1     -35.610  15.031 -29.456  1.00  0.00     0.174 HD
ENDBRANCH   8  14
ENDBRANCH   5   6
ENDBRANCH   4   5
ENDBRANCH   3   4
BRANCH   3  17
HETATM   17  N6  UNL     1     -34.366  21.171 -22.605  1.00  0.00    -0.356 N 
HETATM   18  C6  UNL     1     -33.929  21.551 -21.323  1.00  0.00     0.064 C 
HETATM   19  C7  UNL     1     -34.666  22.694 -20.679  1.00  0.00     0.045 C 
HETATM   20  C8  UNL     1     -34.568  23.861 -21.638  1.00  0.00     0.010 C 
HETATM   21  C9  UNL     1     -35.351  23.442 -22.858  1.00  0.00     0.045 C 
HETATM   22  C10 UNL     1     -34.997  22.128 -23.423  1.00  0.00     0.064 C 
ENDBRANCH   3  17
TORSDOF 5
ENDMDL
MODEL 2
REMARK VINA RESULT: -6.876646444      1.301      1.476
REMARK  5 active torsions:
REMARK  status: ('A' for Active; 'I' for Inactive)
REMARK    1  A    between atoms: C2_3  and  C3_4 
REMARK    2  A    between atoms: C2_3  and  N6_17 
REMARK    3  A    between atoms: C3_4  and  S1_5 
REMARK    4  A    between atoms: S1_5  and  C4_6 
REMARK    5  A    between atoms: C5_9  and  N3_10 
ROOT
HETATM    1  N1  UNL     1     -31.199  18.951 -23.625  1.00  0.00    -0.195 NA
HETATM    2  C1  UNL     1     -32.222  19.388 -23.966  1.00  0.00     0.085 C 
HETATM    3  C2  UNL     1     -33.508  19.952 -24.376  1.00  0.00     0.204 C 
ENDROOT
BRANCH   3   4
HETATM    4  C3  UNL     1     -34.310  18.837 -24.985  1.00  0.00     0.123 C 
BRANCH   4   5
HETATM    5  S1  UNL     1     -34.867  19.353 -26.635  1.00  0.00    -0.089 SA
BRANCH   5   6
HETATM    6  C4  UNL     1     -35.078  17.929 -27.699  1.00  0.00     0.174 A 
HETATM    7  N2  UNL     1     -35.503  16.688 -27.365  1.00  0.00    -0.168 N 
HETATM    8  C5  UNL     1     -35.524  15.899 -28.441  1.00  0.00     0.692 A 
ATOM      9  H2  UNL     1     -35.769  16.397 -26.425  1.00  0.00     0.186 HD
HETATM   10  N4  UNL     1     -35.103  16.662 -29.483  1.00  0.00    -0.130 N 
HETATM   11  N5  UNL     1     -34.843  17.865 -29.016  1.00  0.00    -0.265 N 
ATOM     12  H4  UNL     1     -35.005  16.358 -30.452  1.00  0.00     0.205 HD
ATOM     13  H5  UNL     1     -34.509  18.644 -29.581  1.00  0.00     0.189 HD
BRANCH   8  14
HETATM   14  N3  UNL     1     -35.862  14.658 -28.558  1.00  0.00    -0.233 N 
ATOM     15  H32 UNL     1     -35.311  13.971 -29.071  1.00  0.00     0.174 HD
ATOM     16  H31 UNL     1     -36.676  14.162 -28.195  1.00  0.00     0.174 HD
ENDBRANCH   8  14
ENDBRANCH   5   6
ENDBRANCH   4   5
ENDBRANCH   3   4
BRANCH   3  17
HETATM   17  N6  UNL     1     -34.133  20.532 -23.226  1.00  0.00    -0.356 N 
HETATM   18  C6  UNL     1     -33.390  20.490 -22.032  1.00  0.00     0.064 C 
HETATM   19  C7  UNL     1     -33.913  21.322 -20.893  1.00  0.00     0.045 C 
HETATM   20  C8  UNL     1     -34.008  22.743 -21.408  1.00  0.00     0.010 C 
HETATM   21  C9  UNL     1     -35.073  22.710 -22.476  1.00  0.00     0.045 C 
HETATM   22  C10 UNL     1     -34.909  21.673 -23.509  1.00  0.00     0.064 C 
ENDBRANCH   3  17
TORSDOF 5
ENDMDL
MODEL 3
REMARK VINA RESULT: -6.368168540      1.755      3.281
REMARK  5 active torsions:
REMARK  status: ('A' for Active; 'I' for Inactive)
REMARK    1  A    between atoms: C2_3  and  C3_4 
REMARK    2  A    between atoms: C2_3  and  N6_17 
REMARK    3  A    between atoms: C3_4  and  S1_5 
REMARK    4  A    between atoms: S1_5  and  C4_6 
REMARK    5  A    between atoms: C5_9  and  N3_10 
ROOT
HETATM    1  N1  UNL     1     -35.144  22.216 -23.623  1.00  0.00    -0.195 NA
HETATM    2  C1  UNL     1     -34.628  21.189 -23.800  1.00  0.00     0.085 C 
HETATM    3  C2  UNL     1     -33.967  19.899 -24.001  1.00  0.00     0.204 C 
ENDROOT
BRANCH   3   4
HETATM    4  C3  UNL     1     -33.730  19.745 -25.477  1.00  0.00     0.123 C 
BRANCH   4   5
HETATM    5  S1  UNL     1     -35.275  19.203 -26.263  1.00  0.00    -0.089 SA
BRANCH   5   6
HETATM    6  C4  UNL     1     -35.025  17.663 -27.141  1.00  0.00     0.174 A 
HETATM    7  N2  UNL     1     -35.946  16.899 -27.773  1.00  0.00    -0.168 N 
HETATM    8  C5  UNL     1     -35.368  15.822 -28.309  1.00  0.00     0.692 A 
ATOM      9  H2  UNL     1     -36.941  17.115 -27.832  1.00  0.00     0.186 HD
HETATM   10  N4  UNL     1     -34.046  15.908 -28.008  1.00  0.00    -0.130 N 
HETATM   11  N5  UNL     1     -33.867  17.012 -27.313  1.00  0.00    -0.265 N 
ATOM     12  H4  UNL     1     -33.323  15.239 -28.273  1.00  0.00     0.205 HD
ATOM     13  H5  UNL     1     -32.967  17.329 -26.954  1.00  0.00     0.189 HD
BRANCH   8  14
HETATM   14  N3  UNL     1     -35.882  14.852 -28.988  1.00  0.00    -0.233 N 
ATOM     15  H32 UNL     1     -35.677  13.869 -28.809  1.00  0.00     0.174 HD
ATOM     16  H31 UNL     1     -36.535  14.871 -29.770  1.00  0.00     0.174 HD
ENDBRANCH   8  14
ENDBRANCH   5   6
ENDBRANCH   4   5
ENDBRANCH   3   4
BRANCH   3  17
HETATM   17  N6  UNL     1     -32.759  19.887 -23.233  1.00  0.00    -0.356 N 
HETATM   18  C6  UNL     1     -32.907  19.651 -21.854  1.00  0.00     0.064 C 
HETATM   19  C7  UNL     1     -31.644  19.372 -21.086  1.00  0.00     0.045 C 
HETATM   20  C8  UNL     1     -30.987  18.185 -21.759  1.00  0.00     0.010 C 
HETATM   21  C9  UNL     1     -30.590  18.673 -23.130  1.00  0.00     0.045 C 
HETATM   22  C10 UNL     1     -31.656  19.329 -23.907  1.00  0.00     0.064 C 
ENDBRANCH   3  17
TORSDOF 5
ENDMDL
MODEL 4
REMARK VINA RESULT: -6.311399311      0.830      1.677
REMARK  5 active torsions:
REMARK  status: ('A' for Active; 'I' for Inactive)
REMARK    1  A    between atoms: C2_3  and  C3_4 
REMARK    2  A    between atoms: C2_3  and  N6_17 
REMARK    3  A    between atoms: C3_4  and  S1_5 
REMARK    4  A    between atoms: S1_5  and  C4_6 
REMARK    5  A    between atoms: C5_9  and  N3_10 
ROOT
HETATM    1  N1  UNL     1     -33.394  18.741 -21.338  1.00  0.00    -0.195 NA
HETATM    2  C1  UNL     1     -33.501  19.415 -22.280  1.00  0.00     0.085 C 
HETATM    3  C2  UNL     1     -33.631  20.281 -23.451  1.00  0.00     0.204 C 
ENDROOT
BRANCH   3   4
HETATM    4  C3  UNL     1     -34.639  19.646 -24.367  1.00  0.00     0.123 C 
BRANCH   4   5
HETATM    5  S1  UNL     1     -33.866  19.373 -25.987  1.00  0.00    -0.089 SA
BRANCH   5   6
HETATM    6  C4  UNL     1     -34.702  18.057 -26.866  1.00  0.00     0.174 A 
HETATM    7  N2  UNL     1     -34.156  17.058 -27.599  1.00  0.00    -0.168 N 
HETATM    8  C5  UNL     1     -35.112  16.274 -28.102  1.00  0.00     0.692 A 
ATOM      9  H2  UNL     1     -33.156  16.925 -27.747  1.00  0.00     0.186 HD
HETATM   10  N4  UNL     1     -36.294  16.789 -27.673  1.00  0.00    -0.130 N 
HETATM   11  N5  UNL     1     -36.023  17.849 -26.941  1.00  0.00    -0.265 N 
ATOM     12  H4  UNL     1     -37.221  16.421 -27.881  1.00  0.00     0.205 HD
ATOM     13  H5  UNL     1     -36.726  18.434 -26.490  1.00  0.00     0.189 HD
BRANCH   8  14
HETATM   14  N3  UNL     1     -35.021  15.223 -28.846  1.00  0.00    -0.233 N 
ATOM     15  H32 UNL     1     -35.711  14.473 -28.847  1.00  0.00     0.174 HD
ATOM     16  H31 UNL     1     -34.304  14.955 -29.521  1.00  0.00     0.174 HD
ENDBRANCH   8  14
ENDBRANCH   5   6
ENDBRANCH   4   5
ENDBRANCH   3   4
BRANCH   3  17
HETATM   17  N6  UNL     1     -34.018  21.585 -23.007  1.00  0.00    -0.356 N 
HETATM   18  C6  UNL     1     -35.108  22.169 -23.679  1.00  0.00     0.064 C 
HETATM   19  C7  UNL     1     -35.689  23.408 -23.055  1.00  0.00     0.045 C 
HETATM   20  C8  UNL     1     -36.080  23.034 -21.641  1.00  0.00     0.010 C 
HETATM   21  C9  UNL     1     -34.780  22.734 -20.935  1.00  0.00     0.045 C 
HETATM   22  C10 UNL     1     -33.889  21.780 -21.618  1.00  0.00     0.064 C 
ENDBRANCH   3  17
TORSDOF 5
ENDMDL
MODEL 5
REMARK VINA RESULT: -6.249806887      2.521      7.396
REMARK  5 active torsions:
REMARK  status: ('A' for Active; 'I' for Inactive)
REMARK    1  A    between atoms: C2_3  and  C3_4 
REMARK    2  A    between atoms: C2_3  and  N6_17 
REMARK    3  A    between atoms: C3_4  and  S1_5 
REMARK    4  A    between atoms: S1_5  and  C4_6 
REMARK    5  A    between atoms: C5_9  and  N3_10 
ROOT
HETATM    1  N1  UNL     1     -31.717  19.180 -24.141  1.00  0.00    -0.195 NA
HETATM    2  C1  UNL     1     -32.870  19.324 -24.188  1.00  0.00     0.085 C 
HETATM    3  C2  UNL     1     -34.322  19.489 -24.265  1.00  0.00     0.204 C 
ENDROOT
BRANCH   3   4
HETATM    4  C3  UNL     1     -34.630  20.907 -23.876  1.00  0.00     0.123 C 
BRANCH   4   5
HETATM    5  S1  UNL     1     -34.027  21.194 -22.188  1.00  0.00    -0.089 SA
BRANCH   5   6
HETATM    6  C4  UNL     1     -34.817  22.633 -21.475  1.00  0.00     0.174 A 
HETATM    7  N2  UNL     1     -34.260  23.610 -20.721  1.00  0.00    -0.168 N 
HETATM    8  C5  UNL     1     -35.179  24.513 -20.376  1.00  0.00     0.692 A 
ATOM      9  H2  UNL     1     -33.276  23.650 -20.455  1.00  0.00     0.186 HD
HETATM   10  N4  UNL     1     -36.349  24.098 -20.928  1.00  0.00    -0.130 N 
HETATM   11  N5  UNL     1     -36.107  22.977 -21.576  1.00  0.00    -0.265 N 
ATOM     12  H4  UNL     1     -37.251  24.568 -20.853  1.00  0.00     0.205 HD
ATOM     13  H5  UNL     1     -36.809  22.443 -22.087  1.00  0.00     0.189 HD
BRANCH   8  14
HETATM   14  N3  UNL     1     -35.067  25.588 -19.670  1.00  0.00    -0.233 N 
ATOM     15  H32 UNL     1     -34.461  25.664 -18.853  1.00  0.00     0.174 HD
ATOM     16  H31 UNL     1     -35.520  26.495 -19.777  1.00  0.00     0.174 HD
ENDBRANCH   8  14
ENDBRANCH   5   6
ENDBRANCH   4   5
ENDBRANCH   3   4
BRANCH   3  17
HETATM   17  N6  UNL     1     -34.743  19.166 -25.595  1.00  0.00    -0.356 N 
HETATM   18  C6  UNL     1     -33.841  19.493 -26.624  1.00  0.00     0.064 C 
HETATM   19  C7  UNL     1     -34.148  18.925 -27.983  1.00  0.00     0.045 C 
HETATM   20  C8  UNL     1     -34.233  17.422 -27.811  1.00  0.00     0.010 C 
HETATM   21  C9  UNL     1     -35.440  17.190 -26.935  1.00  0.00     0.045 C 
HETATM   22  C10 UNL     1     -35.483  17.972 -25.688  1.00  0.00     0.064 C 
ENDBRANCH   3  17
TORSDOF 5
ENDMDL
