MODEL 1
REMARK VINA RESULT: -6.649016612      0.000      0.000
REMARK  5 active torsions:
REMARK  status: ('A' for Active; 'I' for Inactive)
REMARK    1  A    between atoms: C1_2  and  C2_3 
REMARK    2  A    between atoms: C2_3  and  C3_4 
REMARK    3  A    between atoms: C3_4  and  N2_5 
REMARK    4  A    between atoms: N3_11  and  N4_13 
REMARK    5  A    between atoms: N4_13  and  C9_15 
ROOT
HETATM    1  N1  UNL     1     -34.855  21.731 -23.746  1.00  0.00    -0.086 NA
HETATM    2  C1  UNL     1     -34.318  20.473 -23.363  1.00  0.00     0.109 C 
HETATM    3  N3  UNL     1     -33.484  20.466 -22.386  1.00  0.00    -0.288 N 
ATOM      4  H3  UNL     1     -33.267  21.365 -21.956  1.00  0.00     0.188 HD
ENDROOT
BRANCH   3   5
HETATM    5  N4  UNL     1     -32.857  19.357 -21.866  1.00  0.00    -0.270 N 
ATOM      6  H4  UNL     1     -33.380  18.762 -21.223  1.00  0.00     0.190 HD
BRANCH   5   7
HETATM    7  C9  UNL     1     -31.508  18.994 -22.180  1.00  0.00     0.190 C 
HETATM    8  N5  UNL     1     -31.114  18.571 -23.343  1.00  0.00    -0.360 N 
HETATM    9  C10 UNL     1     -29.699  18.291 -23.333  1.00  0.00     0.142 C 
ATOM     10  H5  UNL     1     -31.722  18.453 -24.153  1.00  0.00     0.162 HD
HETATM   11  C11 UNL     1     -29.403  18.176 -21.853  1.00  0.00     0.142 C 
HETATM   12  N6  UNL     1     -30.412  19.037 -21.282  1.00  0.00    -0.360 N 
ATOM     13  H6  UNL     1     -30.350  19.566 -20.413  1.00  0.00     0.162 HD
ENDBRANCH   5   7
ENDBRANCH   3   5
BRANCH   2  14
HETATM   14  C2  UNL     1     -34.739  19.263 -24.093  1.00  0.00     0.104 C 
BRANCH  14  15
HETATM   15  C3  UNL     1     -34.315  19.264 -25.525  1.00  0.00     0.279 C 
BRANCH  15  16
HETATM   16  N2  UNL     1     -34.473  18.005 -26.192  1.00  0.00     0.088 N 
HETATM   17  C4  UNL     1     -33.533  17.806 -27.273  1.00  0.00     0.272 C 
HETATM   18  C5  UNL     1     -33.761  16.376 -27.775  1.00  0.00     0.030 C 
HETATM   19  C6  UNL     1     -35.106  16.341 -28.453  1.00  0.00     0.003 C 
HETATM   20  C7  UNL     1     -36.148  16.698 -27.404  1.00  0.00     0.030 C 
HETATM   21  C8  UNL     1     -35.805  18.037 -26.818  1.00  0.00     0.272 C 
ENDBRANCH  15  16
ENDBRANCH  14  15
ENDBRANCH   2  14
TORSDOF 5
ENDMDL
MODEL 2
REMARK VINA RESULT: -6.506263833      1.999      4.109
REMARK  5 active torsions:
REMARK  status: ('A' for Active; 'I' for Inactive)
REMARK    1  A    between atoms: C1_2  and  C2_3 
REMARK    2  A    between atoms: C2_3  and  C3_4 
REMARK    3  A    between atoms: C3_4  and  N2_5 
REMARK    4  A    between atoms: N3_11  and  N4_13 
REMARK    5  A    between atoms: N4_13  and  C9_15 
ROOT
HETATM    1  N1  UNL     1     -31.957  19.027 -23.940  1.00  0.00    -0.086 NA
HETATM    2  C1  UNL     1     -33.034  19.880 -24.303  1.00  0.00     0.109 C 
HETATM    3  N3  UNL     1     -33.492  20.662 -23.393  1.00  0.00    -0.288 N 
ATOM      4  H3  UNL     1     -33.049  20.615 -22.475  1.00  0.00     0.188 HD
ENDROOT
BRANCH   3   5
HETATM    5  N4  UNL     1     -34.525  21.559 -23.543  1.00  0.00    -0.270 N 
ATOM      6  H4  UNL     1     -34.964  21.642 -24.460  1.00  0.00     0.190 HD
BRANCH   5   7
HETATM    7  C9  UNL     1     -35.016  22.382 -22.479  1.00  0.00     0.190 C 
HETATM    8  N5  UNL     1     -34.567  22.352 -21.262  1.00  0.00    -0.360 N 
HETATM    9  C10 UNL     1     -35.269  23.300 -20.434  1.00  0.00     0.142 C 
ATOM     10  H5  UNL     1     -33.818  21.741 -20.936  1.00  0.00     0.162 HD
HETATM   11  C11 UNL     1     -36.519  23.572 -21.243  1.00  0.00     0.142 C 
HETATM   12  N6  UNL     1     -36.056  23.339 -22.590  1.00  0.00    -0.360 N 
ATOM     13  H6  UNL     1     -36.404  23.774 -23.445  1.00  0.00     0.162 HD
ENDBRANCH   5   7
ENDBRANCH   3   5
BRANCH   2  14
HETATM   14  C2  UNL     1     -33.559  19.823 -25.679  1.00  0.00     0.104 C 
BRANCH  14  15
HETATM   15  C3  UNL     1     -34.864  19.103 -25.780  1.00  0.00     0.279 C 
BRANCH  15  16
HETATM   16  N2  UNL     1     -34.781  17.805 -26.386  1.00  0.00     0.088 N 
HETATM   17  C4  UNL     1     -33.745  17.707 -27.391  1.00  0.00     0.272 C 
HETATM   18  C5  UNL     1     -33.717  16.238 -27.827  1.00  0.00     0.030 C 
HETATM   19  C6  UNL     1     -34.989  15.965 -28.588  1.00  0.00     0.003 C 
HETATM   20  C7  UNL     1     -36.146  16.203 -27.631  1.00  0.00     0.030 C 
HETATM   21  C8  UNL     1     -36.053  17.604 -27.098  1.00  0.00     0.272 C 
ENDBRANCH  15  16
ENDBRANCH  14  15
ENDBRANCH   2  14
TORSDOF 5
ENDMDL
MODEL 3
REMARK VINA RESULT: -6.505715462      1.837      3.794
REMARK  5 active torsions:
REMARK  status: ('A' for Active; 'I' for Inactive)
REMARK    1  A    between atoms: C1_2  and  C2_3 
REMARK    2  A    between atoms: C2_3  and  C3_4 
REMARK    3  A    between atoms: C3_4  and  N2_5 
REMARK    4  A    between atoms: N3_11  and  N4_13 
REMARK    5  A    between atoms: N4_13  and  C9_15 
ROOT
HETATM    1  N1  UNL     1     -31.894  19.254 -24.145  1.00  0.00    -0.086 NA
HETATM    2  C1  UNL     1     -33.031  19.626 -23.380  1.00  0.00     0.109 C 
HETATM    3  N3  UNL     1     -32.816  20.121 -22.215  1.00  0.00    -0.288 N 
ATOM      4  H3  UNL     1     -31.843  20.212 -21.922  1.00  0.00     0.188 HD
ENDROOT
BRANCH   3   5
HETATM    5  N4  UNL     1     -33.778  20.541 -21.324  1.00  0.00    -0.270 N 
ATOM      6  H4  UNL     1     -34.098  19.884 -20.612  1.00  0.00     0.190 HD
BRANCH   5   7
HETATM    7  C9  UNL     1     -34.353  21.852 -21.344  1.00  0.00     0.190 C 
HETATM    8  N5  UNL     1     -34.448  22.628 -20.308  1.00  0.00    -0.360 N 
HETATM    9  C10 UNL     1     -35.074  23.878 -20.659  1.00  0.00     0.142 C 
ATOM     10  H5  UNL     1     -34.123  22.385 -19.372  1.00  0.00     0.162 HD
HETATM   11  C11 UNL     1     -35.752  23.542 -21.970  1.00  0.00     0.142 C 
HETATM   12  N6  UNL     1     -34.902  22.494 -22.483  1.00  0.00    -0.360 N 
ATOM     13  H6  UNL     1     -34.732  22.263 -23.461  1.00  0.00     0.162 HD
ENDBRANCH   5   7
ENDBRANCH   3   5
BRANCH   2  14
HETATM   14  C2  UNL     1     -34.375  19.429 -23.954  1.00  0.00     0.104 C 
BRANCH  14  15
HETATM   15  C3  UNL     1     -34.388  19.478 -25.447  1.00  0.00     0.279 C 
BRANCH  15  16
HETATM   16  N2  UNL     1     -34.510  18.198 -26.082  1.00  0.00     0.088 N 
HETATM   17  C4  UNL     1     -33.525  17.976 -27.119  1.00  0.00     0.272 C 
HETATM   18  C5  UNL     1     -33.721  16.530 -27.587  1.00  0.00     0.030 C 
HETATM   19  C6  UNL     1     -35.039  16.462 -28.316  1.00  0.00     0.003 C 
HETATM   20  C7  UNL     1     -36.123  16.840 -27.320  1.00  0.00     0.030 C 
HETATM   21  C8  UNL     1     -35.816  18.199 -26.761  1.00  0.00     0.272 C 
ENDBRANCH  15  16
ENDBRANCH  14  15
ENDBRANCH   2  14
TORSDOF 5
ENDMDL
MODEL 4
REMARK VINA RESULT: -6.485377255      0.393      1.214
REMARK  5 active torsions:
REMARK  status: ('A' for Active; 'I' for Inactive)
REMARK    1  A    between atoms: C1_2  and  C2_3 
REMARK    2  A    between atoms: C2_3  and  C3_4 
REMARK    3  A    between atoms: C3_4  and  N2_5 
REMARK    4  A    between atoms: N3_11  and  N4_13 
REMARK    5  A    between atoms: N4_13  and  C9_15 
ROOT
HETATM    1  N1  UNL     1     -34.805  21.770 -23.764  1.00  0.00    -0.086 NA
HETATM    2  C1  UNL     1     -34.253  20.507 -23.423  1.00  0.00     0.109 C 
HETATM    3  N3  UNL     1     -33.506  20.458 -22.380  1.00  0.00    -0.288 N 
ATOM      4  H3  UNL     1     -33.363  21.330 -21.870  1.00  0.00     0.188 HD
ENDROOT
BRANCH   3   5
HETATM    5  N4  UNL     1     -32.880  19.336 -21.884  1.00  0.00    -0.270 N 
ATOM      6  H4  UNL     1     -33.412  18.717 -21.272  1.00  0.00     0.190 HD
BRANCH   5   7
HETATM    7  C9  UNL     1     -31.523  18.992 -22.183  1.00  0.00     0.190 C 
HETATM    8  N5  UNL     1     -31.110  18.575 -23.341  1.00  0.00    -0.360 N 
HETATM    9  C10 UNL     1     -29.692  18.315 -23.316  1.00  0.00     0.142 C 
ATOM     10  H5  UNL     1     -31.708  18.447 -24.158  1.00  0.00     0.162 HD
HETATM   11  C11 UNL     1     -29.410  18.206 -21.832  1.00  0.00     0.142 C 
HETATM   12  N6  UNL     1     -30.438  19.052 -21.273  1.00  0.00    -0.360 N 
ATOM     13  H6  UNL     1     -30.393  19.583 -20.404  1.00  0.00     0.162 HD
ENDBRANCH   5   7
ENDBRANCH   3   5
BRANCH   2  14
HETATM   14  C2  UNL     1     -34.561  19.339 -24.269  1.00  0.00     0.104 C 
BRANCH  14  15
HETATM   15  C3  UNL     1     -33.861  19.369 -25.588  1.00  0.00     0.279 C 
BRANCH  15  16
HETATM   16  N2  UNL     1     -34.476  18.566 -26.605  1.00  0.00     0.088 N 
HETATM   17  C4  UNL     1     -35.687  17.909 -26.163  1.00  0.00     0.272 C 
HETATM   18  C5  UNL     1     -36.267  17.214 -27.400  1.00  0.00     0.030 C 
HETATM   19  C6  UNL     1     -35.345  16.076 -27.757  1.00  0.00     0.003 C 
HETATM   20  C7  UNL     1     -33.990  16.682 -28.086  1.00  0.00     0.030 C 
HETATM   21  C8  UNL     1     -33.521  17.488 -26.909  1.00  0.00     0.272 C 
ENDBRANCH  15  16
ENDBRANCH  14  15
ENDBRANCH   2  14
TORSDOF 5
ENDMDL
MODEL 5
REMARK VINA RESULT: -6.359501143      0.953      1.441
REMARK  5 active torsions:
REMARK  status: ('A' for Active; 'I' for Inactive)
REMARK    1  A    between atoms: C1_2  and  C2_3 
REMARK    2  A    between atoms: C2_3  and  C3_4 
REMARK    3  A    between atoms: C3_4  and  N2_5 
REMARK    4  A    between atoms: N3_11  and  N4_13 
REMARK    5  A    between atoms: N4_13  and  C9_15 
ROOT
HETATM    1  N1  UNL     1     -34.625  20.836 -23.219  1.00  0.00    -0.086 NA
HETATM    2  C1  UNL     1     -33.647  20.159 -23.996  1.00  0.00     0.109 C 
HETATM    3  N3  UNL     1     -32.710  19.555 -23.359  1.00  0.00    -0.288 N 
ATOM      4  H3  UNL     1     -32.735  19.604 -22.340  1.00  0.00     0.188 HD
ENDROOT
BRANCH   3   5
HETATM    5  N4  UNL     1     -31.674  18.846 -23.924  1.00  0.00    -0.270 N 
ATOM      6  H4  UNL     1     -31.714  18.645 -24.924  1.00  0.00     0.190 HD
BRANCH   5   7
HETATM    7  C9  UNL     1     -30.543  18.376 -23.184  1.00  0.00     0.190 C 
HETATM    8  N5  UNL     1     -30.160  18.862 -22.042  1.00  0.00    -0.360 N 
HETATM    9  C10 UNL     1     -28.990  18.172 -21.558  1.00  0.00     0.142 C 
ATOM     10  H5  UNL     1     -30.624  19.628 -21.554  1.00  0.00     0.162 HD
HETATM   11  C11 UNL     1     -28.467  17.505 -22.812  1.00  0.00     0.142 C 
HETATM   12  N6  UNL     1     -29.677  17.325 -23.578  1.00  0.00    -0.360 N 
ATOM     13  H6  UNL     1     -29.870  16.593 -24.262  1.00  0.00     0.162 HD
ENDBRANCH   5   7
ENDBRANCH   3   5
BRANCH   2  14
HETATM   14  C2  UNL     1     -33.757  20.184 -25.466  1.00  0.00     0.104 C 
BRANCH  14  15
HETATM   15  C3  UNL     1     -34.997  19.522 -25.973  1.00  0.00     0.279 C 
BRANCH  15  16
HETATM   16  N2  UNL     1     -34.811  18.168 -26.408  1.00  0.00     0.088 N 
HETATM   17  C4  UNL     1     -33.758  18.019 -27.388  1.00  0.00     0.272 C 
HETATM   18  C5  UNL     1     -33.618  16.513 -27.633  1.00  0.00     0.030 C 
HETATM   19  C6  UNL     1     -34.856  16.052 -28.357  1.00  0.00     0.003 C 
HETATM   20  C7  UNL     1     -36.039  16.323 -27.441  1.00  0.00     0.030 C 
HETATM   21  C8  UNL     1     -36.056  17.783 -27.092  1.00  0.00     0.272 C 
ENDBRANCH  15  16
ENDBRANCH  14  15
ENDBRANCH   2  14
TORSDOF 5
ENDMDL
