MODEL 1
REMARK VINA RESULT: -6.242976273      0.000      0.000
REMARK  6 active torsions:
REMARK  status: ('A' for Active; 'I' for Inactive)
REMARK    1  A    between atoms: C2_2  and  N2_6 
REMARK    2  A    between atoms: C5_9  and  N3_10 
REMARK    3  A    between atoms: C5_9  and  C6_14 
REMARK    4  A    between atoms: C6_14  and  N4_15 
REMARK    5  A    between atoms: N4_15  and  C7_17 
REMARK    6  A    between atoms: C7_17  and  C8_18 
ROOT
HETATM    1  N2  UNL     1     -32.454  19.578 -22.853  1.00  0.00    -0.369 N 
HETATM    2  C3  UNL     1     -33.478  20.413 -22.250  1.00  0.00     0.127 C 
HETATM    3  C4  UNL     1     -34.372  20.814 -23.391  1.00  0.00     0.066 C 
HETATM    4  C5  UNL     1     -34.266  19.693 -24.356  1.00  0.00     0.172 C 
HETATM    5  C12 UNL     1     -32.771  19.332 -24.241  1.00  0.00     0.168 C 
ENDROOT
BRANCH   4   6
HETATM    6  N3  UNL     1     -34.977  18.505 -23.919  1.00  0.00    -0.064 N 
ATOM      7  H33 UNL     1     -35.315  18.613 -22.963  1.00  0.00     0.275 HD
ATOM      8  H32 UNL     1     -35.871  18.417 -24.402  1.00  0.00     0.275 HD
ATOM      9  H31 UNL     1     -34.423  17.654 -24.017  1.00  0.00     0.275 HD
ENDBRANCH   4   6
BRANCH   4  10
HETATM   10  C6  UNL     1     -34.501  20.023 -25.779  1.00  0.00     0.096 C 
BRANCH  10  11
HETATM   11  N4  UNL     1     -33.835  19.283 -26.769  1.00  0.00    -0.394 N 
ATOM     12  H4  UNL     1     -32.874  18.972 -26.626  1.00  0.00     0.159 HD
BRANCH  11  13
HETATM   13  C7  UNL     1     -34.522  18.975 -27.970  1.00  0.00     0.183 C 
BRANCH  13  14
HETATM   14  C8  UNL     1     -34.996  17.578 -28.045  1.00  0.00     0.070 A 
HETATM   15  C9  UNL     1     -35.907  16.918 -27.255  1.00  0.00     0.036 A 
HETATM   16  C10 UNL     1     -36.022  15.632 -27.709  1.00  0.00     0.027 A 
HETATM   17  C11 UNL     1     -35.149  15.550 -28.795  1.00  0.00     0.142 A 
HETATM   18  O1  UNL     1     -34.567  16.720 -28.957  1.00  0.00    -0.325 OA
ENDBRANCH  13  14
ENDBRANCH  11  13
ENDBRANCH  10  11
ENDBRANCH   4  10
BRANCH   1  19
HETATM   19  C2  UNL     1     -31.343  19.119 -22.121  1.00  0.00     0.068 C 
HETATM   20  C1  UNL     1     -30.182  18.486 -22.791  1.00  0.00     0.088 C 
HETATM   21  N1  UNL     1     -31.304  19.238 -20.846  1.00  0.00    -0.389 N 
ATOM     22  H12 UNL     1     -30.499  18.905 -20.315  1.00  0.00     0.157 HD
ATOM     23  H11 UNL     1     -32.102  19.673 -20.384  1.00  0.00     0.157 HD
ENDBRANCH   1  19
TORSDOF 6
ENDMDL
MODEL 2
REMARK VINA RESULT: -6.217168259      2.215      6.341
REMARK  6 active torsions:
REMARK  status: ('A' for Active; 'I' for Inactive)
REMARK    1  A    between atoms: C2_2  and  N2_6 
REMARK    2  A    between atoms: C5_9  and  N3_10 
REMARK    3  A    between atoms: C5_9  and  C6_14 
REMARK    4  A    between atoms: C6_14  and  N4_15 
REMARK    5  A    between atoms: N4_15  and  C7_17 
REMARK    6  A    between atoms: C7_17  and  C8_18 
ROOT
HETATM    1  N2  UNL     1     -35.017  17.573 -27.571  1.00  0.00    -0.369 N 
HETATM    2  C3  UNL     1     -34.322  18.697 -28.174  1.00  0.00     0.127 C 
HETATM    3  C4  UNL     1     -34.199  19.712 -27.071  1.00  0.00     0.066 C 
HETATM    4  C5  UNL     1     -34.155  18.905 -25.829  1.00  0.00     0.172 C 
HETATM    5  C12 UNL     1     -35.172  17.792 -26.151  1.00  0.00     0.168 C 
ENDROOT
BRANCH   4   6
HETATM    6  N3  UNL     1     -32.889  18.220 -25.647  1.00  0.00    -0.064 N 
ATOM      7  H33 UNL     1     -33.031  17.219 -25.517  1.00  0.00     0.275 HD
ATOM      8  H32 UNL     1     -32.356  18.200 -26.516  1.00  0.00     0.275 HD
ATOM      9  H31 UNL     1     -32.332  18.611 -24.886  1.00  0.00     0.275 HD
ENDBRANCH   4   6
BRANCH   4  10
HETATM   10  C6  UNL     1     -34.644  19.564 -24.597  1.00  0.00     0.096 C 
BRANCH  10  11
HETATM   11  N4  UNL     1     -34.260  19.047 -23.350  1.00  0.00    -0.394 N 
ATOM     12  H4  UNL     1     -34.584  18.128 -23.047  1.00  0.00     0.159 HD
BRANCH  11  13
HETATM   13  C7  UNL     1     -33.414  19.823 -22.519  1.00  0.00     0.183 C 
BRANCH  13  14
HETATM   14  C8  UNL     1     -32.034  19.304 -22.422  1.00  0.00     0.070 A 
HETATM   15  C9  UNL     1     -31.278  19.027 -21.307  1.00  0.00     0.036 A 
HETATM   16  C10 UNL     1     -30.057  18.565 -21.717  1.00  0.00     0.027 A 
HETATM   17  C11 UNL     1     -30.111  18.578 -23.112  1.00  0.00     0.142 A 
HETATM   18  O1  UNL     1     -31.295  19.020 -23.482  1.00  0.00    -0.325 OA
ENDBRANCH  13  14
ENDBRANCH  11  13
ENDBRANCH  10  11
ENDBRANCH   4  10
BRANCH   1  19
HETATM   19  C2  UNL     1     -35.446  16.469 -28.332  1.00  0.00     0.068 C 
HETATM   20  C1  UNL     1     -36.202  15.352 -27.718  1.00  0.00     0.088 C 
HETATM   21  N1  UNL     1     -35.192  16.400 -29.586  1.00  0.00    -0.389 N 
ATOM     22  H12 UNL     1     -35.502  15.599 -30.138  1.00  0.00     0.157 HD
ATOM     23  H11 UNL     1     -34.671  17.168 -30.010  1.00  0.00     0.157 HD
ENDBRANCH   1  19
TORSDOF 6
ENDMDL
MODEL 3
REMARK VINA RESULT: -6.053667500      2.176      3.555
REMARK  6 active torsions:
REMARK  status: ('A' for Active; 'I' for Inactive)
REMARK    1  A    between atoms: C2_2  and  N2_6 
REMARK    2  A    between atoms: C5_9  and  N3_10 
REMARK    3  A    between atoms: C5_9  and  C6_14 
REMARK    4  A    between atoms: C6_14  and  N4_15 
REMARK    5  A    between atoms: N4_15  and  C7_17 
REMARK    6  A    between atoms: C7_17  and  C8_18 
ROOT
HETATM    1  N2  UNL     1     -33.881  19.186 -25.408  1.00  0.00    -0.369 N 
HETATM    2  C3  UNL     1     -34.971  20.073 -25.775  1.00  0.00     0.127 C 
HETATM    3  C4  UNL     1     -35.380  19.632 -27.154  1.00  0.00     0.066 C 
HETATM    4  C5  UNL     1     -35.051  18.187 -27.193  1.00  0.00     0.172 C 
HETATM    5  C12 UNL     1     -33.725  18.155 -26.407  1.00  0.00     0.168 C 
ENDROOT
BRANCH   4   6
HETATM    6  N3  UNL     1     -35.972  17.379 -26.415  1.00  0.00    -0.064 N 
ATOM      7  H33 UNL     1     -36.559  17.964 -25.821  1.00  0.00     0.275 HD
ATOM      8  H32 UNL     1     -36.693  16.971 -27.010  1.00  0.00     0.275 HD
ATOM      9  H31 UNL     1     -35.501  16.659 -25.866  1.00  0.00     0.275 HD
ENDBRANCH   4   6
BRANCH   4  10
HETATM   10  C6  UNL     1     -34.755  17.614 -28.524  1.00  0.00     0.096 C 
BRANCH  10  11
HETATM   11  N4  UNL     1     -35.534  16.545 -28.995  1.00  0.00    -0.394 N 
ATOM     12  H4  UNL     1     -36.453  16.714 -29.405  1.00  0.00     0.159 HD
BRANCH  11  13
HETATM   13  C7  UNL     1     -35.022  15.228 -28.891  1.00  0.00     0.183 C 
BRANCH  13  14
HETATM   14  C8  UNL     1     -36.041  14.217 -28.543  1.00  0.00     0.070 A 
HETATM   15  C9  UNL     1     -36.312  13.005 -29.133  1.00  0.00     0.036 A 
HETATM   16  C10 UNL     1     -37.349  12.418 -28.460  1.00  0.00     0.027 A 
HETATM   17  C11 UNL     1     -37.686  13.322 -27.450  1.00  0.00     0.142 A 
HETATM   18  O1  UNL     1     -36.889  14.366 -27.537  1.00  0.00    -0.325 OA
ENDBRANCH  13  14
ENDBRANCH  11  13
ENDBRANCH  10  11
ENDBRANCH   4  10
BRANCH   1  19
HETATM   19  C2  UNL     1     -33.133  19.376 -24.230  1.00  0.00     0.068 C 
HETATM   20  C1  UNL     1     -33.685  20.122 -23.075  1.00  0.00     0.088 C 
HETATM   21  N1  UNL     1     -31.948  18.902 -24.124  1.00  0.00    -0.389 N 
ATOM     22  H12 UNL     1     -31.406  19.040 -23.271  1.00  0.00     0.157 HD
ATOM     23  H11 UNL     1     -31.567  18.389 -24.918  1.00  0.00     0.157 HD
ENDBRANCH   1  19
TORSDOF 6
ENDMDL
MODEL 4
REMARK VINA RESULT: -5.977303812      1.667      2.512
REMARK  6 active torsions:
REMARK  status: ('A' for Active; 'I' for Inactive)
REMARK    1  A    between atoms: C2_2  and  N2_6 
REMARK    2  A    between atoms: C5_9  and  N3_10 
REMARK    3  A    between atoms: C5_9  and  C6_14 
REMARK    4  A    between atoms: C6_14  and  N4_15 
REMARK    5  A    between atoms: N4_15  and  C7_17 
REMARK    6  A    between atoms: C7_17  and  C8_18 
ROOT
HETATM    1  N2  UNL     1     -34.173  21.464 -22.178  1.00  0.00    -0.369 N 
HETATM    2  C3  UNL     1     -35.124  21.871 -23.196  1.00  0.00     0.127 C 
HETATM    3  C4  UNL     1     -34.668  21.178 -24.451  1.00  0.00     0.066 C 
HETATM    4  C5  UNL     1     -34.003  19.943 -23.970  1.00  0.00     0.172 C 
HETATM    5  C12 UNL     1     -33.283  20.456 -22.707  1.00  0.00     0.168 C 
ENDROOT
BRANCH   4   6
HETATM    6  N3  UNL     1     -34.944  18.947 -23.491  1.00  0.00    -0.064 N 
ATOM      7  H33 UNL     1     -34.464  18.208 -22.978  1.00  0.00     0.275 HD
ATOM      8  H32 UNL     1     -35.522  19.322 -22.738  1.00  0.00     0.275 HD
ATOM      9  H31 UNL     1     -35.522  18.558 -24.235  1.00  0.00     0.275 HD
ENDBRANCH   4   6
BRANCH   4  10
HETATM   10  C6  UNL     1     -32.950  19.378 -24.843  1.00  0.00     0.096 C 
BRANCH  10  11
HETATM   11  N4  UNL     1     -33.263  18.287 -25.669  1.00  0.00    -0.394 N 
ATOM     12  H4  UNL     1     -33.048  17.334 -25.375  1.00  0.00     0.159 HD
BRANCH  11  13
HETATM   13  C7  UNL     1     -33.885  18.532 -26.919  1.00  0.00     0.183 C 
BRANCH  13  14
HETATM   14  C8  UNL     1     -34.656  17.383 -27.437  1.00  0.00     0.070 A 
HETATM   15  C9  UNL     1     -35.914  16.947 -27.098  1.00  0.00     0.036 A 
HETATM   16  C10 UNL     1     -36.205  15.840 -27.848  1.00  0.00     0.027 A 
HETATM   17  C11 UNL     1     -35.078  15.632 -28.645  1.00  0.00     0.142 A 
HETATM   18  O1  UNL     1     -34.191  16.566 -28.369  1.00  0.00    -0.325 OA
ENDBRANCH  13  14
ENDBRANCH  11  13
ENDBRANCH  10  11
ENDBRANCH   4  10
BRANCH   1  19
HETATM   19  C2  UNL     1     -34.185  22.021 -20.884  1.00  0.00     0.068 C 
HETATM   20  C1  UNL     1     -35.124  23.107 -20.518  1.00  0.00     0.088 C 
HETATM   21  N1  UNL     1     -33.378  21.599 -19.983  1.00  0.00    -0.389 N 
ATOM     22  H12 UNL     1     -33.386  22.003 -19.046  1.00  0.00     0.157 HD
ATOM     23  H11 UNL     1     -32.731  20.852 -20.234  1.00  0.00     0.157 HD
ENDBRANCH   1  19
TORSDOF 6
ENDMDL
MODEL 5
REMARK VINA RESULT: -5.900801489      2.864      6.683
REMARK  6 active torsions:
REMARK  status: ('A' for Active; 'I' for Inactive)
REMARK    1  A    between atoms: C2_2  and  N2_6 
REMARK    2  A    between atoms: C5_9  and  N3_10 
REMARK    3  A    between atoms: C5_9  and  C6_14 
REMARK    4  A    between atoms: C6_14  and  N4_15 
REMARK    5  A    between atoms: N4_15  and  C7_17 
REMARK    6  A    between atoms: C7_17  and  C8_18 
ROOT
HETATM    1  N2  UNL     1     -34.930  17.693 -27.699  1.00  0.00    -0.369 N 
HETATM    2  C3  UNL     1     -34.471  19.050 -27.934  1.00  0.00     0.127 C 
HETATM    3  C4  UNL     1     -34.589  19.735 -26.600  1.00  0.00     0.066 C 
HETATM    4  C5  UNL     1     -34.407  18.648 -25.609  1.00  0.00     0.172 C 
HETATM    5  C12 UNL     1     -35.161  17.487 -26.288  1.00  0.00     0.168 C 
ENDROOT
BRANCH   4   6
HETATM    6  N3  UNL     1     -33.030  18.199 -25.512  1.00  0.00    -0.064 N 
ATOM      7  H33 UNL     1     -32.675  17.911 -26.423  1.00  0.00     0.275 HD
ATOM      8  H32 UNL     1     -32.402  18.983 -25.331  1.00  0.00     0.275 HD
ATOM      9  H31 UNL     1     -32.901  17.461 -24.820  1.00  0.00     0.275 HD
ENDBRANCH   4   6
BRANCH   4  10
HETATM   10  C6  UNL     1     -35.051  18.842 -24.291  1.00  0.00     0.096 C 
BRANCH  10  11
HETATM   11  N4  UNL     1     -34.245  19.083 -23.168  1.00  0.00    -0.394 N 
ATOM     12  H4  UNL     1     -34.227  18.422 -22.390  1.00  0.00     0.159 HD
BRANCH  11  13
HETATM   13  C7  UNL     1     -33.455  20.259 -23.132  1.00  0.00     0.183 C 
BRANCH  13  14
HETATM   14  C8  UNL     1     -34.152  21.429 -22.557  1.00  0.00     0.070 A 
HETATM   15  C9  UNL     1     -34.934  22.375 -23.177  1.00  0.00     0.036 A 
HETATM   16  C10 UNL     1     -35.363  23.267 -22.232  1.00  0.00     0.027 A 
HETATM   17  C11 UNL     1     -34.811  22.820 -21.030  1.00  0.00     0.142 A 
HETATM   18  O1  UNL     1     -34.106  21.733 -21.270  1.00  0.00    -0.325 OA
ENDBRANCH  13  14
ENDBRANCH  11  13
ENDBRANCH  10  11
ENDBRANCH   4  10
BRANCH   1  19
HETATM   19  C2  UNL     1     -35.101  16.773 -28.751  1.00  0.00     0.068 C 
HETATM   20  C1  UNL     1     -35.319  15.331 -28.490  1.00  0.00     0.088 C 
HETATM   21  N1  UNL     1     -35.073  17.161 -29.972  1.00  0.00    -0.389 N 
ATOM     22  H12 UNL     1     -35.197  16.495 -30.734  1.00  0.00     0.157 HD
ATOM     23  H11 UNL     1     -34.923  18.154 -30.152  1.00  0.00     0.157 HD
ENDBRANCH   1  19
TORSDOF 6
ENDMDL
