MODEL 1
REMARK VINA RESULT: -9.260778347      0.000      0.000
REMARK  11 active torsions:
REMARK  status: ('A' for Active; 'I' for Inactive)
REMARK    1  A    between atoms: O1_2  and  C2_3 
REMARK    2  A    between atoms: C4_7  and  C5_8 
REMARK    3  A    between atoms: C11_14  and  C12_15 
REMARK    4  A    between atoms: C12_15  and  O2_16 
REMARK    5  A    between atoms: C12_15  and  C13_18 
REMARK    6  A    between atoms: C13_18  and  C14_19 
REMARK    7  A    between atoms: C22_28  and  N3_29 
REMARK    8  A    between atoms: N3_29  and  C23_31 
REMARK    9  A    between atoms: C23_31  and  C24_32 
REMARK   10  A    between atoms: C24_32  and  N4_33 
REMARK   11  A    between atoms: C29_38  and  C30_39 
ROOT
HETATM    1  C2  UNL     1      54.473   3.788  69.601  1.00  0.00     0.169 A 
HETATM    2  N1  UNL     1      54.203   4.486  68.485  1.00  0.00    -0.344 N 
ATOM      3  H1  UNL     1      54.870   5.188  68.165  1.00  0.00     0.167 HD
HETATM    4  C3  UNL     1      53.086   4.287  67.783  1.00  0.00     0.102 A 
HETATM    5  C4  UNL     1      52.167   3.345  68.188  1.00  0.00    -0.008 A 
HETATM    6  C21 UNL     1      52.456   2.628  69.342  1.00  0.00     0.047 A 
HETATM    7  C22 UNL     1      53.608   2.827  70.076  1.00  0.00     0.080 A 
ENDROOT
BRANCH   5   8
HETATM    8  C5  UNL     1      50.927   3.093  67.437  1.00  0.00    -0.024 A 
HETATM    9  C6  UNL     1      50.855   3.019  66.081  1.00  0.00     0.014 A 
HETATM   10  C7  UNL     1      49.652   2.782  65.415  1.00  0.00     0.031 A 
HETATM   11  C8  UNL     1      48.527   2.623  66.191  1.00  0.00     0.044 A 
HETATM   12  C9  UNL     1      48.536   2.686  67.563  1.00  0.00     0.002 A 
HETATM   13  N2  UNL     1      47.255   2.391  65.828  1.00  0.00    -0.360 N 
HETATM   14  C10 UNL     1      49.758   2.924  68.166  1.00  0.00     0.026 A 
HETATM   15  C11 UNL     1      47.239   2.486  68.043  1.00  0.00    -0.002 A 
HETATM   16  C19 UNL     1      46.475   2.308  66.929  1.00  0.00     0.101 A 
HETATM   17  C20 UNL     1      46.781   2.250  64.476  1.00  0.00     0.155 C 
BRANCH  15  18
HETATM   18  C12 UNL     1      46.881   2.516  69.468  1.00  0.00     0.154 C 
BRANCH  18  19
HETATM   19  O2  UNL     1      46.748   3.859  69.909  1.00  0.00    -0.391 OA
ATOM     20  H2  UNL     1      47.515   4.117  70.406  1.00  0.00     0.210 HD
ENDBRANCH  18  19
BRANCH  18  21
HETATM   21  C13 UNL     1      45.662   1.728  69.794  1.00  0.00     0.041 C 
BRANCH  21  22
HETATM   22  C14 UNL     1      45.972   0.438  70.476  1.00  0.00    -0.012 C 
HETATM   23  C15 UNL     1      45.848  -0.732  69.496  1.00  0.00     0.005 C 
HETATM   24  C16 UNL     1      45.590  -1.951  70.328  1.00  0.00     0.000 C 
HETATM   25  C17 UNL     1      45.070  -1.406  71.641  1.00  0.00     0.000 C 
HETATM   26  C18 UNL     1      44.846   0.074  71.443  1.00  0.00     0.005 C 
ENDBRANCH  21  22
ENDBRANCH  18  21
ENDBRANCH  15  18
ENDBRANCH   5   8
BRANCH   7  27
HETATM   27  N3  UNL     1      53.919   2.103  71.246  1.00  0.00    -0.382 N 
ATOM     28  H3  UNL     1      54.738   2.362  71.797  1.00  0.00     0.160 HD
BRANCH  27  29
HETATM   29  C23 UNL     1      53.096   1.003  71.672  1.00  0.00     0.164 C 
BRANCH  29  30
HETATM   30  C24 UNL     1      53.904  -0.235  72.034  1.00  0.00     0.078 C 
BRANCH  30  31
HETATM   31  N4  UNL     1      53.493  -0.728  73.274  1.00  0.00    -0.382 N 
HETATM   32  C25 UNL     1      52.681   0.113  74.069  1.00  0.00     0.122 C 
HETATM   33  C26 UNL     1      51.430  -0.513  74.586  1.00  0.00     0.020 C 
HETATM   34  C27 UNL     1      51.772  -1.783  75.307  1.00  0.00     0.004 C 
HETATM   35  C28 UNL     1      53.158  -2.277  75.068  1.00  0.00     0.031 C 
HETATM   36  C29 UNL     1      53.637  -2.062  73.627  1.00  0.00     0.148 C 
BRANCH  36  37
HETATM   37  C30 UNL     1      53.033  -3.128  72.795  1.00  0.00     0.375 C 
HETATM   38  F1  UNL     1      53.935  -4.004  72.225  1.00  0.00    -0.212 F 
HETATM   39  F2  UNL     1      52.087  -2.703  71.882  1.00  0.00    -0.212 F 
ENDBRANCH  36  37
ENDBRANCH  30  31
ENDBRANCH  29  30
ENDBRANCH  27  29
ENDBRANCH   7  27
BRANCH   1  40
HETATM   40  O1  UNL     1      55.643   4.017  70.311  1.00  0.00    -0.339 OA
HETATM   41  C1  UNL     1      56.757   4.657  69.694  1.00  0.00     0.211 C 
ENDBRANCH   1  40
TORSDOF 11
ENDMDL
MODEL 2
REMARK VINA RESULT: -9.108690536      1.285      1.627
REMARK  11 active torsions:
REMARK  status: ('A' for Active; 'I' for Inactive)
REMARK    1  A    between atoms: O1_2  and  C2_3 
REMARK    2  A    between atoms: C4_7  and  C5_8 
REMARK    3  A    between atoms: C11_14  and  C12_15 
REMARK    4  A    between atoms: C12_15  and  O2_16 
REMARK    5  A    between atoms: C12_15  and  C13_18 
REMARK    6  A    between atoms: C13_18  and  C14_19 
REMARK    7  A    between atoms: C22_28  and  N3_29 
REMARK    8  A    between atoms: N3_29  and  C23_31 
REMARK    9  A    between atoms: C23_31  and  C24_32 
REMARK   10  A    between atoms: C24_32  and  N4_33 
REMARK   11  A    between atoms: C29_38  and  C30_39 
ROOT
HETATM    1  C2  UNL     1      54.441   3.792  69.582  1.00  0.00     0.169 A 
HETATM    2  N1  UNL     1      54.180   4.474  68.454  1.00  0.00    -0.344 N 
ATOM      3  H1  UNL     1      54.856   5.164  68.125  1.00  0.00     0.167 HD
HETATM    4  C3  UNL     1      53.065   4.274  67.751  1.00  0.00     0.102 A 
HETATM    5  C4  UNL     1      52.136   3.347  68.168  1.00  0.00    -0.008 A 
HETATM    6  C21 UNL     1      52.414   2.647  69.335  1.00  0.00     0.047 A 
HETATM    7  C22 UNL     1      53.565   2.847  70.070  1.00  0.00     0.080 A 
ENDROOT
BRANCH   5   8
HETATM    8  C5  UNL     1      50.896   3.094  67.417  1.00  0.00    -0.024 A 
HETATM    9  C6  UNL     1      50.824   3.023  66.060  1.00  0.00     0.014 A 
HETATM   10  C7  UNL     1      49.621   2.784  65.394  1.00  0.00     0.031 A 
HETATM   11  C8  UNL     1      48.497   2.621  66.170  1.00  0.00     0.044 A 
HETATM   12  C9  UNL     1      48.506   2.682  67.542  1.00  0.00     0.002 A 
HETATM   13  N2  UNL     1      47.226   2.388  65.807  1.00  0.00    -0.360 N 
HETATM   14  C10 UNL     1      49.727   2.921  68.145  1.00  0.00     0.026 A 
HETATM   15  C11 UNL     1      47.209   2.478  68.021  1.00  0.00    -0.002 A 
HETATM   16  C19 UNL     1      46.446   2.300  66.907  1.00  0.00     0.101 A 
HETATM   17  C20 UNL     1      46.752   2.248  64.454  1.00  0.00     0.155 C 
BRANCH  15  18
HETATM   18  C12 UNL     1      46.852   2.504  69.446  1.00  0.00     0.154 C 
BRANCH  18  19
HETATM   19  O2  UNL     1      46.708   3.846  69.888  1.00  0.00    -0.391 OA
ATOM     20  H2  UNL     1      46.763   3.885  70.836  1.00  0.00     0.210 HD
ENDBRANCH  18  19
BRANCH  18  21
HETATM   21  C13 UNL     1      45.639   1.707  69.773  1.00  0.00     0.041 C 
BRANCH  21  22
HETATM   22  C14 UNL     1      45.959   0.419  70.454  1.00  0.00    -0.012 C 
HETATM   23  C15 UNL     1      45.913  -0.743  69.458  1.00  0.00     0.005 C 
HETATM   24  C16 UNL     1      45.657  -1.979  70.266  1.00  0.00     0.000 C 
HETATM   25  C17 UNL     1      45.066  -1.464  71.561  1.00  0.00     0.000 C 
HETATM   26  C18 UNL     1      44.805   0.010  71.369  1.00  0.00     0.005 C 
ENDBRANCH  21  22
ENDBRANCH  18  21
ENDBRANCH  15  18
ENDBRANCH   5   8
BRANCH   7  27
HETATM   27  N3  UNL     1      53.866   2.140  71.252  1.00  0.00    -0.382 N 
ATOM     28  H3  UNL     1      54.638   2.450  71.843  1.00  0.00     0.160 HD
BRANCH  27  29
HETATM   29  C23 UNL     1      53.096   0.987  71.636  1.00  0.00     0.164 C 
BRANCH  29  30
HETATM   30  C24 UNL     1      53.965  -0.203  72.021  1.00  0.00     0.078 C 
BRANCH  30  31
HETATM   31  N4  UNL     1      53.202  -1.147  72.712  1.00  0.00    -0.382 N 
HETATM   32  C25 UNL     1      53.124  -2.446  72.160  1.00  0.00     0.122 C 
HETATM   33  C26 UNL     1      53.436  -3.558  73.103  1.00  0.00     0.020 C 
HETATM   34  C27 UNL     1      52.573  -3.430  74.324  1.00  0.00     0.004 C 
HETATM   35  C28 UNL     1      51.885  -2.114  74.461  1.00  0.00     0.031 C 
HETATM   36  C29 UNL     1      52.747  -0.931  74.004  1.00  0.00     0.148 C 
BRANCH  36  37
HETATM   37  C30 UNL     1      53.702  -0.630  75.096  1.00  0.00     0.375 C 
HETATM   38  F1  UNL     1      53.195  -0.779  76.371  1.00  0.00    -0.212 F 
HETATM   39  F2  UNL     1      54.402   0.553  74.959  1.00  0.00    -0.212 F 
ENDBRANCH  36  37
ENDBRANCH  30  31
ENDBRANCH  29  30
ENDBRANCH  27  29
ENDBRANCH   7  27
BRANCH   1  40
HETATM   40  O1  UNL     1      55.610   4.023  70.292  1.00  0.00    -0.339 OA
HETATM   41  C1  UNL     1      56.684   4.755  69.710  1.00  0.00     0.211 C 
ENDBRANCH   1  40
TORSDOF 11
ENDMDL
MODEL 3
REMARK VINA RESULT: -9.038466931      2.463      7.767
REMARK  11 active torsions:
REMARK  status: ('A' for Active; 'I' for Inactive)
REMARK    1  A    between atoms: O1_2  and  C2_3 
REMARK    2  A    between atoms: C4_7  and  C5_8 
REMARK    3  A    between atoms: C11_14  and  C12_15 
REMARK    4  A    between atoms: C12_15  and  O2_16 
REMARK    5  A    between atoms: C12_15  and  C13_18 
REMARK    6  A    between atoms: C13_18  and  C14_19 
REMARK    7  A    between atoms: C22_28  and  N3_29 
REMARK    8  A    between atoms: N3_29  and  C23_31 
REMARK    9  A    between atoms: C23_31  and  C24_32 
REMARK   10  A    between atoms: C24_32  and  N4_33 
REMARK   11  A    between atoms: C29_38  and  C30_39 
ROOT
HETATM    1  C2  UNL     1      47.540   2.655  66.271  1.00  0.00     0.169 A 
HETATM    2  N1  UNL     1      48.590   2.641  65.432  1.00  0.00    -0.344 N 
ATOM      3  H1  UNL     1      48.440   2.388  64.455  1.00  0.00     0.167 HD
HETATM    4  C3  UNL     1      49.822   2.947  65.840  1.00  0.00     0.102 A 
HETATM    5  C4  UNL     1      50.055   3.295  67.152  1.00  0.00    -0.008 A 
HETATM    6  C21 UNL     1      48.963   3.308  68.011  1.00  0.00     0.047 A 
HETATM    7  C22 UNL     1      47.684   2.991  67.599  1.00  0.00     0.080 A 
ENDROOT
BRANCH   5   8
HETATM    8  C5  UNL     1      51.398   3.646  67.639  1.00  0.00    -0.024 A 
HETATM    9  C6  UNL     1      52.186   4.607  67.085  1.00  0.00     0.014 A 
HETATM   10  C7  UNL     1      53.457   4.899  67.581  1.00  0.00     0.031 A 
HETATM   11  C8  UNL     1      53.888   4.171  68.666  1.00  0.00     0.044 A 
HETATM   12  C9  UNL     1      53.140   3.190  69.269  1.00  0.00     0.002 A 
HETATM   13  N2  UNL     1      55.049   4.234  69.340  1.00  0.00    -0.360 N 
HETATM   14  C10 UNL     1      51.889   2.946  68.732  1.00  0.00     0.026 A 
HETATM   15  C11 UNL     1      53.863   2.647  70.334  1.00  0.00    -0.002 A 
HETATM   16  C19 UNL     1      55.044   3.325  70.340  1.00  0.00     0.101 A 
HETATM   17  C20 UNL     1      56.139   5.129  69.051  1.00  0.00     0.155 C 
BRANCH  15  18
HETATM   18  C12 UNL     1      53.369   1.553  71.182  1.00  0.00     0.154 C 
BRANCH  18  19
HETATM   19  O2  UNL     1      53.586   0.304  70.542  1.00  0.00    -0.391 OA
ATOM     20  H2  UNL     1      54.315   0.370  69.937  1.00  0.00     0.210 HD
ENDBRANCH  18  19
BRANCH  18  21
HETATM   21  C13 UNL     1      53.948   1.553  72.553  1.00  0.00     0.041 C 
BRANCH  21  22
HETATM   22  C14 UNL     1      53.646   0.303  73.308  1.00  0.00    -0.012 C 
HETATM   23  C15 UNL     1      52.159   0.236  73.666  1.00  0.00     0.005 C 
HETATM   24  C16 UNL     1      52.053  -0.666  74.858  1.00  0.00     0.000 C 
HETATM   25  C17 UNL     1      53.447  -0.669  75.450  1.00  0.00     0.000 C 
HETATM   26  C18 UNL     1      54.238   0.386  74.715  1.00  0.00     0.005 C 
ENDBRANCH  21  22
ENDBRANCH  18  21
ENDBRANCH  15  18
ENDBRANCH   5   8
BRANCH   7  27
HETATM   27  N3  UNL     1      46.565   3.005  68.457  1.00  0.00    -0.382 N 
ATOM     28  H3  UNL     1      45.842   3.714  68.330  1.00  0.00     0.160 HD
BRANCH  27  29
HETATM   29  C23 UNL     1      46.431   2.033  69.509  1.00  0.00     0.164 C 
BRANCH  29  30
HETATM   30  C24 UNL     1      45.936   0.684  69.007  1.00  0.00     0.078 C 
BRANCH  30  31
HETATM   31  N4  UNL     1      45.231   0.028  70.018  1.00  0.00    -0.382 N 
HETATM   32  C25 UNL     1      43.870   0.371  70.188  1.00  0.00     0.122 C 
HETATM   33  C26 UNL     1      42.924  -0.780  70.229  1.00  0.00     0.020 C 
HETATM   34  C27 UNL     1      43.375  -1.757  71.274  1.00  0.00     0.004 C 
HETATM   35  C28 UNL     1      44.764  -1.537  71.768  1.00  0.00     0.031 C 
HETATM   36  C29 UNL     1      45.734  -1.090  70.668  1.00  0.00     0.148 C 
BRANCH  36  37
HETATM   37  C30 UNL     1      46.119  -2.296  69.899  1.00  0.00     0.375 C 
HETATM   38  F1  UNL     1      45.281  -2.609  68.848  1.00  0.00    -0.212 F 
HETATM   39  F2  UNL     1      46.426  -3.409  70.658  1.00  0.00    -0.212 F 
ENDBRANCH  36  37
ENDBRANCH  30  31
ENDBRANCH  29  30
ENDBRANCH  27  29
ENDBRANCH   7  27
BRANCH   1  40
HETATM   40  O1  UNL     1      46.269   2.330  65.817  1.00  0.00    -0.339 OA
HETATM   41  C1  UNL     1      45.978   2.303  64.423  1.00  0.00     0.211 C 
ENDBRANCH   1  40
TORSDOF 11
ENDMDL
MODEL 4
REMARK VINA RESULT: -9.035732347      1.612      2.752
REMARK  11 active torsions:
REMARK  status: ('A' for Active; 'I' for Inactive)
REMARK    1  A    between atoms: O1_2  and  C2_3 
REMARK    2  A    between atoms: C4_7  and  C5_8 
REMARK    3  A    between atoms: C11_14  and  C12_15 
REMARK    4  A    between atoms: C12_15  and  O2_16 
REMARK    5  A    between atoms: C12_15  and  C13_18 
REMARK    6  A    between atoms: C13_18  and  C14_19 
REMARK    7  A    between atoms: C22_28  and  N3_29 
REMARK    8  A    between atoms: N3_29  and  C23_31 
REMARK    9  A    between atoms: C23_31  and  C24_32 
REMARK   10  A    between atoms: C24_32  and  N4_33 
REMARK   11  A    between atoms: C29_38  and  C30_39 
ROOT
HETATM    1  C2  UNL     1      54.548   3.724  69.637  1.00  0.00     0.169 A 
HETATM    2  N1  UNL     1      54.323   4.403  68.500  1.00  0.00    -0.344 N 
ATOM      3  H1  UNL     1      55.016   5.081  68.182  1.00  0.00     0.167 HD
HETATM    4  C3  UNL     1      53.219   4.217  67.775  1.00  0.00     0.102 A 
HETATM    5  C4  UNL     1      52.266   3.308  68.177  1.00  0.00    -0.008 A 
HETATM    6  C21 UNL     1      52.509   2.609  69.353  1.00  0.00     0.047 A 
HETATM    7  C22 UNL     1      53.648   2.795  70.111  1.00  0.00     0.080 A 
ENDROOT
BRANCH   5   8
HETATM    8  C5  UNL     1      51.040   3.069  67.401  1.00  0.00    -0.024 A 
HETATM    9  C6  UNL     1      51.006   2.913  66.050  1.00  0.00     0.014 A 
HETATM   10  C7  UNL     1      49.813   2.694  65.359  1.00  0.00     0.031 A 
HETATM   11  C8  UNL     1      48.659   2.640  66.105  1.00  0.00     0.044 A 
HETATM   12  C9  UNL     1      48.628   2.790  67.470  1.00  0.00     0.002 A 
HETATM   13  N2  UNL     1      47.388   2.449  65.714  1.00  0.00    -0.360 N 
HETATM   14  C10 UNL     1      49.841   3.005  68.098  1.00  0.00     0.026 A 
HETATM   15  C11 UNL     1      47.308   2.686  67.916  1.00  0.00    -0.002 A 
HETATM   16  C19 UNL     1      46.571   2.474  66.790  1.00  0.00     0.101 A 
HETATM   17  C20 UNL     1      46.950   2.246  64.357  1.00  0.00     0.155 C 
BRANCH  15  18
HETATM   18  C12 UNL     1      46.908   2.824  69.323  1.00  0.00     0.154 C 
BRANCH  18  19
HETATM   19  O2  UNL     1      47.491   1.788  70.100  1.00  0.00    -0.391 OA
ATOM     20  H2  UNL     1      46.823   1.171  70.375  1.00  0.00     0.210 HD
ENDBRANCH  18  19
BRANCH  18  21
HETATM   21  C13 UNL     1      47.217   4.158  69.904  1.00  0.00     0.041 C 
BRANCH  21  22
HETATM   22  C14 UNL     1      46.443   5.261  69.265  1.00  0.00    -0.012 C 
HETATM   23  C15 UNL     1      46.991   6.624  69.698  1.00  0.00     0.005 C 
HETATM   24  C16 UNL     1      45.870   7.603  69.522  1.00  0.00     0.000 C 
HETATM   25  C17 UNL     1      44.623   6.744  69.504  1.00  0.00     0.000 C 
HETATM   26  C18 UNL     1      45.048   5.346  69.882  1.00  0.00     0.005 C 
ENDBRANCH  21  22
ENDBRANCH  18  21
ENDBRANCH  15  18
ENDBRANCH   5   8
BRANCH   7  27
HETATM   27  N3  UNL     1      53.912   2.090  71.304  1.00  0.00    -0.382 N 
ATOM     28  H3  UNL     1      54.700   2.367  71.889  1.00  0.00     0.160 HD
BRANCH  27  29
HETATM   29  C23 UNL     1      53.083   0.985  71.704  1.00  0.00     0.164 C 
BRANCH  29  30
HETATM   30  C24 UNL     1      53.887  -0.255  72.072  1.00  0.00     0.078 C 
BRANCH  30  31
HETATM   31  N4  UNL     1      53.458  -0.754  73.304  1.00  0.00    -0.382 N 
HETATM   32  C25 UNL     1      52.618   0.076  74.082  1.00  0.00     0.122 C 
HETATM   33  C26 UNL     1      51.366  -0.569  74.573  1.00  0.00     0.020 C 
HETATM   34  C27 UNL     1      51.712  -1.834  75.302  1.00  0.00     0.004 C 
HETATM   35  C28 UNL     1      53.110  -2.307  75.091  1.00  0.00     0.031 C 
HETATM   36  C29 UNL     1      53.615  -2.085  73.660  1.00  0.00     0.148 C 
BRANCH  36  37
HETATM   37  C30 UNL     1      53.044  -3.160  72.816  1.00  0.00     0.375 C 
HETATM   38  F1  UNL     1      53.974  -3.973  72.201  1.00  0.00    -0.212 F 
HETATM   39  F2  UNL     1      52.054  -2.762  71.939  1.00  0.00    -0.212 F 
ENDBRANCH  36  37
ENDBRANCH  30  31
ENDBRANCH  29  30
ENDBRANCH  27  29
ENDBRANCH   7  27
BRANCH   1  40
HETATM   40  O1  UNL     1      55.706   3.940  70.371  1.00  0.00    -0.339 OA
HETATM   41  C1  UNL     1      56.748   4.767  69.862  1.00  0.00     0.211 C 
ENDBRANCH   1  40
TORSDOF 11
ENDMDL
MODEL 5
REMARK VINA RESULT: -8.817461659      2.677      7.866
REMARK  11 active torsions:
REMARK  status: ('A' for Active; 'I' for Inactive)
REMARK    1  A    between atoms: O1_2  and  C2_3 
REMARK    2  A    between atoms: C4_7  and  C5_8 
REMARK    3  A    between atoms: C11_14  and  C12_15 
REMARK    4  A    between atoms: C12_15  and  O2_16 
REMARK    5  A    between atoms: C12_15  and  C13_18 
REMARK    6  A    between atoms: C13_18  and  C14_19 
REMARK    7  A    between atoms: C22_28  and  N3_29 
REMARK    8  A    between atoms: N3_29  and  C23_31 
REMARK    9  A    between atoms: C23_31  and  C24_32 
REMARK   10  A    between atoms: C24_32  and  N4_33 
REMARK   11  A    between atoms: C29_38  and  C30_39 
ROOT
HETATM    1  C2  UNL     1      47.636   2.594  66.185  1.00  0.00     0.169 A 
HETATM    2  N1  UNL     1      48.635   2.848  65.323  1.00  0.00    -0.344 N 
ATOM      3  H1  UNL     1      48.451   2.792  64.321  1.00  0.00     0.167 HD
HETATM    4  C3  UNL     1      49.861   3.170  65.739  1.00  0.00     0.102 A 
HETATM    5  C4  UNL     1      50.140   3.255  67.085  1.00  0.00    -0.008 A 
HETATM    6  C21 UNL     1      49.100   2.993  67.968  1.00  0.00     0.047 A 
HETATM    7  C22 UNL     1      47.829   2.658  67.548  1.00  0.00     0.080 A 
ENDROOT
BRANCH   5   8
HETATM    8  C5  UNL     1      51.476   3.614  67.583  1.00  0.00    -0.024 A 
HETATM    9  C6  UNL     1      52.274   4.563  67.021  1.00  0.00     0.014 A 
HETATM   10  C7  UNL     1      53.538   4.863  67.529  1.00  0.00     0.031 A 
HETATM   11  C8  UNL     1      53.953   4.156  68.633  1.00  0.00     0.044 A 
HETATM   12  C9  UNL     1      53.195   3.188  69.245  1.00  0.00     0.002 A 
HETATM   13  N2  UNL     1      55.104   4.230  69.322  1.00  0.00    -0.360 N 
HETATM   14  C10 UNL     1      51.951   2.934  68.696  1.00  0.00     0.026 A 
HETATM   15  C11 UNL     1      53.903   2.664  70.331  1.00  0.00    -0.002 A 
HETATM   16  C19 UNL     1      55.085   3.341  70.340  1.00  0.00     0.101 A 
HETATM   17  C20 UNL     1      56.200   5.117  69.031  1.00  0.00     0.155 C 
BRANCH  15  18
HETATM   18  C12 UNL     1      53.396   1.588  71.193  1.00  0.00     0.154 C 
BRANCH  18  19
HETATM   19  O2  UNL     1      53.570   0.330  70.557  1.00  0.00    -0.391 OA
ATOM     20  H2  UNL     1      53.586  -0.364  71.205  1.00  0.00     0.210 HD
ENDBRANCH  18  19
BRANCH  18  21
HETATM   21  C13 UNL     1      53.997   1.580  72.554  1.00  0.00     0.041 C 
BRANCH  21  22
HETATM   22  C14 UNL     1      53.689   0.335  73.316  1.00  0.00    -0.012 C 
HETATM   23  C15 UNL     1      52.196   0.266  73.653  1.00  0.00     0.005 C 
HETATM   24  C16 UNL     1      52.078  -0.626  74.851  1.00  0.00     0.000 C 
HETATM   25  C17 UNL     1      53.463  -0.619  75.462  1.00  0.00     0.000 C 
HETATM   26  C18 UNL     1      54.260   0.433  74.730  1.00  0.00     0.005 C 
ENDBRANCH  21  22
ENDBRANCH  18  21
ENDBRANCH  15  18
ENDBRANCH   5   8
BRANCH   7  27
HETATM   27  N3  UNL     1      46.761   2.394  68.432  1.00  0.00    -0.382 N 
ATOM     28  H3  UNL     1      46.442   3.125  69.068  1.00  0.00     0.160 HD
BRANCH  27  29
HETATM   29  C23 UNL     1      46.118   1.108  68.446  1.00  0.00     0.164 C 
BRANCH  29  30
HETATM   30  C24 UNL     1      45.797   0.624  69.853  1.00  0.00     0.078 C 
BRANCH  30  31
HETATM   31  N4  UNL     1      45.333  -0.693  69.810  1.00  0.00    -0.382 N 
HETATM   32  C25 UNL     1      46.185  -1.661  69.230  1.00  0.00     0.122 C 
HETATM   33  C26 UNL     1      46.416  -2.881  70.056  1.00  0.00     0.020 C 
HETATM   34  C27 UNL     1      45.095  -3.477  70.442  1.00  0.00     0.004 C 
HETATM   35  C28 UNL     1      43.923  -2.584  70.215  1.00  0.00     0.031 C 
HETATM   36  C29 UNL     1      44.217  -1.111  70.520  1.00  0.00     0.148 C 
BRANCH  36  37
HETATM   37  C30 UNL     1      44.156  -0.941  71.990  1.00  0.00     0.375 C 
HETATM   38  F1  UNL     1      43.458   0.169  72.420  1.00  0.00    -0.212 F 
HETATM   39  F2  UNL     1      45.361  -1.075  72.652  1.00  0.00    -0.212 F 
ENDBRANCH  36  37
ENDBRANCH  30  31
ENDBRANCH  29  30
ENDBRANCH  27  29
ENDBRANCH   7  27
BRANCH   1  40
HETATM   40  O1  UNL     1      46.372   2.261  65.722  1.00  0.00    -0.339 OA
HETATM   41  C1  UNL     1      46.123   2.105  64.328  1.00  0.00     0.211 C 
ENDBRANCH   1  40
TORSDOF 11
ENDMDL
