MODEL 1
REMARK VINA RESULT: -8.148958156      0.000      0.000
REMARK  9 active torsions:
REMARK  status: ('A' for Active; 'I' for Inactive)
REMARK    1  A    between atoms: O1_2  and  C2_3 
REMARK    2  A    between atoms: C3_4  and  C4_5 
REMARK    3  A    between atoms: C5_8  and  C6_9 
REMARK    4  A    between atoms: C6_9  and  C8_11 
REMARK    5  A    between atoms: C11_20  and  C12_21 
REMARK    6  A    between atoms: C14_25  and  O4_26 
REMARK    7  A    between atoms: O4_26  and  C15_27 
REMARK    8  A    between atoms: C15_27  and  C17_29 
REMARK    9  A    between atoms: C25_37  and  C26_38 
ROOT
HETATM    1  C4  UNL     1      52.022  -0.408  80.956  1.00  0.00     0.074 A 
HETATM    2  N1  UNL     1      52.223  -0.928  82.197  1.00  0.00    -0.343 N 
ATOM      3  H1  UNL     1      51.931  -0.486  83.069  1.00  0.00     0.167 HD
HETATM    4  C5  UNL     1      52.863  -2.111  82.110  1.00  0.00     0.088 A 
HETATM    5  N3  UNL     1      53.065  -2.332  80.802  1.00  0.00    -0.343 N 
ATOM      6  H3  UNL     1      53.531  -3.153  80.416  1.00  0.00     0.167 HD
HETATM    7  C11 UNL     1      52.560  -1.302  80.058  1.00  0.00     0.073 A 
ENDROOT
BRANCH   7   8
HETATM    8  C12 UNL     1      52.593  -1.164  78.622  1.00  0.00     0.014 A 
HETATM    9  C13 UNL     1      51.429  -1.189  77.894  1.00  0.00     0.104 A 
HETATM   10  N4  UNL     1      51.468  -1.068  76.544  1.00  0.00    -0.346 N 
HETATM   11  C14 UNL     1      52.615  -0.921  75.860  1.00  0.00     0.142 A 
ATOM     12  H4  UNL     1      50.590  -1.090  76.026  1.00  0.00     0.167 HD
HETATM   13  C20 UNL     1      53.798  -0.891  76.556  1.00  0.00     0.063 A 
HETATM   14  C21 UNL     1      53.785  -1.013  77.956  1.00  0.00    -0.044 A 
HETATM   15  C22 UNL     1      55.097  -0.979  78.652  1.00  0.00     0.049 C 
BRANCH  11  16
HETATM   16  O4  UNL     1      52.627  -0.798  74.463  1.00  0.00    -0.330 OA
BRANCH  16  17
HETATM   17  C15 UNL     1      53.650  -1.398  73.688  1.00  0.00     0.129 C 
HETATM   18  C16 UNL     1      53.911  -0.393  72.548  1.00  0.00     0.040 C 
BRANCH  17  19
HETATM   19  C17 UNL     1      53.112  -2.645  73.031  1.00  0.00     0.006 C 
HETATM   20  C18 UNL     1      53.408  -2.560  71.553  1.00  0.00     0.012 C 
HETATM   21  C19 UNL     1      53.635  -3.893  73.662  1.00  0.00     0.012 C 
ENDBRANCH  17  19
ENDBRANCH  16  17
ENDBRANCH  11  16
ENDBRANCH   7   8
BRANCH   1  22
HETATM   22  C3  UNL     1      51.341   0.863  80.736  1.00  0.00     0.029 A 
HETATM   23  C2  UNL     1      51.924   2.089  80.975  1.00  0.00     0.120 A 
HETATM   24  C27 UNL     1      51.181   3.242  80.736  1.00  0.00     0.162 A 
HETATM   25  C25 UNL     1      49.886   3.193  80.269  1.00  0.00     0.047 A 
HETATM   26  F3  UNL     1      51.770   4.462  80.977  1.00  0.00    -0.202 F 
HETATM   27  C24 UNL     1      49.300   1.974  80.028  1.00  0.00     0.017 A 
HETATM   28  C23 UNL     1      50.043   0.851  80.269  1.00  0.00     0.017 A 
BRANCH  23  29
HETATM   29  O1  UNL     1      53.236   2.172  81.449  1.00  0.00    -0.352 OA
HETATM   30  C1  UNL     1      53.605   2.331  82.786  1.00  0.00     0.210 C 
ENDBRANCH  23  29
BRANCH  25  31
HETATM   31  C26 UNL     1      49.081   4.418  80.008  1.00  0.00     0.389 C 
HETATM   32  F1  UNL     1      48.593   4.977  81.154  1.00  0.00    -0.209 F 
HETATM   33  F2  UNL     1      48.008   4.076  79.192  1.00  0.00    -0.209 F 
ENDBRANCH  25  31
ENDBRANCH   1  22
BRANCH   4  34
HETATM   34  C6  UNL     1      53.261  -2.981  83.249  1.00  0.00     0.080 C 
HETATM   35  C7  UNL     1      53.653  -2.157  84.456  1.00  0.00     0.020 C 
BRANCH  34  36
HETATM   36  C8  UNL     1      52.172  -3.979  83.587  1.00  0.00     0.162 C 
HETATM   37  C9  UNL     1      51.719  -3.766  84.997  1.00  0.00     0.158 C 
HETATM   38  N2  UNL     1      50.272  -3.634  84.915  1.00  0.00    -0.334 N 
HETATM   39  C10 UNL     1      49.876  -3.678  83.561  1.00  0.00     0.361 C 
ATOM     40  H2  UNL     1      49.643  -3.525  85.711  1.00  0.00     0.164 HD
HETATM   41  O2  UNL     1      48.726  -3.643  83.050  1.00  0.00    -0.239 OA
HETATM   42  O3  UNL     1      51.016  -3.777  82.800  1.00  0.00    -0.296 OA
ENDBRANCH  34  36
ENDBRANCH   4  34
TORSDOF 9
ENDMDL
MODEL 2
REMARK VINA RESULT: -8.025749829      3.287      6.535
REMARK  9 active torsions:
REMARK  status: ('A' for Active; 'I' for Inactive)
REMARK    1  A    between atoms: O1_2  and  C2_3 
REMARK    2  A    between atoms: C3_4  and  C4_5 
REMARK    3  A    between atoms: C5_8  and  C6_9 
REMARK    4  A    between atoms: C6_9  and  C8_11 
REMARK    5  A    between atoms: C11_20  and  C12_21 
REMARK    6  A    between atoms: C14_25  and  O4_26 
REMARK    7  A    between atoms: O4_26  and  C15_27 
REMARK    8  A    between atoms: C15_27  and  C17_29 
REMARK    9  A    between atoms: C25_37  and  C26_38 
ROOT
HETATM    1  C4  UNL     1      52.897  -0.645  81.556  1.00  0.00     0.074 A 
HETATM    2  N1  UNL     1      53.475  -1.447  82.492  1.00  0.00    -0.343 N 
ATOM      3  H1  UNL     1      54.104  -2.223  82.287  1.00  0.00     0.167 HD
HETATM    4  C5  UNL     1      53.095  -1.069  83.729  1.00  0.00     0.088 A 
HETATM    5  N3  UNL     1      52.272  -0.022  83.565  1.00  0.00    -0.343 N 
ATOM      6  H3  UNL     1      51.819   0.486  84.324  1.00  0.00     0.167 HD
HETATM    7  C11 UNL     1      52.125   0.268  82.237  1.00  0.00     0.073 A 
ENDROOT
BRANCH   7   8
HETATM    8  C12 UNL     1      51.314   1.312  81.656  1.00  0.00     0.014 A 
HETATM    9  C13 UNL     1      49.971   1.116  81.451  1.00  0.00     0.104 A 
HETATM   10  N4  UNL     1      49.218   2.098  80.896  1.00  0.00    -0.346 N 
HETATM   11  C14 UNL     1      49.727   3.284  80.525  1.00  0.00     0.142 A 
ATOM     12  H4  UNL     1      48.222   1.928  80.754  1.00  0.00     0.167 HD
HETATM   13  C20 UNL     1      51.067   3.514  80.716  1.00  0.00     0.063 A 
HETATM   14  C21 UNL     1      51.870   2.514  81.289  1.00  0.00    -0.044 A 
HETATM   15  C22 UNL     1      53.313   2.821  81.464  1.00  0.00     0.049 C 
BRANCH  11  16
HETATM   16  O4  UNL     1      48.924   4.282  79.953  1.00  0.00    -0.330 OA
BRANCH  16  17
HETATM   17  C15 UNL     1      48.214   5.199  80.767  1.00  0.00     0.129 C 
HETATM   18  C16 UNL     1      46.781   5.192  80.197  1.00  0.00     0.040 C 
BRANCH  17  19
HETATM   19  C17 UNL     1      48.749   6.591  80.534  1.00  0.00     0.006 C 
HETATM   20  C18 UNL     1      49.843   6.845  81.542  1.00  0.00     0.012 C 
HETATM   21  C19 UNL     1      49.191   6.803  79.123  1.00  0.00     0.012 C 
ENDBRANCH  17  19
ENDBRANCH  16  17
ENDBRANCH  11  16
ENDBRANCH   7   8
BRANCH   1  22
HETATM   22  C3  UNL     1      53.133  -0.809  80.127  1.00  0.00     0.029 A 
HETATM   23  C2  UNL     1      54.375  -0.681  79.541  1.00  0.00     0.120 A 
HETATM   24  C27 UNL     1      54.488  -0.853  78.164  1.00  0.00     0.162 A 
HETATM   25  C25 UNL     1      53.399  -1.147  77.373  1.00  0.00     0.047 A 
HETATM   26  F3  UNL     1      55.730  -0.724  77.589  1.00  0.00    -0.202 F 
HETATM   27  C24 UNL     1      52.159  -1.276  77.950  1.00  0.00     0.017 A 
HETATM   28  C23 UNL     1      52.065  -1.104  79.304  1.00  0.00     0.017 A 
BRANCH  23  29
HETATM   29  O1  UNL     1      55.498  -0.385  80.317  1.00  0.00    -0.352 OA
HETATM   30  C1  UNL     1      56.533  -1.273  80.615  1.00  0.00     0.210 C 
ENDBRANCH  23  29
BRANCH  25  31
HETATM   31  C26 UNL     1      53.507  -1.334  75.900  1.00  0.00     0.389 C 
HETATM   32  F1  UNL     1      52.428  -0.833  75.230  1.00  0.00    -0.209 F 
HETATM   33  F2  UNL     1      53.598  -2.695  75.633  1.00  0.00    -0.209 F 
ENDBRANCH  25  31
ENDBRANCH   1  22
BRANCH   4  34
HETATM   34  C6  UNL     1      53.513  -1.702  85.009  1.00  0.00     0.080 C 
HETATM   35  C7  UNL     1      52.994  -0.925  86.198  1.00  0.00     0.020 C 
BRANCH  34  36
HETATM   36  C8  UNL     1      53.089  -3.156  85.068  1.00  0.00     0.162 C 
HETATM   37  C9  UNL     1      51.611  -3.254  84.864  1.00  0.00     0.158 C 
HETATM   38  N2  UNL     1      51.439  -4.222  83.791  1.00  0.00    -0.334 N 
HETATM   39  C10 UNL     1      52.706  -4.623  83.317  1.00  0.00     0.361 C 
ATOM     40  H2  UNL     1      50.543  -4.557  83.436  1.00  0.00     0.164 HD
HETATM   41  O2  UNL     1      53.013  -5.467  82.435  1.00  0.00    -0.239 OA
HETATM   42  O3  UNL     1      53.652  -3.907  84.011  1.00  0.00    -0.296 OA
ENDBRANCH  34  36
ENDBRANCH   4  34
TORSDOF 9
ENDMDL
MODEL 3
REMARK VINA RESULT: -8.011942164     11.506     14.867
REMARK  9 active torsions:
REMARK  status: ('A' for Active; 'I' for Inactive)
REMARK    1  A    between atoms: O1_2  and  C2_3 
REMARK    2  A    between atoms: C3_4  and  C4_5 
REMARK    3  A    between atoms: C5_8  and  C6_9 
REMARK    4  A    between atoms: C6_9  and  C8_11 
REMARK    5  A    between atoms: C11_20  and  C12_21 
REMARK    6  A    between atoms: C14_25  and  O4_26 
REMARK    7  A    between atoms: O4_26  and  C15_27 
REMARK    8  A    between atoms: C15_27  and  C17_29 
REMARK    9  A    between atoms: C25_37  and  C26_38 
ROOT
HETATM    1  C4  UNL     1      47.645   5.225  69.085  1.00  0.00     0.074 A 
HETATM    2  N1  UNL     1      47.414   6.566  69.062  1.00  0.00    -0.343 N 
ATOM      3  H1  UNL     1      48.071   7.265  68.716  1.00  0.00     0.167 HD
HETATM    4  C5  UNL     1      46.191   6.838  69.561  1.00  0.00     0.088 A 
HETATM    5  N3  UNL     1      45.654   5.655  69.901  1.00  0.00    -0.343 N 
ATOM      6  H3  UNL     1      44.728   5.533  70.310  1.00  0.00     0.167 HD
HETATM    7  C11 UNL     1      46.523   4.637  69.622  1.00  0.00     0.073 A 
ENDROOT
BRANCH   7   8
HETATM    8  C12 UNL     1      46.318   3.227  69.854  1.00  0.00     0.014 A 
HETATM    9  C13 UNL     1      46.462   2.701  71.114  1.00  0.00     0.104 A 
HETATM   10  N4  UNL     1      46.277   1.374  71.322  1.00  0.00    -0.346 N 
HETATM   11  C14 UNL     1      45.952   0.521  70.337  1.00  0.00     0.142 A 
ATOM     12  H4  UNL     1      46.390   1.008  72.268  1.00  0.00     0.167 HD
HETATM   13  C20 UNL     1      45.799   1.013  69.064  1.00  0.00     0.063 A 
HETATM   14  C21 UNL     1      45.984   2.384  68.821  1.00  0.00    -0.044 A 
HETATM   15  C22 UNL     1      45.811   2.854  67.422  1.00  0.00     0.049 C 
BRANCH  11  16
HETATM   16  O4  UNL     1      45.767  -0.848  70.581  1.00  0.00    -0.330 OA
BRANCH  16  17
HETATM   17  C15 UNL     1      45.259  -1.705  69.573  1.00  0.00     0.129 C 
HETATM   18  C16 UNL     1      43.770  -1.881  69.930  1.00  0.00     0.040 C 
BRANCH  17  19
HETATM   19  C17 UNL     1      45.887  -3.069  69.716  1.00  0.00     0.006 C 
HETATM   20  C18 UNL     1      47.361  -2.938  69.421  1.00  0.00     0.012 C 
HETATM   21  C19 UNL     1      45.610  -3.688  71.047  1.00  0.00     0.012 C 
ENDBRANCH  17  19
ENDBRANCH  16  17
ENDBRANCH  11  16
ENDBRANCH   7   8
BRANCH   1  22
HETATM   22  C3  UNL     1      48.884   4.632  68.595  1.00  0.00     0.029 A 
HETATM   23  C2  UNL     1      49.442   4.939  67.372  1.00  0.00     0.120 A 
HETATM   24  C27 UNL     1      50.627   4.310  67.000  1.00  0.00     0.162 A 
HETATM   25  C25 UNL     1      51.256   3.395  67.815  1.00  0.00     0.047 A 
HETATM   26  F3  UNL     1      51.176   4.621  65.777  1.00  0.00    -0.202 F 
HETATM   27  C24 UNL     1      50.705   3.085  69.035  1.00  0.00     0.017 A 
HETATM   28  C23 UNL     1      49.541   3.711  69.386  1.00  0.00     0.017 A 
BRANCH  23  29
HETATM   29  O1  UNL     1      48.828   5.863  66.523  1.00  0.00    -0.352 OA
HETATM   30  C1  UNL     1      47.971   5.547  65.467  1.00  0.00     0.210 C 
ENDBRANCH  23  29
BRANCH  25  31
HETATM   31  C26 UNL     1      52.523   2.716  67.429  1.00  0.00     0.389 C 
HETATM   32  F1  UNL     1      53.527   3.600  67.155  1.00  0.00    -0.209 F 
HETATM   33  F2  UNL     1      52.287   1.951  66.293  1.00  0.00    -0.209 F 
ENDBRANCH  25  31
ENDBRANCH   1  22
BRANCH   4  34
HETATM   34  C6  UNL     1      45.580   8.186  69.704  1.00  0.00     0.080 C 
HETATM   35  C7  UNL     1      46.487   9.118  70.476  1.00  0.00     0.020 C 
BRANCH  34  36
HETATM   36  C8  UNL     1      45.205   8.766  68.355  1.00  0.00     0.162 C 
HETATM   37  C9  UNL     1      45.450  10.242  68.360  1.00  0.00     0.158 C 
HETATM   38  N2  UNL     1      46.276  10.494  67.188  1.00  0.00    -0.334 N 
HETATM   39  C10 UNL     1      46.582   9.267  66.562  1.00  0.00     0.361 C 
ATOM     40  H2  UNL     1      46.585  11.412  66.870  1.00  0.00     0.164 HD
HETATM   41  O2  UNL     1      47.228   9.033  65.507  1.00  0.00    -0.239 OA
HETATM   42  O3  UNL     1      46.030   8.265  67.324  1.00  0.00    -0.296 OA
ENDBRANCH  34  36
ENDBRANCH   4  34
TORSDOF 9
ENDMDL
MODEL 4
REMARK VINA RESULT: -7.999322794      1.096      1.819
REMARK  9 active torsions:
REMARK  status: ('A' for Active; 'I' for Inactive)
REMARK    1  A    between atoms: O1_2  and  C2_3 
REMARK    2  A    between atoms: C3_4  and  C4_5 
REMARK    3  A    between atoms: C5_8  and  C6_9 
REMARK    4  A    between atoms: C6_9  and  C8_11 
REMARK    5  A    between atoms: C11_20  and  C12_21 
REMARK    6  A    between atoms: C14_25  and  O4_26 
REMARK    7  A    between atoms: O4_26  and  C15_27 
REMARK    8  A    between atoms: C15_27  and  C17_29 
REMARK    9  A    between atoms: C25_37  and  C26_38 
ROOT
HETATM    1  C4  UNL     1      52.170  -0.627  81.282  1.00  0.00     0.074 A 
HETATM    2  N1  UNL     1      52.316  -1.226  82.495  1.00  0.00    -0.343 N 
ATOM      3  H1  UNL     1      52.017  -0.825  83.384  1.00  0.00     0.167 HD
HETATM    4  C5  UNL     1      52.913  -2.427  82.354  1.00  0.00     0.088 A 
HETATM    5  N3  UNL     1      53.143  -2.578  81.040  1.00  0.00    -0.343 N 
ATOM      6  H3  UNL     1      53.588  -3.393  80.618  1.00  0.00     0.167 HD
HETATM    7  C11 UNL     1      52.698  -1.488  80.347  1.00  0.00     0.073 A 
ENDROOT
BRANCH   7   8
HETATM    8  C12 UNL     1      52.776  -1.267  78.922  1.00  0.00     0.014 A 
HETATM    9  C13 UNL     1      51.639  -1.275  78.155  1.00  0.00     0.104 A 
HETATM   10  N4  UNL     1      51.720  -1.076  76.816  1.00  0.00    -0.346 N 
HETATM   11  C14 UNL     1      52.886  -0.868  76.181  1.00  0.00     0.142 A 
ATOM     12  H4  UNL     1      50.861  -1.086  76.267  1.00  0.00     0.167 HD
HETATM   13  C20 UNL     1      54.044  -0.853  76.919  1.00  0.00     0.063 A 
HETATM   14  C21 UNL     1      53.986  -1.055  78.308  1.00  0.00    -0.044 A 
HETATM   15  C22 UNL     1      55.274  -1.035  79.050  1.00  0.00     0.049 C 
BRANCH  11  16
HETATM   16  O4  UNL     1      52.941  -0.665  74.794  1.00  0.00    -0.330 OA
BRANCH  16  17
HETATM   17  C15 UNL     1      53.600  -1.592  73.949  1.00  0.00     0.129 C 
HETATM   18  C16 UNL     1      53.694  -0.875  72.588  1.00  0.00     0.040 C 
BRANCH  17  19
HETATM   19  C17 UNL     1      52.707  -2.788  73.730  1.00  0.00     0.006 C 
HETATM   20  C18 UNL     1      52.592  -3.020  72.243  1.00  0.00     0.012 C 
HETATM   21  C19 UNL     1      53.177  -3.994  74.476  1.00  0.00     0.012 C 
ENDBRANCH  17  19
ENDBRANCH  16  17
ENDBRANCH  11  16
ENDBRANCH   7   8
BRANCH   1  22
HETATM   22  C3  UNL     1      51.544   0.680  81.121  1.00  0.00     0.029 A 
HETATM   23  C2  UNL     1      50.199   0.854  80.869  1.00  0.00     0.120 A 
HETATM   24  C27 UNL     1      49.706   2.148  80.728  1.00  0.00     0.162 A 
HETATM   25  C25 UNL     1      50.518   3.255  80.833  1.00  0.00     0.047 A 
HETATM   26  F3  UNL     1      48.364   2.312  80.476  1.00  0.00    -0.202 F 
HETATM   27  C24 UNL     1      51.859   3.089  81.084  1.00  0.00     0.017 A 
HETATM   28  C23 UNL     1      52.328   1.811  81.220  1.00  0.00     0.017 A 
BRANCH  23  29
HETATM   29  O1  UNL     1      49.350  -0.250  80.758  1.00  0.00    -0.352 OA
HETATM   30  C1  UNL     1      48.549  -0.760  81.781  1.00  0.00     0.210 C 
ENDBRANCH  23  29
BRANCH  25  31
HETATM   31  C26 UNL     1      50.003   4.644  80.685  1.00  0.00     0.389 C 
HETATM   32  F1  UNL     1      49.354   4.837  79.499  1.00  0.00    -0.209 F 
HETATM   33  F2  UNL     1      51.078   5.523  80.748  1.00  0.00    -0.209 F 
ENDBRANCH  25  31
ENDBRANCH   1  22
BRANCH   4  34
HETATM   34  C6  UNL     1      53.247  -3.377  83.449  1.00  0.00     0.080 C 
HETATM   35  C7  UNL     1      53.514  -2.644  84.746  1.00  0.00     0.020 C 
BRANCH  34  36
HETATM   36  C8  UNL     1      52.166  -4.426  83.616  1.00  0.00     0.162 C 
HETATM   37  C9  UNL     1      51.834  -4.576  85.067  1.00  0.00     0.158 C 
HETATM   38  N2  UNL     1      50.389  -4.425  85.144  1.00  0.00    -0.334 N 
HETATM   39  C10 UNL     1      49.883  -4.125  83.862  1.00  0.00     0.361 C 
ATOM     40  H2  UNL     1      49.830  -4.521  85.992  1.00  0.00     0.164 HD
HETATM   41  O2  UNL     1      48.696  -3.960  83.476  1.00  0.00    -0.239 OA
HETATM   42  O3  UNL     1      50.954  -4.029  83.007  1.00  0.00    -0.296 OA
ENDBRANCH  34  36
ENDBRANCH   4  34
TORSDOF 9
ENDMDL
MODEL 5
REMARK VINA RESULT: -7.843527529      1.501      2.012
REMARK  9 active torsions:
REMARK  status: ('A' for Active; 'I' for Inactive)
REMARK    1  A    between atoms: O1_2  and  C2_3 
REMARK    2  A    between atoms: C3_4  and  C4_5 
REMARK    3  A    between atoms: C5_8  and  C6_9 
REMARK    4  A    between atoms: C6_9  and  C8_11 
REMARK    5  A    between atoms: C11_20  and  C12_21 
REMARK    6  A    between atoms: C14_25  and  O4_26 
REMARK    7  A    between atoms: O4_26  and  C15_27 
REMARK    8  A    between atoms: C15_27  and  C17_29 
REMARK    9  A    between atoms: C25_37  and  C26_38 
ROOT
HETATM    1  C4  UNL     1      51.462  -0.283  81.142  1.00  0.00     0.074 A 
HETATM    2  N1  UNL     1      51.486  -0.802  82.400  1.00  0.00    -0.343 N 
ATOM      3  H1  UNL     1      51.145  -0.324  83.235  1.00  0.00     0.167 HD
HETATM    4  C5  UNL     1      52.026  -2.037  82.386  1.00  0.00     0.088 A 
HETATM    5  N3  UNL     1      52.343  -2.292  81.107  1.00  0.00    -0.343 N 
ATOM      6  H3  UNL     1      52.773  -3.156  80.775  1.00  0.00     0.167 HD
HETATM    7  C11 UNL     1      52.010  -1.232  80.310  1.00  0.00     0.073 A 
ENDROOT
BRANCH   7   8
HETATM    8  C12 UNL     1      52.204  -1.117  78.884  1.00  0.00     0.014 A 
HETATM    9  C13 UNL     1      51.125  -1.070  78.038  1.00  0.00     0.104 A 
HETATM   10  N4  UNL     1      51.315  -0.972  76.698  1.00  0.00    -0.346 N 
HETATM   11  C14 UNL     1      52.535  -0.916  76.139  1.00  0.00     0.142 A 
ATOM     12  H4  UNL     1      50.497  -0.939  76.090  1.00  0.00     0.167 HD
HETATM   13  C20 UNL     1      53.637  -0.959  76.957  1.00  0.00     0.063 A 
HETATM   14  C21 UNL     1      53.467  -1.061  78.347  1.00  0.00    -0.044 A 
HETATM   15  C22 UNL     1      54.698  -1.110  79.178  1.00  0.00     0.049 C 
BRANCH  11  16
HETATM   16  O4  UNL     1      52.702  -0.813  74.750  1.00  0.00    -0.330 OA
BRANCH  16  17
HETATM   17  C15 UNL     1      53.513  -1.737  74.045  1.00  0.00     0.129 C 
HETATM   18  C16 UNL     1      53.755  -1.072  72.675  1.00  0.00     0.040 C 
BRANCH  17  19
HETATM   19  C17 UNL     1      52.717  -2.988  73.767  1.00  0.00     0.006 C 
HETATM   20  C18 UNL     1      52.984  -3.405  72.341  1.00  0.00     0.012 C 
HETATM   21  C19 UNL     1      52.994  -4.072  74.755  1.00  0.00     0.012 C 
ENDBRANCH  17  19
ENDBRANCH  16  17
ENDBRANCH  11  16
ENDBRANCH   7   8
BRANCH   1  22
HETATM   22  C3  UNL     1      50.922   1.038  80.847  1.00  0.00     0.029 A 
HETATM   23  C2  UNL     1      51.617   2.210  81.059  1.00  0.00     0.120 A 
HETATM   24  C27 UNL     1      51.003   3.420  80.746  1.00  0.00     0.162 A 
HETATM   25  C25 UNL     1      49.727   3.480  80.233  1.00  0.00     0.047 A 
HETATM   26  F3  UNL     1      51.705   4.584  80.962  1.00  0.00    -0.202 F 
HETATM   27  C24 UNL     1      49.029   2.317  80.019  1.00  0.00     0.017 A 
HETATM   28  C23 UNL     1      49.645   1.137  80.331  1.00  0.00     0.017 A 
BRANCH  23  29
HETATM   29  O1  UNL     1      52.914   2.181  81.578  1.00  0.00    -0.352 OA
HETATM   30  C1  UNL     1      53.249   2.329  82.925  1.00  0.00     0.210 C 
ENDBRANCH  23  29
BRANCH  25  31
HETATM   31  C26 UNL     1      49.060   4.767  79.893  1.00  0.00     0.389 C 
HETATM   32  F1  UNL     1      48.861   5.558  80.989  1.00  0.00    -0.209 F 
HETATM   33  F2  UNL     1      47.824   4.487  79.321  1.00  0.00    -0.209 F 
ENDBRANCH  25  31
ENDBRANCH   1  22
BRANCH   4  34
HETATM   34  C6  UNL     1      52.227  -2.923  83.564  1.00  0.00     0.080 C 
HETATM   35  C7  UNL     1      53.343  -3.914  83.319  1.00  0.00     0.020 C 
BRANCH  34  36
HETATM   36  C8  UNL     1      52.466  -2.117  84.825  1.00  0.00     0.162 C 
HETATM   37  C9  UNL     1      53.241  -2.939  85.804  1.00  0.00     0.158 C 
HETATM   38  N2  UNL     1      54.376  -2.110  86.183  1.00  0.00    -0.334 N 
HETATM   39  C10 UNL     1      54.347  -0.912  85.437  1.00  0.00     0.361 C 
ATOM     40  H2  UNL     1      55.081  -2.356  86.877  1.00  0.00     0.164 HD
HETATM   41  O2  UNL     1      55.108   0.090  85.480  1.00  0.00    -0.239 OA
HETATM   42  O3  UNL     1      53.278  -0.988  84.576  1.00  0.00    -0.296 OA
ENDBRANCH  34  36
ENDBRANCH   4  34
TORSDOF 9
ENDMDL
