MODEL 1
REMARK VINA RESULT: -8.052128929      0.000      0.000
REMARK  12 active torsions:
REMARK  status: ('A' for Active; 'I' for Inactive)
REMARK    1  A    between atoms: C3_3  and  C4_4 
REMARK    2  A    between atoms: C4_4  and  C5_5 
REMARK    3  A    between atoms: C7_7  and  O1_8 
REMARK    4  A    between atoms: C7_7  and  C8_10 
REMARK    5  A    between atoms: C8_10  and  O2_11 
REMARK    6  A    between atoms: O2_11  and  C9_12 
REMARK    7  A    between atoms: C11_14  and  O3_15 
REMARK    8  A    between atoms: O3_15  and  C12_16 
REMARK    9  A    between atoms: C12_16  and  C13_17 
REMARK   10  A    between atoms: C13_17  and  C14_18 
REMARK   11  A    between atoms: C14_18  and  O4_19 
REMARK   12  A    between atoms: O4_19  and  C15_20 
ROOT
HETATM    1  C1  UNL     1      54.773   1.741  73.778  1.00  0.00     0.112 C 
HETATM    2  C2  UNL     1      53.846   0.586  73.754  1.00  0.00    -0.111 C 
HETATM    3  C3  UNL     1      53.097  -0.360  73.715  1.00  0.00    -0.103 C 
ENDROOT
BRANCH   3   4
HETATM    4  C4  UNL     1      52.192  -1.521  73.646  1.00  0.00     0.130 C 
BRANCH   4   5
HETATM    5  C5  UNL     1      52.952  -2.763  73.402  1.00  0.00    -0.042 C 
HETATM    6  C6  UNL     1      53.255  -3.044  71.950  1.00  0.00     0.047 C 
HETATM    7  C7  UNL     1      53.369  -3.611  74.302  1.00  0.00     0.070 C 
BRANCH   7   8
HETATM    8  O1  UNL     1      54.082  -4.740  73.845  1.00  0.00    -0.362 OA
ATOM      9  H1  UNL     1      53.651  -5.584  73.916  1.00  0.00     0.217 HD
ENDBRANCH   7   8
BRANCH   7  10
HETATM   10  C8  UNL     1      53.145  -3.468  75.777  1.00  0.00     0.240 C 
BRANCH  10  11
HETATM   11  O2  UNL     1      53.901  -2.373  76.288  1.00  0.00    -0.342 OA
BRANCH  11  12
HETATM   12  C9  UNL     1      53.457  -1.700  77.416  1.00  0.00     0.101 A 
HETATM   13  C10 UNL     1      52.126  -1.391  77.642  1.00  0.00     0.076 A 
HETATM   14  C11 UNL     1      51.689  -0.723  78.761  1.00  0.00     0.074 A 
HETATM   15  C22 UNL     1      52.656  -0.348  79.704  1.00  0.00     0.076 A 
HETATM   16  C23 UNL     1      53.985  -0.635  79.523  1.00  0.00     0.101 A 
HETATM   17  C24 UNL     1      54.365  -1.309  78.377  1.00  0.00     0.102 A 
HETATM   18  O6  UNL     1      54.938  -0.244  80.489  1.00  0.00    -0.340 OA
HETATM   19  N1  UNL     1      55.752  -1.614  78.190  1.00  0.00    -0.321 N 
HETATM   20  C25 UNL     1      56.668  -1.211  79.193  1.00  0.00     0.246 C 
ATOM     21  H1  UNL     1      56.071  -2.109  77.358  1.00  0.00     0.169 HD
HETATM   22  O5  UNL     1      57.879  -1.035  78.953  1.00  0.00    -0.271 OA
HETATM   23  C26 UNL     1      56.124  -1.006  80.552  1.00  0.00     0.278 C 
BRANCH  14  24
HETATM   24  O3  UNL     1      50.382  -0.436  78.944  1.00  0.00    -0.351 OA
BRANCH  24  25
HETATM   25  C12 UNL     1      49.382   0.078  78.180  1.00  0.00     0.178 C 
BRANCH  25  26
HETATM   26  C13 UNL     1      48.026   0.231  78.823  1.00  0.00     0.053 C 
BRANCH  26  27
HETATM   27  C14 UNL     1      47.982   1.486  79.697  1.00  0.00     0.178 C 
BRANCH  27  28
HETATM   28  O4  UNL     1      48.750   2.504  79.113  1.00  0.00    -0.349 OA
BRANCH  28  29
HETATM   29  C15 UNL     1      48.981   3.653  79.865  1.00  0.00     0.096 A 
HETATM   30  C16 UNL     1      50.138   3.780  80.606  1.00  0.00    -0.025 A 
HETATM   31  C17 UNL     1      51.139   2.681  80.601  1.00  0.00     0.051 C 
HETATM   32  C18 UNL     1      50.408   4.915  81.371  1.00  0.00     0.033 A 
HETATM   33  C19 UNL     1      49.502   5.955  81.401  1.00  0.00     0.036 A 
HETATM   34 CL1  UNL     1      49.798   7.408  82.353  1.00  0.00    -0.084 Cl
HETATM   35  C20 UNL     1      48.348   5.831  80.663  1.00  0.00     0.050 A 
HETATM   36  C21 UNL     1      48.082   4.692  79.897  1.00  0.00     0.069 A 
HETATM   37 CL2  UNL     1      46.606   4.553  78.963  1.00  0.00    -0.081 Cl
ENDBRANCH  28  29
ENDBRANCH  27  28
ENDBRANCH  26  27
ENDBRANCH  25  26
ENDBRANCH  24  25
ENDBRANCH  14  24
ENDBRANCH  11  12
ENDBRANCH  10  11
ENDBRANCH   7  10
ENDBRANCH   4   5
ENDBRANCH   3   4
TORSDOF 12
ENDMDL
MODEL 2
REMARK VINA RESULT: -7.985116993      1.899      2.397
REMARK  12 active torsions:
REMARK  status: ('A' for Active; 'I' for Inactive)
REMARK    1  A    between atoms: C3_3  and  C4_4 
REMARK    2  A    between atoms: C4_4  and  C5_5 
REMARK    3  A    between atoms: C7_7  and  O1_8 
REMARK    4  A    between atoms: C7_7  and  C8_10 
REMARK    5  A    between atoms: C8_10  and  O2_11 
REMARK    6  A    between atoms: O2_11  and  C9_12 
REMARK    7  A    between atoms: C11_14  and  O3_15 
REMARK    8  A    between atoms: O3_15  and  C12_16 
REMARK    9  A    between atoms: C12_16  and  C13_17 
REMARK   10  A    between atoms: C13_17  and  C14_18 
REMARK   11  A    between atoms: C14_18  and  O4_19 
REMARK   12  A    between atoms: O4_19  and  C15_20 
ROOT
HETATM    1  C1  UNL     1      54.733   1.711  73.743  1.00  0.00     0.112 C 
HETATM    2  C2  UNL     1      53.824   0.544  73.685  1.00  0.00    -0.111 C 
HETATM    3  C3  UNL     1      53.093  -0.417  73.654  1.00  0.00    -0.103 C 
ENDROOT
BRANCH   3   4
HETATM    4  C4  UNL     1      52.213  -1.599  73.634  1.00  0.00     0.130 C 
BRANCH   4   5
HETATM    5  C5  UNL     1      52.995  -2.830  73.400  1.00  0.00    -0.042 C 
HETATM    6  C6  UNL     1      53.358  -3.084  71.957  1.00  0.00     0.047 C 
HETATM    7  C7  UNL     1      53.386  -3.688  74.303  1.00  0.00     0.070 C 
BRANCH   7   8
HETATM    8  O1  UNL     1      54.128  -4.803  73.856  1.00  0.00    -0.362 OA
ATOM      9  H1  UNL     1      54.601  -5.300  74.512  1.00  0.00     0.217 HD
ENDBRANCH   7   8
BRANCH   7  10
HETATM   10  C8  UNL     1      53.102  -3.572  75.770  1.00  0.00     0.240 C 
BRANCH  10  11
HETATM   11  O2  UNL     1      53.806  -2.462  76.322  1.00  0.00    -0.342 OA
BRANCH  11  12
HETATM   12  C9  UNL     1      53.223  -1.716  77.337  1.00  0.00     0.101 A 
HETATM   13  C10 UNL     1      51.874  -1.402  77.370  1.00  0.00     0.076 A 
HETATM   14  C11 UNL     1      51.301  -0.663  78.376  1.00  0.00     0.074 A 
HETATM   15  C22 UNL     1      52.141  -0.217  79.406  1.00  0.00     0.076 A 
HETATM   16  C23 UNL     1      53.482  -0.505  79.414  1.00  0.00     0.101 A 
HETATM   17  C24 UNL     1      54.003  -1.253  78.375  1.00  0.00     0.102 A 
HETATM   18  O6  UNL     1      54.305  -0.042  80.464  1.00  0.00    -0.340 OA
HETATM   19  N1  UNL     1      55.401  -1.560  78.387  1.00  0.00    -0.321 N 
HETATM   20  C25 UNL     1      56.184  -1.082  79.467  1.00  0.00     0.246 C 
ATOM     21  H1  UNL     1      55.823  -2.108  77.637  1.00  0.00     0.169 HD
HETATM   22  O5  UNL     1      57.416  -0.914  79.370  1.00  0.00    -0.271 OA
HETATM   23  C26 UNL     1      55.472  -0.789  80.729  1.00  0.00     0.278 C 
BRANCH  14  24
HETATM   24  O3  UNL     1      49.981  -0.374  78.372  1.00  0.00    -0.351 OA
BRANCH  24  25
HETATM   25  C12 UNL     1      49.195   0.580  77.808  1.00  0.00     0.178 C 
BRANCH  25  26
HETATM   26  C13 UNL     1      47.953   0.990  78.560  1.00  0.00     0.053 C 
BRANCH  26  27
HETATM   27  C14 UNL     1      47.957   0.400  79.971  1.00  0.00     0.178 C 
BRANCH  27  28
HETATM   28  O4  UNL     1      48.155   1.417  80.916  1.00  0.00    -0.349 OA
BRANCH  28  29
HETATM   29  C15 UNL     1      49.449   1.624  81.384  1.00  0.00     0.096 A 
HETATM   30  C16 UNL     1      50.154   2.750  81.008  1.00  0.00    -0.025 A 
HETATM   31  C17 UNL     1      49.525   3.742  80.098  1.00  0.00     0.051 C 
HETATM   32  C18 UNL     1      51.452   2.995  81.455  1.00  0.00     0.033 A 
HETATM   33  C19 UNL     1      52.070   2.096  82.300  1.00  0.00     0.036 A 
HETATM   34 CL1  UNL     1      53.709   2.362  82.891  1.00  0.00    -0.084 Cl
HETATM   35  C20 UNL     1      51.369   0.974  82.677  1.00  0.00     0.050 A 
HETATM   36  C21 UNL     1      50.068   0.733  82.227  1.00  0.00     0.069 A 
HETATM   37 CL2  UNL     1      49.192  -0.704  82.718  1.00  0.00    -0.081 Cl
ENDBRANCH  28  29
ENDBRANCH  27  28
ENDBRANCH  26  27
ENDBRANCH  25  26
ENDBRANCH  24  25
ENDBRANCH  14  24
ENDBRANCH  11  12
ENDBRANCH  10  11
ENDBRANCH   7  10
ENDBRANCH   4   5
ENDBRANCH   3   4
TORSDOF 12
ENDMDL
MODEL 3
REMARK VINA RESULT: -7.906104348      1.960      2.628
REMARK  12 active torsions:
REMARK  status: ('A' for Active; 'I' for Inactive)
REMARK    1  A    between atoms: C3_3  and  C4_4 
REMARK    2  A    between atoms: C4_4  and  C5_5 
REMARK    3  A    between atoms: C7_7  and  O1_8 
REMARK    4  A    between atoms: C7_7  and  C8_10 
REMARK    5  A    between atoms: C8_10  and  O2_11 
REMARK    6  A    between atoms: O2_11  and  C9_12 
REMARK    7  A    between atoms: C11_14  and  O3_15 
REMARK    8  A    between atoms: O3_15  and  C12_16 
REMARK    9  A    between atoms: C12_16  and  C13_17 
REMARK   10  A    between atoms: C13_17  and  C14_18 
REMARK   11  A    between atoms: C14_18  and  O4_19 
REMARK   12  A    between atoms: O4_19  and  C15_20 
ROOT
HETATM    1  C1  UNL     1      54.778   1.673  73.784  1.00  0.00     0.112 C 
HETATM    2  C2  UNL     1      53.833   0.535  73.724  1.00  0.00    -0.111 C 
HETATM    3  C3  UNL     1      53.078  -0.407  73.680  1.00  0.00    -0.103 C 
ENDROOT
BRANCH   3   4
HETATM    4  C4  UNL     1      52.176  -1.571  73.634  1.00  0.00     0.130 C 
BRANCH   4   5
HETATM    5  C5  UNL     1      52.937  -2.815  73.406  1.00  0.00    -0.042 C 
HETATM    6  C6  UNL     1      53.266  -3.100  71.960  1.00  0.00     0.047 C 
HETATM    7  C7  UNL     1      53.336  -3.662  74.316  1.00  0.00     0.070 C 
BRANCH   7   8
HETATM    8  O1  UNL     1      54.055  -4.794  73.874  1.00  0.00    -0.362 OA
ATOM      9  H1  UNL     1      54.319  -5.425  74.533  1.00  0.00     0.217 HD
ENDBRANCH   7   8
BRANCH   7  10
HETATM   10  C8  UNL     1      53.086  -3.515  75.786  1.00  0.00     0.240 C 
BRANCH  10  11
HETATM   11  O2  UNL     1      53.877  -2.455  76.318  1.00  0.00    -0.342 OA
BRANCH  11  12
HETATM   12  C9  UNL     1      53.399  -1.712  77.387  1.00  0.00     0.101 A 
HETATM   13  C10 UNL     1      52.066  -1.370  77.539  1.00  0.00     0.076 A 
HETATM   14  C11 UNL     1      51.596  -0.633  78.600  1.00  0.00     0.074 A 
HETATM   15  C22 UNL     1      52.529  -0.221  79.560  1.00  0.00     0.076 A 
HETATM   16  C23 UNL     1      53.860  -0.538  79.452  1.00  0.00     0.101 A 
HETATM   17  C24 UNL     1      54.274  -1.281  78.362  1.00  0.00     0.102 A 
HETATM   18  O6  UNL     1      54.778  -0.109  80.434  1.00  0.00    -0.340 OA
HETATM   19  N1  UNL     1      55.661  -1.619  78.252  1.00  0.00    -0.321 N 
HETATM   20  C25 UNL     1      56.542  -1.174  79.268  1.00  0.00     0.246 C 
ATOM     21  H1  UNL     1      56.006  -2.164  77.462  1.00  0.00     0.169 HD
HETATM   22  O5  UNL     1      57.766  -1.030  79.070  1.00  0.00    -0.271 OA
HETATM   23  C26 UNL     1      55.947  -0.884  80.589  1.00  0.00     0.278 C 
BRANCH  14  24
HETATM   24  O3  UNL     1      50.287  -0.317  78.711  1.00  0.00    -0.351 OA
BRANCH  24  25
HETATM   25  C12 UNL     1      49.421   0.492  78.045  1.00  0.00     0.178 C 
BRANCH  25  26
HETATM   26  C13 UNL     1      48.378   1.214  78.861  1.00  0.00     0.053 C 
BRANCH  26  27
HETATM   27  C14 UNL     1      48.998   2.404  79.597  1.00  0.00     0.178 C 
BRANCH  27  28
HETATM   28  O4  UNL     1      48.924   2.201  80.983  1.00  0.00    -0.349 OA
BRANCH  28  29
HETATM   29  C15 UNL     1      50.094   1.843  81.648  1.00  0.00     0.096 A 
HETATM   30  C16 UNL     1      50.211   0.596  82.229  1.00  0.00    -0.025 A 
HETATM   31  C17 UNL     1      49.080  -0.364  82.143  1.00  0.00     0.051 C 
HETATM   32  C18 UNL     1      51.365   0.198  82.903  1.00  0.00     0.033 A 
HETATM   33  C19 UNL     1      52.435   1.063  83.004  1.00  0.00     0.036 A 
HETATM   34 CL1  UNL     1      53.915   0.606  83.845  1.00  0.00    -0.084 Cl
HETATM   35  C20 UNL     1      52.321   2.306  82.425  1.00  0.00     0.050 A 
HETATM   36  C21 UNL     1      51.162   2.700  81.750  1.00  0.00     0.069 A 
HETATM   37 CL2  UNL     1      51.036   4.289  81.020  1.00  0.00    -0.081 Cl
ENDBRANCH  28  29
ENDBRANCH  27  28
ENDBRANCH  26  27
ENDBRANCH  25  26
ENDBRANCH  24  25
ENDBRANCH  14  24
ENDBRANCH  11  12
ENDBRANCH  10  11
ENDBRANCH   7  10
ENDBRANCH   4   5
ENDBRANCH   3   4
TORSDOF 12
ENDMDL
MODEL 4
REMARK VINA RESULT: -7.902666560      0.945      1.491
REMARK  12 active torsions:
REMARK  status: ('A' for Active; 'I' for Inactive)
REMARK    1  A    between atoms: C3_3  and  C4_4 
REMARK    2  A    between atoms: C4_4  and  C5_5 
REMARK    3  A    between atoms: C7_7  and  O1_8 
REMARK    4  A    between atoms: C7_7  and  C8_10 
REMARK    5  A    between atoms: C8_10  and  O2_11 
REMARK    6  A    between atoms: O2_11  and  C9_12 
REMARK    7  A    between atoms: C11_14  and  O3_15 
REMARK    8  A    between atoms: O3_15  and  C12_16 
REMARK    9  A    between atoms: C12_16  and  C13_17 
REMARK   10  A    between atoms: C13_17  and  C14_18 
REMARK   11  A    between atoms: C14_18  and  O4_19 
REMARK   12  A    between atoms: O4_19  and  C15_20 
ROOT
HETATM    1  C1  UNL     1      54.752   1.742  73.795  1.00  0.00     0.112 C 
HETATM    2  C2  UNL     1      53.872   0.556  73.680  1.00  0.00    -0.111 C 
HETATM    3  C3  UNL     1      53.142  -0.402  73.601  1.00  0.00    -0.103 C 
ENDROOT
BRANCH   3   4
HETATM    4  C4  UNL     1      52.235  -1.561  73.520  1.00  0.00     0.130 C 
BRANCH   4   5
HETATM    5  C5  UNL     1      52.999  -2.812  73.341  1.00  0.00    -0.042 C 
HETATM    6  C6  UNL     1      53.374  -3.126  71.913  1.00  0.00     0.047 C 
HETATM    7  C7  UNL     1      53.364  -3.643  74.280  1.00  0.00     0.070 C 
BRANCH   7   8
HETATM    8  O1  UNL     1      54.092  -4.785  73.883  1.00  0.00    -0.362 OA
ATOM      9  H1  UNL     1      53.691  -5.632  74.042  1.00  0.00     0.217 HD
ENDBRANCH   7   8
BRANCH   7  10
HETATM   10  C8  UNL     1      53.065  -3.467  75.738  1.00  0.00     0.240 C 
BRANCH  10  11
HETATM   11  O2  UNL     1      53.843  -2.400  76.276  1.00  0.00    -0.342 OA
BRANCH  11  12
HETATM   12  C9  UNL     1      53.379  -1.703  77.382  1.00  0.00     0.101 A 
HETATM   13  C10 UNL     1      52.045  -1.384  77.574  1.00  0.00     0.076 A 
HETATM   14  C11 UNL     1      51.589  -0.692  78.670  1.00  0.00     0.074 A 
HETATM   15  C22 UNL     1      52.538  -0.303  79.625  1.00  0.00     0.076 A 
HETATM   16  C23 UNL     1      53.870  -0.598  79.477  1.00  0.00     0.101 A 
HETATM   17  C24 UNL     1      54.270  -1.296  78.352  1.00  0.00     0.102 A 
HETATM   18  O6  UNL     1      54.804  -0.192  80.454  1.00  0.00    -0.340 OA
HETATM   19  N1  UNL     1      55.658  -1.611  78.200  1.00  0.00    -0.321 N 
HETATM   20  C25 UNL     1      56.556  -1.192  79.213  1.00  0.00     0.246 C 
ATOM     21  H1  UNL     1      55.992  -2.124  77.384  1.00  0.00     0.169 HD
HETATM   22  O5  UNL     1      57.773  -1.025  78.994  1.00  0.00    -0.271 OA
HETATM   23  C26 UNL     1      55.985  -0.958  80.556  1.00  0.00     0.278 C 
BRANCH  14  24
HETATM   24  O3  UNL     1      50.280  -0.397  78.821  1.00  0.00    -0.351 OA
BRANCH  24  25
HETATM   25  C12 UNL     1      49.416   0.502  78.279  1.00  0.00     0.178 C 
BRANCH  25  26
HETATM   26  C13 UNL     1      48.040   0.598  78.890  1.00  0.00     0.053 C 
BRANCH  26  27
HETATM   27  C14 UNL     1      47.945   1.811  79.818  1.00  0.00     0.178 C 
BRANCH  27  28
HETATM   28  O4  UNL     1      48.450   2.949  79.172  1.00  0.00    -0.349 OA
BRANCH  28  29
HETATM   29  C15 UNL     1      48.799   4.041  79.962  1.00  0.00     0.096 A 
HETATM   30  C16 UNL     1      47.934   5.108  80.096  1.00  0.00    -0.025 A 
HETATM   31  C17 UNL     1      46.626   5.088  79.391  1.00  0.00     0.051 C 
HETATM   32  C18 UNL     1      48.244   6.220  80.879  1.00  0.00     0.033 A 
HETATM   33  C19 UNL     1      49.449   6.275  81.548  1.00  0.00     0.036 A 
HETATM   34 CL1  UNL     1      49.887   7.658  82.548  1.00  0.00    -0.084 Cl
HETATM   35  C20 UNL     1      50.313   5.212  81.416  1.00  0.00     0.050 A 
HETATM   36  C21 UNL     1      49.997   4.100  80.631  1.00  0.00     0.069 A 
HETATM   37 CL2  UNL     1      51.111   2.755  80.475  1.00  0.00    -0.081 Cl
ENDBRANCH  28  29
ENDBRANCH  27  28
ENDBRANCH  26  27
ENDBRANCH  25  26
ENDBRANCH  24  25
ENDBRANCH  14  24
ENDBRANCH  11  12
ENDBRANCH  10  11
ENDBRANCH   7  10
ENDBRANCH   4   5
ENDBRANCH   3   4
TORSDOF 12
ENDMDL
MODEL 5
REMARK VINA RESULT: -7.860623038      1.139      1.362
REMARK  12 active torsions:
REMARK  status: ('A' for Active; 'I' for Inactive)
REMARK    1  A    between atoms: C3_3  and  C4_4 
REMARK    2  A    between atoms: C4_4  and  C5_5 
REMARK    3  A    between atoms: C7_7  and  O1_8 
REMARK    4  A    between atoms: C7_7  and  C8_10 
REMARK    5  A    between atoms: C8_10  and  O2_11 
REMARK    6  A    between atoms: O2_11  and  C9_12 
REMARK    7  A    between atoms: C11_14  and  O3_15 
REMARK    8  A    between atoms: O3_15  and  C12_16 
REMARK    9  A    between atoms: C12_16  and  C13_17 
REMARK   10  A    between atoms: C13_17  and  C14_18 
REMARK   11  A    between atoms: C14_18  and  O4_19 
REMARK   12  A    between atoms: O4_19  and  C15_20 
ROOT
HETATM    1  C1  UNL     1      54.770   1.724  73.760  1.00  0.00     0.112 C 
HETATM    2  C2  UNL     1      53.848   0.568  73.686  1.00  0.00    -0.111 C 
HETATM    3  C3  UNL     1      53.111  -0.388  73.634  1.00  0.00    -0.103 C 
ENDROOT
BRANCH   3   4
HETATM    4  C4  UNL     1      52.229  -1.567  73.583  1.00  0.00     0.130 C 
BRANCH   4   5
HETATM    5  C5  UNL     1      53.010  -2.795  73.335  1.00  0.00    -0.042 C 
HETATM    6  C6  UNL     1      53.385  -3.025  71.891  1.00  0.00     0.047 C 
HETATM    7  C7  UNL     1      53.390  -3.670  74.226  1.00  0.00     0.070 C 
BRANCH   7   8
HETATM    8  O1  UNL     1      54.134  -4.778  73.766  1.00  0.00    -0.362 OA
ATOM      9  H1  UNL     1      54.494  -5.362  74.424  1.00  0.00     0.217 HD
ENDBRANCH   7   8
BRANCH   7  10
HETATM   10  C8  UNL     1      53.094  -3.578  75.692  1.00  0.00     0.240 C 
BRANCH  10  11
HETATM   11  O2  UNL     1      53.859  -2.532  76.286  1.00  0.00    -0.342 OA
BRANCH  11  12
HETATM   12  C9  UNL     1      53.295  -1.751  77.285  1.00  0.00     0.101 A 
HETATM   13  C10 UNL     1      51.953  -1.411  77.317  1.00  0.00     0.076 A 
HETATM   14  C11 UNL     1      51.398  -0.637  78.307  1.00  0.00     0.074 A 
HETATM   15  C22 UNL     1      52.251  -0.184  79.323  1.00  0.00     0.076 A 
HETATM   16  C23 UNL     1      53.587  -0.498  79.333  1.00  0.00     0.101 A 
HETATM   17  C24 UNL     1      54.088  -1.280  78.309  1.00  0.00     0.102 A 
HETATM   18  O6  UNL     1      54.423  -0.027  80.368  1.00  0.00    -0.340 OA
HETATM   19  N1  UNL     1      55.481  -1.613  78.323  1.00  0.00    -0.321 N 
HETATM   20  C25 UNL     1      56.277  -1.126  79.388  1.00  0.00     0.246 C 
ATOM     21  H1  UNL     1      55.888  -2.187  77.584  1.00  0.00     0.169 HD
HETATM   22  O5  UNL     1      57.512  -0.984  79.283  1.00  0.00    -0.271 OA
HETATM   23  C26 UNL     1      55.577  -0.789  80.646  1.00  0.00     0.278 C 
BRANCH  14  24
HETATM   24  O3  UNL     1      50.084  -0.323  78.301  1.00  0.00    -0.351 OA
BRANCH  24  25
HETATM   25  C12 UNL     1      49.179   0.060  77.363  1.00  0.00     0.178 C 
BRANCH  25  26
HETATM   26  C13 UNL     1      47.720  -0.166  77.672  1.00  0.00     0.053 C 
BRANCH  26  27
HETATM   27  C14 UNL     1      46.923   1.128  77.492  1.00  0.00     0.178 C 
BRANCH  27  28
HETATM   28  O4  UNL     1      46.705   1.734  78.738  1.00  0.00    -0.349 OA
BRANCH  28  29
HETATM   29  C15 UNL     1      47.211   3.017  78.931  1.00  0.00     0.096 A 
HETATM   30  C16 UNL     1      48.316   3.216  79.733  1.00  0.00    -0.025 A 
HETATM   31  C17 UNL     1      48.965   2.053  80.394  1.00  0.00     0.051 C 
HETATM   32  C18 UNL     1      48.855   4.484  79.951  1.00  0.00     0.033 A 
HETATM   33  C19 UNL     1      48.280   5.587  79.356  1.00  0.00     0.036 A 
HETATM   34 CL1  UNL     1      48.924   7.209  79.602  1.00  0.00    -0.084 Cl
HETATM   35  C20 UNL     1      47.178   5.391  78.555  1.00  0.00     0.050 A 
HETATM   36  C21 UNL     1      46.643   4.119  78.339  1.00  0.00     0.069 A 
HETATM   37 CL2  UNL     1      45.239   3.889  77.315  1.00  0.00    -0.081 Cl
ENDBRANCH  28  29
ENDBRANCH  27  28
ENDBRANCH  26  27
ENDBRANCH  25  26
ENDBRANCH  24  25
ENDBRANCH  14  24
ENDBRANCH  11  12
ENDBRANCH  10  11
ENDBRANCH   7  10
ENDBRANCH   4   5
ENDBRANCH   3   4
TORSDOF 12
ENDMDL
