MODEL 1
REMARK VINA RESULT: -6.926250409      0.000      0.000
REMARK  8 active torsions:
REMARK  status: ('A' for Active; 'I' for Inactive)
REMARK    1  A    between atoms: C2_2  and  C3_3 
REMARK    2  A    between atoms: C3_3  and  C4_4 
REMARK    3  A    between atoms: C3_3  and  N1_6 
REMARK    4  A    between atoms: N1_6  and  C6_8 
REMARK    5  A    between atoms: C7_11  and  S1_12 
REMARK    6  A    between atoms: C17_27  and  O1_28 
REMARK    7  A    between atoms: N4_32  and  C21_33 
REMARK    8  A    between atoms: C21_33  and  C22_34 
ROOT
HETATM    1  C6  UNL     1      47.813   3.879  66.033  1.00  0.00     0.120 A 
HETATM    2  N2  UNL     1      49.111   4.141  66.213  1.00  0.00    -0.322 N 
ATOM      3  H2  UNL     1      49.705   4.356  65.413  1.00  0.00     0.169 HD
HETATM    4  C7  UNL     1      49.635   4.118  67.466  1.00  0.00     0.151 A 
HETATM    5  N3  UNL     1      48.865   3.836  68.523  1.00  0.00    -0.322 N 
ATOM      6  H3  UNL     1      49.279   3.825  69.455  1.00  0.00     0.169 HD
HETATM    7  C15 UNL     1      47.556   3.567  68.378  1.00  0.00     0.127 A 
HETATM    8  C16 UNL     1      46.990   3.580  67.132  1.00  0.00     0.087 A 
HETATM    9  C17 UNL     1      45.652   3.275  67.268  1.00  0.00     0.108 A 
HETATM   10  C19 UNL     1      45.399   3.072  68.623  1.00  0.00     0.044 A 
HETATM   11  C20 UNL     1      44.088   2.718  69.261  1.00  0.00     0.071 C 
HETATM   12  N4  UNL     1      46.565   3.255  69.266  1.00  0.00    -0.324 N 
ENDROOT
BRANCH   4  13
HETATM   13  S1  UNL     1      51.348   4.467  67.681  1.00  0.00    -0.064 SA
HETATM   14  C8  UNL     1      52.106   3.475  68.977  1.00  0.00     0.129 A 
HETATM   15  C9  UNL     1      53.551   3.862  69.061  1.00  0.00    -0.005 A 
HETATM   16  C10 UNL     1      54.413   3.271  69.972  1.00  0.00     0.044 A 
HETATM   17  C14 UNL     1      54.099   4.829  68.233  1.00  0.00     0.039 A 
HETATM   18 CL1  UNL     1      53.763   2.043  71.039  1.00  0.00    -0.084 Cl
HETATM   19  C11 UNL     1      55.746   3.615  70.064  1.00  0.00     0.048 A 
HETATM   20  C12 UNL     1      56.265   4.586  69.220  1.00  0.00     0.037 A 
HETATM   21 CL2  UNL     1      57.956   5.043  69.314  1.00  0.00    -0.084 Cl
HETATM   22  C13 UNL     1      55.428   5.188  68.307  1.00  0.00     0.048 A 
HETATM   23 CL3  UNL     1      52.996   5.573  67.079  1.00  0.00    -0.113 Cl
ENDBRANCH   4  13
BRANCH   1  24
HETATM   24  N1  UNL     1      47.296   3.892  64.877  1.00  0.00    -0.371 N 
ATOM     25  H1  UNL     1      46.778   4.733  64.618  1.00  0.00     0.161 HD
BRANCH  24  26
HETATM   26  C3  UNL     1      47.360   2.847  63.890  1.00  0.00     0.082 C 
BRANCH  26  27
HETATM   27  C2  UNL     1      46.102   2.902  63.093  1.00  0.00     0.021 C 
HETATM   28  C1  UNL     1      45.387   1.624  62.843  1.00  0.00     0.007 C 
ENDBRANCH  26  27
BRANCH  26  29
HETATM   29  C4  UNL     1      48.637   3.000  63.132  1.00  0.00     0.021 C 
HETATM   30  C5  UNL     1      48.541   3.140  61.656  1.00  0.00     0.007 C 
ENDBRANCH  26  29
ENDBRANCH  24  26
ENDBRANCH   1  24
BRANCH  12  31
HETATM   31  C21 UNL     1      46.832   3.159  70.687  1.00  0.00     0.243 C 
BRANCH  31  32
HETATM   32  C22 UNL     1      47.354   1.847  71.077  1.00  0.00     0.191 C 
HETATM   33  O2  UNL     1      48.501   1.753  71.573  1.00  0.00    -0.647 OA
HETATM   34  O3  UNL     1      46.576   0.718  70.894  1.00  0.00    -0.647 OA
ENDBRANCH  31  32
ENDBRANCH  12  31
BRANCH   9  35
HETATM   35  O1  UNL     1      44.721   3.184  66.251  1.00  0.00    -0.353 OA
HETATM   36  C18 UNL     1      43.848   4.201  65.867  1.00  0.00     0.210 C 
ENDBRANCH   9  35
TORSDOF 8
ENDMDL
MODEL 2
REMARK VINA RESULT: -6.886806605     10.628     13.978
REMARK  8 active torsions:
REMARK  status: ('A' for Active; 'I' for Inactive)
REMARK    1  A    between atoms: C2_2  and  C3_3 
REMARK    2  A    between atoms: C3_3  and  C4_4 
REMARK    3  A    between atoms: C3_3  and  N1_6 
REMARK    4  A    between atoms: N1_6  and  C6_8 
REMARK    5  A    between atoms: C7_11  and  S1_12 
REMARK    6  A    between atoms: C17_27  and  O1_28 
REMARK    7  A    between atoms: N4_32  and  C21_33 
REMARK    8  A    between atoms: C21_33  and  C22_34 
ROOT
HETATM    1  C6  UNL     1      52.353  -1.078  78.135  1.00  0.00     0.120 A 
HETATM    2  N2  UNL     1      51.120  -0.661  77.836  1.00  0.00    -0.322 N 
ATOM      3  H2  UNL     1      50.693  -0.921  76.947  1.00  0.00     0.169 HD
HETATM    4  C7  UNL     1      50.437   0.112  78.720  1.00  0.00     0.151 A 
HETATM    5  N3  UNL     1      50.987   0.460  79.889  1.00  0.00    -0.322 N 
ATOM      6  H3  UNL     1      50.457   1.041  80.539  1.00  0.00     0.169 HD
HETATM    7  C15 UNL     1      52.226   0.058  80.222  1.00  0.00     0.127 A 
HETATM    8  C16 UNL     1      52.947  -0.722  79.358  1.00  0.00     0.087 A 
HETATM    9  C17 UNL     1      54.168  -0.987  79.940  1.00  0.00     0.108 A 
HETATM   10  C19 UNL     1      54.192  -0.357  81.182  1.00  0.00     0.044 A 
HETATM   11  C20 UNL     1      55.310  -0.359  82.182  1.00  0.00     0.071 C 
HETATM   12  N4  UNL     1      53.009   0.264  81.323  1.00  0.00    -0.324 N 
ENDROOT
BRANCH   4  13
HETATM   13  S1  UNL     1      48.812   0.651  78.307  1.00  0.00    -0.064 SA
HETATM   14  C8  UNL     1      47.845  -0.618  77.475  1.00  0.00     0.129 A 
HETATM   15  C9  UNL     1      46.495  -0.041  77.179  1.00  0.00    -0.005 A 
HETATM   16  C10 UNL     1      45.511  -0.777  76.537  1.00  0.00     0.044 A 
HETATM   17  C14 UNL     1      46.160   1.258  77.531  1.00  0.00     0.039 A 
HETATM   18 CL1  UNL     1      45.890  -2.423  76.073  1.00  0.00    -0.084 Cl
HETATM   19  C11 UNL     1      44.262  -0.262  76.256  1.00  0.00     0.048 A 
HETATM   20  C12 UNL     1      43.958   1.041  76.622  1.00  0.00     0.037 A 
HETATM   21 CL2  UNL     1      42.377   1.721  76.278  1.00  0.00    -0.084 Cl
HETATM   22  C13 UNL     1      44.918   1.793  77.261  1.00  0.00     0.048 A 
HETATM   23 CL3  UNL     1      47.416   2.184  78.346  1.00  0.00    -0.113 Cl
ENDBRANCH   4  13
BRANCH   1  24
HETATM   24  N1  UNL     1      53.014  -1.800  77.331  1.00  0.00    -0.371 N 
ATOM     25  H1  UNL     1      53.870  -2.221  77.693  1.00  0.00     0.161 HD
BRANCH  24  26
HETATM   26  C3  UNL     1      52.686  -2.088  75.959  1.00  0.00     0.082 C 
BRANCH  26  27
HETATM   27  C2  UNL     1      53.406  -1.101  75.107  1.00  0.00     0.021 C 
HETATM   28  C1  UNL     1      52.587  -0.165  74.293  1.00  0.00     0.007 C 
ENDBRANCH  26  27
BRANCH  26  29
HETATM   29  C4  UNL     1      52.979  -3.529  75.704  1.00  0.00     0.021 C 
HETATM   30  C5  UNL     1      53.346  -3.914  74.316  1.00  0.00     0.007 C 
ENDBRANCH  26  29
ENDBRANCH  24  26
ENDBRANCH   1  24
BRANCH  12  31
HETATM   31  C21 UNL     1      52.538   1.059  82.441  1.00  0.00     0.243 C 
BRANCH  31  32
HETATM   32  C22 UNL     1      52.909   2.471  82.327  1.00  0.00     0.191 C 
HETATM   33  O2  UNL     1      53.836   2.933  83.032  1.00  0.00    -0.647 OA
HETATM   34  O3  UNL     1      52.230   3.288  81.440  1.00  0.00    -0.647 OA
ENDBRANCH  31  32
ENDBRANCH  12  31
BRANCH   9  35
HETATM   35  O1  UNL     1      55.191  -1.742  79.398  1.00  0.00    -0.353 OA
HETATM   36  C18 UNL     1      56.316  -1.226  78.754  1.00  0.00     0.210 C 
ENDBRANCH   9  35
TORSDOF 8
ENDMDL
MODEL 3
REMARK VINA RESULT: -6.807165460      4.552      6.520
REMARK  8 active torsions:
REMARK  status: ('A' for Active; 'I' for Inactive)
REMARK    1  A    between atoms: C2_2  and  C3_3 
REMARK    2  A    between atoms: C3_3  and  C4_4 
REMARK    3  A    between atoms: C3_3  and  N1_6 
REMARK    4  A    between atoms: N1_6  and  C6_8 
REMARK    5  A    between atoms: C7_11  and  S1_12 
REMARK    6  A    between atoms: C17_27  and  O1_28 
REMARK    7  A    between atoms: N4_32  and  C21_33 
REMARK    8  A    between atoms: C21_33  and  C22_34 
ROOT
HETATM    1  C6  UNL     1      45.654   0.371  69.713  1.00  0.00     0.120 A 
HETATM    2  N2  UNL     1      46.541   0.946  68.897  1.00  0.00    -0.322 N 
ATOM      3  H2  UNL     1      47.376   0.436  68.609  1.00  0.00     0.169 HD
HETATM    4  C7  UNL     1      46.329   2.212  68.454  1.00  0.00     0.151 A 
HETATM    5  N3  UNL     1      45.238   2.891  68.827  1.00  0.00    -0.322 N 
ATOM      6  H3  UNL     1      45.097   3.841  68.483  1.00  0.00     0.169 HD
HETATM    7  C15 UNL     1      44.325   2.344  69.647  1.00  0.00     0.127 A 
HETATM    8  C16 UNL     1      44.503   1.070  70.116  1.00  0.00     0.087 A 
HETATM    9  C17 UNL     1      43.432   0.760  70.926  1.00  0.00     0.108 A 
HETATM   10  C19 UNL     1      42.585   1.865  70.953  1.00  0.00     0.044 A 
HETATM   11  C20 UNL     1      41.291   2.003  71.699  1.00  0.00     0.071 C 
HETATM   12  N4  UNL     1      43.150   2.803  70.173  1.00  0.00    -0.324 N 
ENDROOT
BRANCH   4  13
HETATM   13  S1  UNL     1      47.512   2.951  67.378  1.00  0.00    -0.064 SA
HETATM   14  C8  UNL     1      47.625   4.735  67.584  1.00  0.00     0.129 A 
HETATM   15  C9  UNL     1      48.656   5.239  66.622  1.00  0.00    -0.005 A 
HETATM   16  C10 UNL     1      48.978   6.585  66.535  1.00  0.00     0.044 A 
HETATM   17  C14 UNL     1      49.341   4.388  65.769  1.00  0.00     0.039 A 
HETATM   18 CL1  UNL     1      48.137   7.699  67.595  1.00  0.00    -0.084 Cl
HETATM   19  C11 UNL     1      49.925   7.068  65.655  1.00  0.00     0.048 A 
HETATM   20  C12 UNL     1      50.593   6.190  64.815  1.00  0.00     0.037 A 
HETATM   21 CL2  UNL     1      51.802   6.776  63.687  1.00  0.00    -0.084 Cl
HETATM   22  C13 UNL     1      50.291   4.848  64.882  1.00  0.00     0.048 A 
HETATM   23 CL3  UNL     1      48.926   2.680  65.886  1.00  0.00    -0.113 Cl
ENDBRANCH   4  13
BRANCH   1  24
HETATM   24  N1  UNL     1      45.825  -0.808  70.143  1.00  0.00    -0.371 N 
ATOM     25  H1  UNL     1      45.979  -0.911  71.146  1.00  0.00     0.161 HD
BRANCH  24  26
HETATM   26  C3  UNL     1      45.826  -2.019  69.364  1.00  0.00     0.082 C 
BRANCH  26  27
HETATM   27  C2  UNL     1      46.763  -2.974  70.019  1.00  0.00     0.021 C 
HETATM   28  C1  UNL     1      48.051  -3.257  69.333  1.00  0.00     0.007 C 
ENDBRANCH  26  27
BRANCH  26  29
HETATM   29  C4  UNL     1      44.413  -2.472  69.208  1.00  0.00     0.021 C 
HETATM   30  C5  UNL     1      43.870  -3.385  70.249  1.00  0.00     0.007 C 
ENDBRANCH  26  29
ENDBRANCH  24  26
ENDBRANCH   1  24
BRANCH  12  31
HETATM   31  C21 UNL     1      42.662   4.135  69.872  1.00  0.00     0.243 C 
BRANCH  31  32
HETATM   32  C22 UNL     1      43.179   5.149  70.793  1.00  0.00     0.191 C 
HETATM   33  O2  UNL     1      42.642   5.307  71.914  1.00  0.00    -0.647 OA
HETATM   34  O3  UNL     1      44.259   5.929  70.418  1.00  0.00    -0.647 OA
ENDBRANCH  31  32
ENDBRANCH  12  31
BRANCH   9  35
HETATM   35  O1  UNL     1      43.225  -0.431  71.597  1.00  0.00    -0.353 OA
HETATM   36  C18 UNL     1      43.571  -0.677  72.925  1.00  0.00     0.210 C 
ENDBRANCH   9  35
TORSDOF 8
ENDMDL
MODEL 4
REMARK VINA RESULT: -6.790731253     12.065     15.329
REMARK  8 active torsions:
REMARK  status: ('A' for Active; 'I' for Inactive)
REMARK    1  A    between atoms: C2_2  and  C3_3 
REMARK    2  A    between atoms: C3_3  and  C4_4 
REMARK    3  A    between atoms: C3_3  and  N1_6 
REMARK    4  A    between atoms: N1_6  and  C6_8 
REMARK    5  A    between atoms: C7_11  and  S1_12 
REMARK    6  A    between atoms: C17_27  and  O1_28 
REMARK    7  A    between atoms: N4_32  and  C21_33 
REMARK    8  A    between atoms: C21_33  and  C22_34 
ROOT
HETATM    1  C6  UNL     1      51.628   2.224  82.007  1.00  0.00     0.120 A 
HETATM    2  N2  UNL     1      51.910   1.543  80.893  1.00  0.00    -0.322 N 
ATOM      3  H2  UNL     1      51.573   1.877  79.990  1.00  0.00     0.169 HD
HETATM    4  C7  UNL     1      52.647   0.405  80.967  1.00  0.00     0.151 A 
HETATM    5  N3  UNL     1      53.095  -0.043  82.146  1.00  0.00    -0.322 N 
ATOM      6  H3  UNL     1      53.647  -0.899  82.180  1.00  0.00     0.169 HD
HETATM    7  C15 UNL     1      52.829   0.617  83.286  1.00  0.00     0.127 A 
HETATM    8  C16 UNL     1      52.089   1.769  83.254  1.00  0.00     0.087 A 
HETATM    9  C17 UNL     1      51.968   2.235  84.545  1.00  0.00     0.108 A 
HETATM   10  C19 UNL     1      52.646   1.352  85.381  1.00  0.00     0.044 A 
HETATM   11  C20 UNL     1      52.794   1.440  86.871  1.00  0.00     0.071 C 
HETATM   12  N4  UNL     1      53.154   0.387  84.594  1.00  0.00    -0.324 N 
ENDROOT
BRANCH   4  13
HETATM   13  S1  UNL     1      53.008  -0.478  79.486  1.00  0.00    -0.064 SA
HETATM   14  C8  UNL     1      51.641  -0.470  78.317  1.00  0.00     0.129 A 
HETATM   15  C9  UNL     1      52.069  -1.246  77.110  1.00  0.00    -0.005 A 
HETATM   16  C10 UNL     1      51.230  -1.424  76.020  1.00  0.00     0.044 A 
HETATM   17  C14 UNL     1      53.326  -1.825  77.019  1.00  0.00     0.039 A 
HETATM   18 CL1  UNL     1      49.632  -0.709  76.091  1.00  0.00    -0.084 Cl
HETATM   19  C11 UNL     1      51.607  -2.136  74.900  1.00  0.00     0.048 A 
HETATM   20  C12 UNL     1      52.872  -2.703  74.840  1.00  0.00     0.037 A 
HETATM   21 CL2  UNL     1      53.379  -3.613  73.428  1.00  0.00    -0.084 Cl
HETATM   22  C13 UNL     1      53.724  -2.541  75.910  1.00  0.00     0.048 A 
HETATM   23 CL3  UNL     1      54.384  -1.593  78.407  1.00  0.00    -0.113 Cl
ENDBRANCH   4  13
BRANCH   1  24
HETATM   24  N1  UNL     1      50.943   3.289  81.969  1.00  0.00    -0.371 N 
ATOM     25  H1  UNL     1      50.804   3.774  82.855  1.00  0.00     0.161 HD
BRANCH  24  26
HETATM   26  C3  UNL     1      50.340   3.887  80.807  1.00  0.00     0.082 C 
BRANCH  26  27
HETATM   27  C2  UNL     1      48.968   3.321  80.669  1.00  0.00     0.021 C 
HETATM   28  C1  UNL     1      48.707   2.419  79.517  1.00  0.00     0.007 C 
ENDBRANCH  26  27
BRANCH  26  29
HETATM   29  C4  UNL     1      50.439   5.370  80.942  1.00  0.00     0.021 C 
HETATM   30  C5  UNL     1      49.487   6.192  80.150  1.00  0.00     0.007 C 
ENDBRANCH  26  29
ENDBRANCH  24  26
ENDBRANCH   1  24
BRANCH  12  31
HETATM   31  C21 UNL     1      53.943  -0.766  84.980  1.00  0.00     0.243 C 
BRANCH  31  32
HETATM   32  C22 UNL     1      55.368  -0.602  84.682  1.00  0.00     0.191 C 
HETATM   33  O2  UNL     1      55.829  -1.007  83.590  1.00  0.00    -0.647 OA
HETATM   34  O3  UNL     1      56.197  -0.000  85.613  1.00  0.00    -0.647 OA
ENDBRANCH  31  32
ENDBRANCH  12  31
BRANCH   9  35
HETATM   35  O1  UNL     1      51.297   3.374  84.950  1.00  0.00    -0.353 OA
HETATM   36  C18 UNL     1      49.988   3.407  85.430  1.00  0.00     0.210 C 
ENDBRANCH   9  35
TORSDOF 8
ENDMDL
MODEL 5
REMARK VINA RESULT: -6.758050374     10.232     13.587
REMARK  8 active torsions:
REMARK  status: ('A' for Active; 'I' for Inactive)
REMARK    1  A    between atoms: C2_2  and  C3_3 
REMARK    2  A    between atoms: C3_3  and  C4_4 
REMARK    3  A    between atoms: C3_3  and  N1_6 
REMARK    4  A    between atoms: N1_6  and  C6_8 
REMARK    5  A    between atoms: C7_11  and  S1_12 
REMARK    6  A    between atoms: C17_27  and  O1_28 
REMARK    7  A    between atoms: N4_32  and  C21_33 
REMARK    8  A    between atoms: C21_33  and  C22_34 
ROOT
HETATM    1  C6  UNL     1      51.490  -0.870  77.750  1.00  0.00     0.120 A 
HETATM    2  N2  UNL     1      50.258  -0.426  77.486  1.00  0.00    -0.322 N 
ATOM      3  H2  UNL     1      49.792  -0.695  76.619  1.00  0.00     0.169 HD
HETATM    4  C7  UNL     1      49.628   0.385  78.375  1.00  0.00     0.151 A 
HETATM    5  N3  UNL     1      50.230   0.745  79.515  1.00  0.00    -0.322 N 
ATOM      6  H3  UNL     1      49.739   1.354  80.169  1.00  0.00     0.169 HD
HETATM    7  C15 UNL     1      51.469   0.318  79.812  1.00  0.00     0.127 A 
HETATM    8  C16 UNL     1      52.137  -0.501  78.942  1.00  0.00     0.087 A 
HETATM    9  C17 UNL     1      53.371  -0.786  79.487  1.00  0.00     0.108 A 
HETATM   10  C19 UNL     1      53.457  -0.128  80.711  1.00  0.00     0.044 A 
HETATM   11  C20 UNL     1      54.610  -0.137  81.671  1.00  0.00     0.071 C 
HETATM   12  N4  UNL     1      52.296   0.528  80.880  1.00  0.00    -0.324 N 
ENDROOT
BRANCH   4  13
HETATM   13  S1  UNL     1      48.004   0.958  78.007  1.00  0.00    -0.064 SA
HETATM   14  C8  UNL     1      47.200  -0.003  76.716  1.00  0.00     0.129 A 
HETATM   15  C9  UNL     1      45.837   0.579  76.497  1.00  0.00    -0.005 A 
HETATM   16  C10 UNL     1      44.962   0.056  75.558  1.00  0.00     0.044 A 
HETATM   17  C14 UNL     1      45.381   1.669  77.222  1.00  0.00     0.039 A 
HETATM   18 CL1  UNL     1      45.496  -1.323  74.618  1.00  0.00    -0.084 Cl
HETATM   19  C11 UNL     1      43.703   0.579  75.342  1.00  0.00     0.048 A 
HETATM   20  C12 UNL     1      43.276   1.670  76.085  1.00  0.00     0.037 A 
HETATM   21 CL2  UNL     1      41.680   2.355  75.833  1.00  0.00    -0.084 Cl
HETATM   22  C13 UNL     1      44.127   2.208  77.024  1.00  0.00     0.048 A 
HETATM   23 CL3  UNL     1      46.499   2.327  78.413  1.00  0.00    -0.113 Cl
ENDBRANCH   4  13
BRANCH   1  24
HETATM   24  N1  UNL     1      52.102  -1.627  76.940  1.00  0.00    -0.371 N 
ATOM     25  H1  UNL     1      52.661  -2.376  77.350  1.00  0.00     0.161 HD
BRANCH  24  26
HETATM   26  C3  UNL     1      52.093  -1.542  75.504  1.00  0.00     0.082 C 
BRANCH  26  27
HETATM   27  C2  UNL     1      53.343  -0.847  75.086  1.00  0.00     0.021 C 
HETATM   28  C1  UNL     1      53.581  -0.672  73.629  1.00  0.00     0.007 C 
ENDBRANCH  26  27
BRANCH  26  29
HETATM   29  C4  UNL     1      51.880  -2.915  74.958  1.00  0.00     0.021 C 
HETATM   30  C5  UNL     1      52.843  -3.969  75.368  1.00  0.00     0.007 C 
ENDBRANCH  26  29
ENDBRANCH  24  26
ENDBRANCH   1  24
BRANCH  12  31
HETATM   31  C21 UNL     1      51.887   1.361  81.994  1.00  0.00     0.243 C 
BRANCH  31  32
HETATM   32  C22 UNL     1      52.487   2.696  81.953  1.00  0.00     0.191 C 
HETATM   33  O2  UNL     1      51.937   3.608  81.292  1.00  0.00    -0.647 OA
HETATM   34  O3  UNL     1      53.660   2.942  82.644  1.00  0.00    -0.647 OA
ENDBRANCH  31  32
ENDBRANCH  12  31
BRANCH   9  35
HETATM   35  O1  UNL     1      54.354  -1.580  78.927  1.00  0.00    -0.353 OA
HETATM   36  C18 UNL     1      55.460  -1.111  78.219  1.00  0.00     0.210 C 
ENDBRANCH   9  35
TORSDOF 8
ENDMDL
