MODEL 1
REMARK VINA RESULT: -9.488316216      0.000      0.000
REMARK  13 active torsions:
REMARK  status: ('A' for Active; 'I' for Inactive)
REMARK    1  A    between atoms: C5_5  and  C6_6 
REMARK    2  A    between atoms: C8_9  and  O2_10 
REMARK    3  A    between atoms: C14_17  and  C15_18 
REMARK    4  A    between atoms: C16_19  and  C17_20 
REMARK    5  A    between atoms: C17_20  and  C18_21 
REMARK    6  A    between atoms: C18_21  and  C19_22 
REMARK    7  A    between atoms: C21_24  and  C22_25 
REMARK    8  A    between atoms: C22_25  and  O4_27 
REMARK    9  A    between atoms: O4_27  and  C23_28 
REMARK   10  A    between atoms: C23_28  and  C24_29 
REMARK   11  A    between atoms: C24_29  and  C25_30 
REMARK   12  A    between atoms: C25_30  and  C26_31 
REMARK   13  A    between atoms: C26_31  and  C27_32 
ROOT
HETATM    1  C18 UNL     1      53.281  -2.153  75.566  1.00  0.00     0.017 C 
ENDROOT
BRANCH   1   2
HETATM    2  C17 UNL     1      52.342  -2.140  76.412  1.00  0.00     0.001 C 
BRANCH   2   3
HETATM    3  C16 UNL     1      51.848  -1.057  77.220  1.00  0.00    -0.004 C 
HETATM    4  C15 UNL     1      52.147  -0.859  78.509  1.00  0.00    -0.021 C 
BRANCH   4   5
HETATM    5  C14 UNL     1      53.015  -1.700  79.307  1.00  0.00     0.016 C 
HETATM    6  C2  UNL     1      52.547  -1.620  80.746  1.00  0.00    -0.033 C 
HETATM    7  C1  UNL     1      51.080  -1.216  80.785  1.00  0.00     0.016 C 
HETATM    8  C3  UNL     1      52.709  -2.968  81.413  1.00  0.00     0.011 C 
HETATM    9  C10 UNL     1      53.317  -0.670  81.597  1.00  0.00     0.003 C 
HETATM   10  C4  UNL     1      53.661  -2.795  82.555  1.00  0.00     0.010 C 
HETATM   11  C5  UNL     1      54.348  -1.469  82.367  1.00  0.00     0.025 C 
HETATM   12  C11 UNL     1      53.939   0.470  80.862  1.00  0.00     0.006 C 
HETATM   13  C12 UNL     1      54.776   0.066  79.694  1.00  0.00     0.001 C 
HETATM   14  C13 UNL     1      54.478  -1.296  79.165  1.00  0.00     0.009 C 
BRANCH  11  15
HETATM   15  C6  UNL     1      54.562  -0.756  83.672  1.00  0.00    -0.026 A 
HETATM   16  C7  UNL     1      55.724  -0.635  84.370  1.00  0.00     0.152 A 
HETATM   17  O1  UNL     1      55.492   0.068  85.469  1.00  0.00    -0.300 OA
HETATM   18  C8  UNL     1      54.233   0.406  85.511  1.00  0.00     0.183 A 
HETATM   19  C9  UNL     1      53.590  -0.087  84.398  1.00  0.00     0.073 A 
BRANCH  18  20
HETATM   20  O2  UNL     1      53.630   1.150  86.520  1.00  0.00    -0.341 OA
ATOM     21  H2  UNL     1      52.828   0.916  86.972  1.00  0.00     0.220 HD
ENDBRANCH  18  20
ENDBRANCH  11  15
ENDBRANCH   4   5
ENDBRANCH   2   3
ENDBRANCH   1   2
BRANCH   1  22
HETATM   22  C19 UNL     1      53.405  -1.888  74.168  1.00  0.00     0.036 A 
HETATM   23  C20 UNL     1      53.571  -0.533  73.757  1.00  0.00     0.054 A 
HETATM   24  C21 UNL     1      53.589  -0.133  72.457  1.00  0.00     0.124 A 
HETATM   25  N1  UNL     1      53.441  -1.082  71.528  1.00  0.00    -0.292 N 
HETATM   26  N2  UNL     1      53.281  -2.352  71.857  1.00  0.00    -0.265 N 
ATOM     27  H1  UNL     1      53.450  -0.821  70.543  1.00  0.00     0.187 HD
HETATM   28  C28 UNL     1      53.258  -2.788  73.158  1.00  0.00     0.270 A 
ATOM     29  H2  UNL     1      53.171  -3.038  71.111  1.00  0.00     0.190 HD
HETATM   30  O5  UNL     1      53.082  -4.037  73.305  1.00  0.00    -0.266 OA
BRANCH  24  31
HETATM   31  C22 UNL     1      53.762   1.282  72.041  1.00  0.00     0.311 C 
HETATM   32  O3  UNL     1      54.032   2.074  72.972  1.00  0.00    -0.258 OA
BRANCH  31  33
HETATM   33  O4  UNL     1      53.657   1.734  70.828  1.00  0.00    -0.316 OA
BRANCH  33  34
HETATM   34  C23 UNL     1      53.263   2.670  69.950  1.00  0.00     0.183 C 
BRANCH  34  35
HETATM   35  C24 UNL     1      54.202   3.685  69.465  1.00  0.00     0.054 C 
BRANCH  35  36
HETATM   36  C25 UNL     1      55.529   3.818  70.031  1.00  0.00    -0.020 C 
BRANCH  36  37
HETATM   37  C26 UNL     1      56.625   4.343  69.240  1.00  0.00     0.084 C 
BRANCH  37  38
HETATM   38  C27 UNL     1      57.219   5.661  69.238  1.00  0.00     0.407 C 
HETATM   39  F1  UNL     1      56.497   6.604  69.899  1.00  0.00    -0.167 F 
HETATM   40  F2  UNL     1      58.567   5.798  69.435  1.00  0.00    -0.167 F 
HETATM   41  F3  UNL     1      57.146   6.068  67.813  1.00  0.00    -0.167 F 
ENDBRANCH  37  38
ENDBRANCH  36  37
ENDBRANCH  35  36
ENDBRANCH  34  35
ENDBRANCH  33  34
ENDBRANCH  31  33
ENDBRANCH  24  31
ENDBRANCH   1  22
TORSDOF 13
ENDMDL
MODEL 2
REMARK VINA RESULT: -9.418658296      1.261      2.301
REMARK  13 active torsions:
REMARK  status: ('A' for Active; 'I' for Inactive)
REMARK    1  A    between atoms: C5_5  and  C6_6 
REMARK    2  A    between atoms: C8_9  and  O2_10 
REMARK    3  A    between atoms: C14_17  and  C15_18 
REMARK    4  A    between atoms: C16_19  and  C17_20 
REMARK    5  A    between atoms: C17_20  and  C18_21 
REMARK    6  A    between atoms: C18_21  and  C19_22 
REMARK    7  A    between atoms: C21_24  and  C22_25 
REMARK    8  A    between atoms: C22_25  and  O4_27 
REMARK    9  A    between atoms: O4_27  and  C23_28 
REMARK   10  A    between atoms: C23_28  and  C24_29 
REMARK   11  A    between atoms: C24_29  and  C25_30 
REMARK   12  A    between atoms: C25_30  and  C26_31 
REMARK   13  A    between atoms: C26_31  and  C27_32 
ROOT
HETATM    1  C18 UNL     1      51.579  -0.657  75.055  1.00  0.00     0.017 C 
ENDROOT
BRANCH   1   2
HETATM    2  C17 UNL     1      51.742  -1.027  76.253  1.00  0.00     0.001 C 
BRANCH   2   3
HETATM    3  C16 UNL     1      52.799  -1.808  76.837  1.00  0.00    -0.004 C 
HETATM    4  C15 UNL     1      53.235  -1.695  78.097  1.00  0.00    -0.021 C 
BRANCH   4   5
HETATM    5  C14 UNL     1      52.717  -0.769  79.083  1.00  0.00     0.016 C 
HETATM    6  C2  UNL     1      53.885  -0.259  79.903  1.00  0.00    -0.033 C 
HETATM    7  C1  UNL     1      55.171  -0.392  79.098  1.00  0.00     0.016 C 
HETATM    8  C3  UNL     1      53.667   1.197  80.253  1.00  0.00     0.011 C 
HETATM    9  C10 UNL     1      54.075  -0.949  81.208  1.00  0.00     0.003 C 
HETATM   10  C4  UNL     1      53.614   1.298  81.746  1.00  0.00     0.010 C 
HETATM   11  C5  UNL     1      53.432  -0.096  82.282  1.00  0.00     0.025 C 
HETATM   12  C11 UNL     1      53.584  -2.357  81.252  1.00  0.00     0.006 C 
HETATM   13  C12 UNL     1      52.169  -2.529  80.807  1.00  0.00     0.001 C 
HETATM   14  C13 UNL     1      51.651  -1.417  79.960  1.00  0.00     0.009 C 
BRANCH  11  15
HETATM   15  C6  UNL     1      54.216  -0.323  83.542  1.00  0.00    -0.026 A 
HETATM   16  C7  UNL     1      53.729  -0.570  84.790  1.00  0.00     0.152 A 
HETATM   17  O1  UNL     1      54.747  -0.710  85.626  1.00  0.00    -0.300 OA
HETATM   18  C8  UNL     1      55.868  -0.565  84.976  1.00  0.00     0.183 A 
HETATM   19  C9  UNL     1      55.597  -0.317  83.649  1.00  0.00     0.073 A 
BRANCH  18  20
HETATM   20  O2  UNL     1      57.140  -0.648  85.531  1.00  0.00    -0.341 OA
ATOM     21  H2  UNL     1      57.786   0.048  85.534  1.00  0.00     0.220 HD
ENDBRANCH  18  20
ENDBRANCH  11  15
ENDBRANCH   4   5
ENDBRANCH   2   3
ENDBRANCH   1   2
BRANCH   1  22
HETATM   22  C19 UNL     1      52.333  -0.738  73.845  1.00  0.00     0.036 A 
HETATM   23  C20 UNL     1      52.699   0.480  73.202  1.00  0.00     0.054 A 
HETATM   24  C21 UNL     1      53.317   0.542  71.992  1.00  0.00     0.124 A 
HETATM   25  N1  UNL     1      53.587  -0.620  71.389  1.00  0.00    -0.292 N 
HETATM   26  N2  UNL     1      53.267  -1.776  71.942  1.00  0.00    -0.265 N 
ATOM     27  H1  UNL     1      54.051  -0.614  70.482  1.00  0.00     0.187 HD
HETATM   28  C28 UNL     1      52.643  -1.873  73.160  1.00  0.00     0.270 A 
ATOM     29  H2  UNL     1      53.494  -2.635  71.441  1.00  0.00     0.190 HD
HETATM   30  O5  UNL     1      52.391  -3.057  73.545  1.00  0.00    -0.266 OA
BRANCH  24  31
HETATM   31  C22 UNL     1      53.693   1.817  71.332  1.00  0.00     0.311 C 
HETATM   32  O3  UNL     1      54.476   2.539  71.990  1.00  0.00    -0.258 OA
BRANCH  31  33
HETATM   33  O4  UNL     1      53.281   2.219  70.167  1.00  0.00    -0.316 OA
BRANCH  33  34
HETATM   34  C23 UNL     1      52.336   2.734  69.365  1.00  0.00     0.183 C 
BRANCH  34  35
HETATM   35  C24 UNL     1      52.662   3.161  68.002  1.00  0.00     0.054 C 
BRANCH  35  36
HETATM   36  C25 UNL     1      53.271   4.449  67.739  1.00  0.00    -0.020 C 
BRANCH  36  37
HETATM   37  C26 UNL     1      54.712   4.596  67.698  1.00  0.00     0.084 C 
BRANCH  37  38
HETATM   38  C27 UNL     1      55.619   5.124  68.692  1.00  0.00     0.407 C 
HETATM   39  F1  UNL     1      56.754   5.671  68.184  1.00  0.00    -0.167 F 
HETATM   40  F2  UNL     1      55.123   5.834  69.753  1.00  0.00    -0.167 F 
HETATM   41  F3  UNL     1      56.081   3.912  69.414  1.00  0.00    -0.167 F 
ENDBRANCH  37  38
ENDBRANCH  36  37
ENDBRANCH  35  36
ENDBRANCH  34  35
ENDBRANCH  33  34
ENDBRANCH  31  33
ENDBRANCH  24  31
ENDBRANCH   1  22
TORSDOF 13
ENDMDL
MODEL 3
REMARK VINA RESULT: -9.348747258      1.537      1.896
REMARK  13 active torsions:
REMARK  status: ('A' for Active; 'I' for Inactive)
REMARK    1  A    between atoms: C5_5  and  C6_6 
REMARK    2  A    between atoms: C8_9  and  O2_10 
REMARK    3  A    between atoms: C14_17  and  C15_18 
REMARK    4  A    between atoms: C16_19  and  C17_20 
REMARK    5  A    between atoms: C17_20  and  C18_21 
REMARK    6  A    between atoms: C18_21  and  C19_22 
REMARK    7  A    between atoms: C21_24  and  C22_25 
REMARK    8  A    between atoms: C22_25  and  O4_27 
REMARK    9  A    between atoms: O4_27  and  C23_28 
REMARK   10  A    between atoms: C23_28  and  C24_29 
REMARK   11  A    between atoms: C24_29  and  C25_30 
REMARK   12  A    between atoms: C25_30  and  C26_31 
REMARK   13  A    between atoms: C26_31  and  C27_32 
ROOT
HETATM    1  C18 UNL     1      53.366  -2.505  75.282  1.00  0.00     0.017 C 
ENDROOT
BRANCH   1   2
HETATM    2  C17 UNL     1      52.530  -2.467  76.230  1.00  0.00     0.001 C 
BRANCH   2   3
HETATM    3  C16 UNL     1      51.995  -1.335  76.938  1.00  0.00    -0.004 C 
HETATM    4  C15 UNL     1      52.249  -1.036  78.217  1.00  0.00    -0.021 C 
BRANCH   4   5
HETATM    5  C14 UNL     1      53.104  -1.800  79.103  1.00  0.00     0.016 C 
HETATM    6  C2  UNL     1      52.553  -1.671  80.508  1.00  0.00    -0.033 C 
HETATM    7  C1  UNL     1      51.070  -1.328  80.446  1.00  0.00     0.016 C 
HETATM    8  C3  UNL     1      52.729  -2.977  81.250  1.00  0.00     0.011 C 
HETATM    9  C10 UNL     1      53.235  -0.650  81.350  1.00  0.00     0.003 C 
HETATM   10  C4  UNL     1      53.607  -2.710  82.432  1.00  0.00     0.010 C 
HETATM   11  C5  UNL     1      54.251  -1.367  82.216  1.00  0.00     0.025 C 
HETATM   12  C11 UNL     1      53.851   0.479  80.595  1.00  0.00     0.006 C 
HETATM   13  C12 UNL     1      54.769   0.055  79.496  1.00  0.00     0.001 C 
HETATM   14  C13 UNL     1      54.555  -1.342  79.020  1.00  0.00     0.009 C 
BRANCH  11  15
HETATM   15  C6  UNL     1      54.362  -0.583  83.492  1.00  0.00    -0.026 A 
HETATM   16  C7  UNL     1      55.455  -0.456  84.295  1.00  0.00     0.152 A 
HETATM   17  O1  UNL     1      55.142   0.319  85.324  1.00  0.00    -0.300 OA
HETATM   18  C8  UNL     1      53.899   0.698  85.220  1.00  0.00     0.183 A 
HETATM   19  C9  UNL     1      53.350   0.158  84.078  1.00  0.00     0.073 A 
BRANCH  18  20
HETATM   20  O2  UNL     1      53.227   1.519  86.119  1.00  0.00    -0.341 OA
ATOM     21  H2  UNL     1      52.378   1.919  85.973  1.00  0.00     0.220 HD
ENDBRANCH  18  20
ENDBRANCH  11  15
ENDBRANCH   4   5
ENDBRANCH   2   3
ENDBRANCH   1   2
BRANCH   1  22
HETATM   22  C19 UNL     1      53.473  -1.917  73.985  1.00  0.00     0.036 A 
HETATM   23  C20 UNL     1      53.681  -0.509  73.904  1.00  0.00     0.054 A 
HETATM   24  C21 UNL     1      53.689   0.190  72.738  1.00  0.00     0.124 A 
HETATM   25  N1  UNL     1      53.487  -0.504  71.614  1.00  0.00    -0.292 N 
HETATM   26  N2  UNL     1      53.286  -1.810  71.634  1.00  0.00    -0.265 N 
ATOM     27  H1  UNL     1      53.487  -0.015  70.720  1.00  0.00     0.187 HD
HETATM   28  C28 UNL     1      53.271  -2.543  72.794  1.00  0.00     0.270 A 
ATOM     29  H2  UNL     1      53.135  -2.293  70.749  1.00  0.00     0.190 HD
HETATM   30  O5  UNL     1      53.052  -3.785  72.643  1.00  0.00    -0.266 OA
BRANCH  24  31
HETATM   31  C22 UNL     1      53.907   1.657  72.667  1.00  0.00     0.311 C 
HETATM   32  O3  UNL     1      53.738   2.267  73.747  1.00  0.00    -0.258 OA
BRANCH  31  33
HETATM   33  O4  UNL     1      54.247   2.322  71.605  1.00  0.00    -0.316 OA
BRANCH  33  34
HETATM   34  C23 UNL     1      53.969   2.831  70.394  1.00  0.00     0.183 C 
BRANCH  34  35
HETATM   35  C24 UNL     1      52.878   2.282  69.584  1.00  0.00     0.054 C 
BRANCH  35  36
HETATM   36  C25 UNL     1      52.051   3.133  68.753  1.00  0.00    -0.020 C 
BRANCH  36  37
HETATM   37  C26 UNL     1      52.540   3.637  67.484  1.00  0.00     0.084 C 
BRANCH  37  38
HETATM   38  C27 UNL     1      53.163   4.902  67.168  1.00  0.00     0.407 C 
HETATM   39  F1  UNL     1      52.791   5.429  65.972  1.00  0.00    -0.167 F 
HETATM   40  F2  UNL     1      53.296   5.855  68.142  1.00  0.00    -0.167 F 
HETATM   41  F3  UNL     1      54.593   4.546  66.989  1.00  0.00    -0.167 F 
ENDBRANCH  37  38
ENDBRANCH  36  37
ENDBRANCH  35  36
ENDBRANCH  34  35
ENDBRANCH  33  34
ENDBRANCH  31  33
ENDBRANCH  24  31
ENDBRANCH   1  22
TORSDOF 13
ENDMDL
MODEL 4
REMARK VINA RESULT: -9.312745753      0.902      1.280
REMARK  13 active torsions:
REMARK  status: ('A' for Active; 'I' for Inactive)
REMARK    1  A    between atoms: C5_5  and  C6_6 
REMARK    2  A    between atoms: C8_9  and  O2_10 
REMARK    3  A    between atoms: C14_17  and  C15_18 
REMARK    4  A    between atoms: C16_19  and  C17_20 
REMARK    5  A    between atoms: C17_20  and  C18_21 
REMARK    6  A    between atoms: C18_21  and  C19_22 
REMARK    7  A    between atoms: C21_24  and  C22_25 
REMARK    8  A    between atoms: C22_25  and  O4_27 
REMARK    9  A    between atoms: O4_27  and  C23_28 
REMARK   10  A    between atoms: C23_28  and  C24_29 
REMARK   11  A    between atoms: C24_29  and  C25_30 
REMARK   12  A    between atoms: C25_30  and  C26_31 
REMARK   13  A    between atoms: C26_31  and  C27_32 
ROOT
HETATM    1  C18 UNL     1      53.068  -2.065  75.740  1.00  0.00     0.017 C 
ENDROOT
BRANCH   1   2
HETATM    2  C17 UNL     1      53.750  -1.891  76.791  1.00  0.00     0.001 C 
BRANCH   2   3
HETATM    3  C16 UNL     1      54.315  -0.682  77.329  1.00  0.00    -0.004 C 
HETATM    4  C15 UNL     1      54.615  -0.479  78.617  1.00  0.00    -0.021 C 
BRANCH   4   5
HETATM    5  C14 UNL     1      54.423  -1.439  79.684  1.00  0.00     0.016 C 
HETATM    6  C2  UNL     1      53.685  -0.742  80.809  1.00  0.00    -0.033 C 
HETATM    7  C1  UNL     1      52.910   0.446  80.255  1.00  0.00     0.016 C 
HETATM    8  C3  UNL     1      52.717  -1.705  81.460  1.00  0.00     0.011 C 
HETATM    9  C10 UNL     1      54.556  -0.258  81.916  1.00  0.00     0.003 C 
HETATM   10  C4  UNL     1      53.122  -1.853  82.894  1.00  0.00     0.010 C 
HETATM   11  C5  UNL     1      54.511  -1.289  83.025  1.00  0.00     0.025 C 
HETATM   12  C11 UNL     1      55.956   0.065  81.519  1.00  0.00     0.006 C 
HETATM   13  C12 UNL     1      56.657  -1.031  80.785  1.00  0.00     0.001 C 
HETATM   14  C13 UNL     1      55.746  -2.030  80.156  1.00  0.00     0.009 C 
BRANCH  11  15
HETATM   15  C6  UNL     1      54.697  -0.544  84.316  1.00  0.00    -0.026 A 
HETATM   16  C7  UNL     1      55.718  -0.674  85.209  1.00  0.00     0.152 A 
HETATM   17  O1  UNL     1      55.511   0.161  86.217  1.00  0.00    -0.300 OA
HETATM   18  C8  UNL     1      54.406   0.822  86.015  1.00  0.00     0.183 A 
HETATM   19  C9  UNL     1      53.843   0.419  84.825  1.00  0.00     0.073 A 
BRANCH  18  20
HETATM   20  O2  UNL     1      53.875   1.786  86.866  1.00  0.00    -0.341 OA
ATOM     21  H2  UNL     1      52.957   1.873  87.096  1.00  0.00     0.220 HD
ENDBRANCH  18  20
ENDBRANCH  11  15
ENDBRANCH   4   5
ENDBRANCH   2   3
ENDBRANCH   1   2
BRANCH   1  22
HETATM   22  C19 UNL     1      53.272  -1.868  74.341  1.00  0.00     0.036 A 
HETATM   23  C20 UNL     1      53.462  -0.535  73.874  1.00  0.00     0.054 A 
HETATM   24  C21 UNL     1      53.554  -0.198  72.560  1.00  0.00     0.124 A 
HETATM   25  N1  UNL     1      53.459  -1.192  71.671  1.00  0.00    -0.292 N 
HETATM   26  N2  UNL     1      53.281  -2.444  72.052  1.00  0.00    -0.265 N 
ATOM     27  H1  UNL     1      53.526  -0.979  70.677  1.00  0.00     0.187 HD
HETATM   28  C28 UNL     1      53.183  -2.816  73.369  1.00  0.00     0.270 A 
ATOM     29  H2  UNL     1      53.214  -3.167  71.335  1.00  0.00     0.190 HD
HETATM   30  O5  UNL     1      52.999  -4.058  73.566  1.00  0.00    -0.266 OA
BRANCH  24  31
HETATM   31  C22 UNL     1      53.751   1.195  72.086  1.00  0.00     0.311 C 
HETATM   32  O3  UNL     1      54.032   2.021  72.984  1.00  0.00    -0.258 OA
BRANCH  31  33
HETATM   33  O4  UNL     1      53.656   1.598  70.855  1.00  0.00    -0.316 OA
BRANCH  33  34
HETATM   34  C23 UNL     1      53.231   2.476  69.932  1.00  0.00     0.183 C 
BRANCH  34  35
HETATM   35  C24 UNL     1      54.138   3.492  69.392  1.00  0.00     0.054 C 
BRANCH  35  36
HETATM   36  C25 UNL     1      55.387   3.818  70.050  1.00  0.00    -0.020 C 
BRANCH  36  37
HETATM   37  C26 UNL     1      56.556   4.197  69.281  1.00  0.00     0.084 C 
BRANCH  37  38
HETATM   38  C27 UNL     1      57.134   5.502  69.055  1.00  0.00     0.407 C 
HETATM   39  F1  UNL     1      58.342   5.693  69.647  1.00  0.00    -0.167 F 
HETATM   40  F2  UNL     1      57.064   6.068  67.809  1.00  0.00    -0.167 F 
HETATM   41  F3  UNL     1      56.216   6.415  69.780  1.00  0.00    -0.167 F 
ENDBRANCH  37  38
ENDBRANCH  36  37
ENDBRANCH  35  36
ENDBRANCH  34  35
ENDBRANCH  33  34
ENDBRANCH  31  33
ENDBRANCH  24  31
ENDBRANCH   1  22
TORSDOF 13
ENDMDL
MODEL 5
REMARK VINA RESULT: -9.307072243      1.513      1.851
REMARK  13 active torsions:
REMARK  status: ('A' for Active; 'I' for Inactive)
REMARK    1  A    between atoms: C5_5  and  C6_6 
REMARK    2  A    between atoms: C8_9  and  O2_10 
REMARK    3  A    between atoms: C14_17  and  C15_18 
REMARK    4  A    between atoms: C16_19  and  C17_20 
REMARK    5  A    between atoms: C17_20  and  C18_21 
REMARK    6  A    between atoms: C18_21  and  C19_22 
REMARK    7  A    between atoms: C21_24  and  C22_25 
REMARK    8  A    between atoms: C22_25  and  O4_27 
REMARK    9  A    between atoms: O4_27  and  C23_28 
REMARK   10  A    between atoms: C23_28  and  C24_29 
REMARK   11  A    between atoms: C24_29  and  C25_30 
REMARK   12  A    between atoms: C25_30  and  C26_31 
REMARK   13  A    between atoms: C26_31  and  C27_32 
ROOT
HETATM    1  C18 UNL     1      53.258  -2.423  75.224  1.00  0.00     0.017 C 
ENDROOT
BRANCH   1   2
HETATM    2  C17 UNL     1      52.376  -2.379  76.129  1.00  0.00     0.001 C 
BRANCH   2   3
HETATM    3  C16 UNL     1      51.882  -1.253  76.876  1.00  0.00    -0.004 C 
HETATM    4  C15 UNL     1      52.203  -0.968  78.143  1.00  0.00    -0.021 C 
BRANCH   4   5
HETATM    5  C14 UNL     1      53.101  -1.743  78.975  1.00  0.00     0.016 C 
HETATM    6  C2  UNL     1      52.584  -1.684  80.398  1.00  0.00    -0.033 C 
HETATM    7  C1  UNL     1      51.092  -1.379  80.389  1.00  0.00     0.016 C 
HETATM    8  C3  UNL     1      52.814  -3.014  81.082  1.00  0.00     0.011 C 
HETATM    9  C10 UNL     1      53.262  -0.679  81.263  1.00  0.00     0.003 C 
HETATM   10  C4  UNL     1      53.716  -2.770  82.251  1.00  0.00     0.010 C 
HETATM   11  C5  UNL     1      54.319  -1.403  82.072  1.00  0.00     0.025 C 
HETATM   12  C11 UNL     1      53.829   0.494  80.537  1.00  0.00     0.006 C 
HETATM   13  C12 UNL     1      54.727   0.138  79.399  1.00  0.00     0.001 C 
HETATM   14  C13 UNL     1      54.537  -1.244  78.873  1.00  0.00     0.009 C 
BRANCH  11  15
HETATM   15  C6  UNL     1      54.445  -0.667  83.376  1.00  0.00    -0.026 A 
HETATM   16  C7  UNL     1      55.562  -0.518  84.139  1.00  0.00     0.152 A 
HETATM   17  O1  UNL     1      55.255   0.197  85.212  1.00  0.00    -0.300 OA
HETATM   18  C8  UNL     1      53.991   0.516  85.174  1.00  0.00     0.183 A 
HETATM   19  C9  UNL     1      53.422  -0.004  84.033  1.00  0.00     0.073 A 
BRANCH  18  20
HETATM   20  O2  UNL     1      53.318   1.264  86.134  1.00  0.00    -0.341 OA
ATOM     21  H2  UNL     1      52.874   0.912  86.896  1.00  0.00     0.220 HD
ENDBRANCH  18  20
ENDBRANCH  11  15
ENDBRANCH   4   5
ENDBRANCH   2   3
ENDBRANCH   1   2
BRANCH   1  22
HETATM   22  C19 UNL     1      53.412  -1.873  73.915  1.00  0.00     0.036 A 
HETATM   23  C20 UNL     1      53.648  -0.472  73.802  1.00  0.00     0.054 A 
HETATM   24  C21 UNL     1      53.702   0.194  72.618  1.00  0.00     0.124 A 
HETATM   25  N1  UNL     1      53.520  -0.527  71.508  1.00  0.00    -0.292 N 
HETATM   26  N2  UNL     1      53.295  -1.828  71.558  1.00  0.00    -0.265 N 
ATOM     27  H1  UNL     1      53.555  -0.063  70.601  1.00  0.00     0.187 HD
HETATM   28  C28 UNL     1      53.234  -2.529  72.736  1.00  0.00     0.270 A 
ATOM     29  H2  UNL     1      53.162  -2.334  70.683  1.00  0.00     0.190 HD
HETATM   30  O5  UNL     1      52.997  -3.771  72.613  1.00  0.00    -0.266 OA
BRANCH  24  31
HETATM   31  C22 UNL     1      53.949   1.654  72.514  1.00  0.00     0.311 C 
HETATM   32  O3  UNL     1      53.633   2.315  73.529  1.00  0.00    -0.258 OA
BRANCH  31  33
HETATM   33  O4  UNL     1      54.448   2.267  71.483  1.00  0.00    -0.316 OA
BRANCH  33  34
HETATM   34  C23 UNL     1      54.310   3.014  70.376  1.00  0.00     0.183 C 
BRANCH  34  35
HETATM   35  C24 UNL     1      55.374   3.929  69.953  1.00  0.00     0.054 C 
BRANCH  35  36
HETATM   36  C25 UNL     1      55.368   4.539  68.639  1.00  0.00    -0.020 C 
BRANCH  36  37
HETATM   37  C26 UNL     1      54.252   4.346  67.734  1.00  0.00     0.084 C 
BRANCH  37  38
HETATM   38  C27 UNL     1      53.120   5.203  67.462  1.00  0.00     0.407 C 
HETATM   39  F1  UNL     1      53.181   6.422  68.058  1.00  0.00    -0.167 F 
HETATM   40  F2  UNL     1      52.604   5.263  66.195  1.00  0.00    -0.167 F 
HETATM   41  F3  UNL     1      51.996   4.512  68.142  1.00  0.00    -0.167 F 
ENDBRANCH  37  38
ENDBRANCH  36  37
ENDBRANCH  35  36
ENDBRANCH  34  35
ENDBRANCH  33  34
ENDBRANCH  31  33
ENDBRANCH  24  31
ENDBRANCH   1  22
TORSDOF 13
ENDMDL
