MODEL 1
REMARK VINA RESULT: -11.083612468      0.000      0.000
REMARK  13 active torsions:
REMARK  status: ('A' for Active; 'I' for Inactive)
REMARK    1  A    between atoms: C2_2  and  C3_3 
REMARK    2  A    between atoms: C3_3  and  O1_4 
REMARK    3  A    between atoms: C3_3  and  C4_6 
REMARK       I    between atoms: C4_6  and  N1_8 
REMARK    4  A    between atoms: N1_8  and  C5_9 
REMARK    5  A    between atoms: C8_14  and  S2_15 
REMARK    6  A    between atoms: S2_15  and  C9_16 
REMARK       I    between atoms: N2_18  and  C11_19 
REMARK    7  A    between atoms: C14_26  and  N4_27 
REMARK    8  A    between atoms: N4_27  and  C15_29 
REMARK    9  A    between atoms: C15_29  and  O5_30 
REMARK   10  A    between atoms: C15_29  and  C16_32 
REMARK   11  A    between atoms: N7_37  and  N8_38 
REMARK   12  A    between atoms: C17_40  and  C18_41 
REMARK   13  A    between atoms: C21_50  and  C22_51 
ROOT
HETATM    1  C9  UNL     1      -8.009   6.390  25.523  1.00  0.00     0.120 C 
HETATM    2  C10 UNL     1      -6.968   7.499  25.789  1.00  0.00     0.147 C 
HETATM    3  N2  UNL     1      -6.275   7.114  26.994  1.00  0.00    -0.327 N 
HETATM    4  C11 UNL     1      -5.699   8.155  27.778  1.00  0.00     0.217 C 
HETATM    5  C12 UNL     1      -4.919   7.924  28.987  1.00  0.00     0.117 C 
HETATM    6  O4  UNL     1      -5.880   9.379  27.394  1.00  0.00    -0.274 OA
HETATM    7  C13 UNL     1      -6.121   5.739  27.439  1.00  0.00     0.362 C 
HETATM    8  N3  UNL     1      -7.421   5.055  27.436  1.00  0.00    -0.037 N 
ATOM      9  H31 UNL     1      -7.661   4.673  28.351  1.00  0.00     0.281 HD
ATOM     10  H32 UNL     1      -7.397   4.176  26.918  1.00  0.00     0.281 HD
HETATM   11  C14 UNL     1      -8.423   5.960  26.937  1.00  0.00     0.299 C 
ENDROOT
BRANCH  11  12
HETATM   12  N4  UNL     1      -9.748   5.504  27.087  1.00  0.00    -0.363 N 
ATOM     13  H4  UNL     1     -10.098   5.161  27.980  1.00  0.00     0.158 HD
BRANCH  12  14
HETATM   14  C15 UNL     1     -10.576   5.546  25.922  1.00  0.00     0.287 C 
BRANCH  14  15
HETATM   15  O5  UNL     1     -11.352   4.352  25.905  1.00  0.00    -0.370 OA
ATOM     16  H5  UNL     1     -12.157   4.529  26.379  1.00  0.00     0.212 HD
ENDBRANCH  14  15
BRANCH  14  17
HETATM   17  C16 UNL     1     -11.568   6.655  26.004  1.00  0.00     0.164 A 
HETATM   18  N5  UNL     1     -12.183   7.231  24.931  1.00  0.00    -0.267 N 
HETATM   19  N6  UNL     1     -12.966   8.157  25.354  1.00  0.00    -0.204 N 
ATOM     20  H5  UNL     1     -12.044   6.970  23.955  1.00  0.00     0.190 HD
HETATM   21  N7  UNL     1     -12.924   8.249  26.692  1.00  0.00    -0.115 N 
ATOM     22  H6  UNL     1     -13.544   8.745  24.753  1.00  0.00     0.212 HD
HETATM   23  N11 UNL     1     -12.042   7.297  27.081  1.00  0.00    -0.246 N 
ATOM     24  H11 UNL     1     -11.779   7.100  28.047  1.00  0.00     0.192 HD
BRANCH  21  25
HETATM   25  N8  UNL     1     -13.682   9.121  27.405  1.00  0.00    -0.272 N 
HETATM   26  C17 UNL     1     -14.860   9.213  27.772  1.00  0.00     0.141 C 
ATOM     27  H8  UNL     1     -13.130   9.917  27.724  1.00  0.00     0.189 HD
BRANCH  26  28
HETATM   28  C18 UNL     1     -15.935   8.289  27.515  1.00  0.00     0.065 A 
HETATM   29  C19 UNL     1     -17.092   8.192  28.173  1.00  0.00     0.119 A 
HETATM   30  N9  UNL     1     -17.824   7.219  27.625  1.00  0.00    -0.360 N 
HETATM   31  C20 UNL     1     -17.148   6.709  26.635  1.00  0.00     0.180 A 
ATOM     32  H9  UNL     1     -18.753   6.926  27.927  1.00  0.00     0.166 HD
HETATM   33  N10 UNL     1     -15.921   7.304  26.461  1.00  0.00    -0.350 N 
ATOM     34  H10 UNL     1     -15.196   7.104  25.772  1.00  0.00     0.166 HD
ENDBRANCH  26  28
ENDBRANCH  21  25
ENDBRANCH  14  17
ENDBRANCH  12  14
ENDBRANCH  11  12
BRANCH   1  35
HETATM   35  S2  UNL     1      -7.135   4.941  24.850  1.00  0.00    -0.113 SA
BRANCH  35  36
HETATM   36  C8  UNL     1      -5.929   5.310  23.599  1.00  0.00     0.084 C 
HETATM   37  C7  UNL     1      -6.347   5.828  22.253  1.00  0.00     0.201 C 
HETATM   38  C6  UNL     1      -5.177   5.527  21.384  1.00  0.00     0.234 C 
HETATM   39  O3  UNL     1      -7.380   6.382  21.882  1.00  0.00    -0.288 OA
HETATM   40  S1  UNL     1      -4.914   6.788  20.135  1.00  0.00    -0.087 SA
HETATM   41  N12 UNL     1      -4.112   5.799  22.323  1.00  0.00    -0.286 N 
HETATM   42  C5  UNL     1      -3.270   7.397  20.721  1.00  0.00     0.323 C 
HETATM   43  C23 UNL     1      -3.000   6.431  21.815  1.00  0.00     0.272 C 
HETATM   44  O8  UNL     1      -1.814   6.223  22.225  1.00  0.00    -0.268 OA
HETATM   45  C21 UNL     1      -4.618   5.268  23.601  1.00  0.00     0.136 C 
BRANCH  42  46
HETATM   46  N1  UNL     1      -2.365   7.408  19.758  1.00  0.00    -0.387 NA
HETATM   47  C4  UNL     1      -1.401   7.417  18.721  1.00  0.00     0.317 C 
HETATM   48  O2  UNL     1      -1.585   7.047  17.554  1.00  0.00    -0.255 OA
BRANCH  47  49
HETATM   49  C3  UNL     1      -0.034   7.916  19.065  1.00  0.00     0.224 C 
BRANCH  49  50
HETATM   50  C2  UNL     1       0.737   6.947  19.904  1.00  0.00     0.038 C 
HETATM   51  C1  UNL     1       2.164   7.344  20.150  1.00  0.00     0.008 C 
ENDBRANCH  49  50
BRANCH  49  52
HETATM   52  O1  UNL     1       0.622   8.163  17.857  1.00  0.00    -0.385 OA
ATOM     53  H1  UNL     1       0.439   7.478  17.224  1.00  0.00     0.210 HD
ENDBRANCH  49  52
ENDBRANCH  47  49
ENDBRANCH  42  46
BRANCH  45  54
HETATM   54  C22 UNL     1      -3.772   4.838  24.693  1.00  0.00     0.228 C 
HETATM   55  O6  UNL     1      -3.566   3.632  24.955  1.00  0.00    -0.643 OA
HETATM   56  O7  UNL     1      -3.127   5.774  25.526  1.00  0.00    -0.643 OA
ENDBRANCH  45  54
ENDBRANCH  35  36
ENDBRANCH   1  35
TORSDOF 13
ENDMDL
MODEL 2
REMARK VINA RESULT: -10.672158724      0.990      2.023
REMARK  13 active torsions:
REMARK  status: ('A' for Active; 'I' for Inactive)
REMARK    1  A    between atoms: C2_2  and  C3_3 
REMARK    2  A    between atoms: C3_3  and  O1_4 
REMARK    3  A    between atoms: C3_3  and  C4_6 
REMARK       I    between atoms: C4_6  and  N1_8 
REMARK    4  A    between atoms: N1_8  and  C5_9 
REMARK    5  A    between atoms: C8_14  and  S2_15 
REMARK    6  A    between atoms: S2_15  and  C9_16 
REMARK       I    between atoms: N2_18  and  C11_19 
REMARK    7  A    between atoms: C14_26  and  N4_27 
REMARK    8  A    between atoms: N4_27  and  C15_29 
REMARK    9  A    between atoms: C15_29  and  O5_30 
REMARK   10  A    between atoms: C15_29  and  C16_32 
REMARK   11  A    between atoms: N7_37  and  N8_38 
REMARK   12  A    between atoms: C17_40  and  C18_41 
REMARK   13  A    between atoms: C21_50  and  C22_51 
ROOT
HETATM    1  C9  UNL     1      -7.960   6.385  25.519  1.00  0.00     0.120 C 
HETATM    2  C10 UNL     1      -6.981   7.533  25.843  1.00  0.00     0.147 C 
HETATM    3  N2  UNL     1      -6.210   7.090  26.979  1.00  0.00    -0.327 N 
HETATM    4  C11 UNL     1      -5.666   8.094  27.831  1.00  0.00     0.217 C 
HETATM    5  C12 UNL     1      -4.819   7.809  28.983  1.00  0.00     0.117 C 
HETATM    6  O4  UNL     1      -5.941   9.332  27.568  1.00  0.00    -0.274 OA
HETATM    7  C13 UNL     1      -5.951   5.694  27.291  1.00  0.00     0.362 C 
HETATM    8  N3  UNL     1      -7.204   4.928  27.277  1.00  0.00    -0.037 N 
ATOM      9  H31 UNL     1      -7.378   4.452  28.163  1.00  0.00     0.281 HD
ATOM     10  H32 UNL     1      -7.149   4.102  26.681  1.00  0.00     0.281 HD
HETATM   11  C14 UNL     1      -8.283   5.806  26.903  1.00  0.00     0.299 C 
ENDROOT
BRANCH  11  12
HETATM   12  N4  UNL     1      -9.568   5.251  27.063  1.00  0.00    -0.363 N 
ATOM     13  H4  UNL     1      -9.876   4.860  27.953  1.00  0.00     0.158 HD
BRANCH  12  14
HETATM   14  C15 UNL     1     -10.419   5.264  25.914  1.00  0.00     0.287 C 
BRANCH  14  15
HETATM   15  O5  UNL     1     -11.168   4.052  25.923  1.00  0.00    -0.370 OA
ATOM     16  H5  UNL     1     -12.064   4.269  25.692  1.00  0.00     0.212 HD
ENDBRANCH  14  15
BRANCH  14  17
HETATM   17  C16 UNL     1     -11.435   6.350  26.005  1.00  0.00     0.164 A 
HETATM   18  N5  UNL     1     -12.269   6.724  24.993  1.00  0.00    -0.267 N 
HETATM   19  N6  UNL     1     -13.006   7.693  25.404  1.00  0.00    -0.204 N 
ATOM     20  H5  UNL     1     -12.303   6.304  24.064  1.00  0.00     0.190 HD
HETATM   21  N7  UNL     1     -12.718   8.011  26.675  1.00  0.00    -0.115 N 
ATOM     22  H6  UNL     1     -13.717   8.158  24.839  1.00  0.00     0.212 HD
HETATM   23  N11 UNL     1     -11.730   7.157  27.035  1.00  0.00    -0.246 N 
ATOM     24  H11 UNL     1     -11.281   7.131  27.950  1.00  0.00     0.192 HD
BRANCH  21  25
HETATM   25  N8  UNL     1     -13.373   8.976  27.370  1.00  0.00    -0.272 N 
HETATM   26  C17 UNL     1     -14.534   9.208  27.731  1.00  0.00     0.141 C 
ATOM     27  H8  UNL     1     -12.735   9.709  27.677  1.00  0.00     0.189 HD
BRANCH  26  28
HETATM   28  C18 UNL     1     -15.707   8.408  27.487  1.00  0.00     0.065 A 
HETATM   29  C19 UNL     1     -16.779   8.284  28.272  1.00  0.00     0.119 A 
HETATM   30  N9  UNL     1     -17.652   7.459  27.688  1.00  0.00    -0.360 N 
HETATM   31  C20 UNL     1     -17.147   7.069  26.553  1.00  0.00     0.180 A 
ATOM     32  H9  UNL     1     -18.559   7.183  28.065  1.00  0.00     0.166 HD
HETATM   33  N10 UNL     1     -15.905   7.603  26.305  1.00  0.00    -0.350 N 
ATOM     34  H10 UNL     1     -15.289   7.467  25.504  1.00  0.00     0.166 HD
ENDBRANCH  26  28
ENDBRANCH  21  25
ENDBRANCH  14  17
ENDBRANCH  12  14
ENDBRANCH  11  12
BRANCH   1  35
HETATM   35  S2  UNL     1      -7.029   5.062  24.683  1.00  0.00    -0.113 SA
BRANCH  35  36
HETATM   36  C8  UNL     1      -5.910   5.620  23.421  1.00  0.00     0.084 C 
HETATM   37  C7  UNL     1      -4.425   5.570  23.630  1.00  0.00     0.201 C 
HETATM   38  C6  UNL     1      -3.898   6.543  22.634  1.00  0.00     0.234 C 
HETATM   39  O3  UNL     1      -3.736   4.909  24.406  1.00  0.00    -0.288 OA
HETATM   40  S1  UNL     1      -2.323   6.030  21.948  1.00  0.00    -0.087 SA
HETATM   41  N12 UNL     1      -4.809   6.277  21.543  1.00  0.00    -0.286 N 
HETATM   42  C5  UNL     1      -2.865   5.797  20.196  1.00  0.00     0.323 C 
HETATM   43  C23 UNL     1      -4.263   6.286  20.280  1.00  0.00     0.272 C 
HETATM   44  O8  UNL     1      -4.882   6.681  19.240  1.00  0.00    -0.268 OA
HETATM   45  C21 UNL     1      -6.109   6.072  22.206  1.00  0.00     0.136 C 
BRANCH  42  46
HETATM   46  N1  UNL     1      -2.100   6.454  19.340  1.00  0.00    -0.387 NA
HETATM   47  C4  UNL     1      -1.286   7.156  18.418  1.00  0.00     0.317 C 
HETATM   48  O2  UNL     1      -1.511   7.293  17.208  1.00  0.00    -0.255 OA
BRANCH  47  49
HETATM   49  C3  UNL     1      -0.041   7.787  18.951  1.00  0.00     0.224 C 
BRANCH  49  50
HETATM   50  C2  UNL     1       0.736   6.866  19.839  1.00  0.00     0.038 C 
HETATM   51  C1  UNL     1       2.120   7.348  20.165  1.00  0.00     0.008 C 
ENDBRANCH  49  50
BRANCH  49  52
HETATM   52  O1  UNL     1       0.721   8.176  17.846  1.00  0.00    -0.385 OA
ATOM     53  H1  UNL     1       0.627   7.555  17.133  1.00  0.00     0.210 HD
ENDBRANCH  49  52
ENDBRANCH  47  49
ENDBRANCH  42  46
BRANCH  45  54
HETATM   54  C22 UNL     1      -7.389   6.282  21.564  1.00  0.00     0.228 C 
HETATM   55  O6  UNL     1      -7.851   5.499  20.704  1.00  0.00    -0.643 OA
HETATM   56  O7  UNL     1      -8.189   7.397  21.883  1.00  0.00    -0.643 OA
ENDBRANCH  45  54
ENDBRANCH  35  36
ENDBRANCH   1  35
TORSDOF 13
ENDMDL
MODEL 3
REMARK VINA RESULT: -10.536130360      1.269      1.807
REMARK  13 active torsions:
REMARK  status: ('A' for Active; 'I' for Inactive)
REMARK    1  A    between atoms: C2_2  and  C3_3 
REMARK    2  A    between atoms: C3_3  and  O1_4 
REMARK    3  A    between atoms: C3_3  and  C4_6 
REMARK       I    between atoms: C4_6  and  N1_8 
REMARK    4  A    between atoms: N1_8  and  C5_9 
REMARK    5  A    between atoms: C8_14  and  S2_15 
REMARK    6  A    between atoms: S2_15  and  C9_16 
REMARK       I    between atoms: N2_18  and  C11_19 
REMARK    7  A    between atoms: C14_26  and  N4_27 
REMARK    8  A    between atoms: N4_27  and  C15_29 
REMARK    9  A    between atoms: C15_29  and  O5_30 
REMARK   10  A    between atoms: C15_29  and  C16_32 
REMARK   11  A    between atoms: N7_37  and  N8_38 
REMARK   12  A    between atoms: C17_40  and  C18_41 
REMARK   13  A    between atoms: C21_50  and  C22_51 
ROOT
HETATM    1  C9  UNL     1      -8.694   6.960  25.194  1.00  0.00     0.120 C 
HETATM    2  C10 UNL     1      -7.514   7.907  25.495  1.00  0.00     0.147 C 
HETATM    3  N2  UNL     1      -6.946   7.454  26.741  1.00  0.00    -0.327 N 
HETATM    4  C11 UNL     1      -6.261   8.418  27.535  1.00  0.00     0.217 C 
HETATM    5  C12 UNL     1      -5.585   8.104  28.788  1.00  0.00     0.117 C 
HETATM    6  O4  UNL     1      -6.237   9.645  27.121  1.00  0.00    -0.274 OA
HETATM    7  C13 UNL     1      -7.023   6.084  27.218  1.00  0.00     0.362 C 
HETATM    8  N3  UNL     1      -8.409   5.601  27.159  1.00  0.00    -0.037 N 
ATOM      9  H31 UNL     1      -8.749   5.282  28.067  1.00  0.00     0.281 HD
ATOM     10  H32 UNL     1      -8.491   4.715  26.658  1.00  0.00     0.281 HD
HETATM   11  C14 UNL     1      -9.238   6.632  26.592  1.00  0.00     0.299 C 
ENDROOT
BRANCH  11  12
HETATM   12  N4  UNL     1     -10.622   6.382  26.679  1.00  0.00    -0.363 N 
ATOM     13  H4  UNL     1     -11.052   6.043  27.540  1.00  0.00     0.158 HD
BRANCH  12  14
HETATM   14  C15 UNL     1     -11.394   6.628  25.501  1.00  0.00     0.287 C 
BRANCH  14  15
HETATM   15  O5  UNL     1     -11.635   5.370  24.879  1.00  0.00    -0.370 OA
ATOM     16  H5  UNL     1     -10.884   5.173  24.332  1.00  0.00     0.212 HD
ENDBRANCH  14  15
BRANCH  14  17
HETATM   17  C16 UNL     1     -12.743   7.161  25.840  1.00  0.00     0.164 A 
HETATM   18  N5  UNL     1     -13.233   8.364  25.423  1.00  0.00    -0.267 N 
HETATM   19  N6  UNL     1     -14.416   8.515  25.902  1.00  0.00    -0.204 N 
ATOM     20  H5  UNL     1     -12.742   9.032  24.830  1.00  0.00     0.190 HD
HETATM   21  N7  UNL     1     -14.775   7.454  26.640  1.00  0.00    -0.115 N 
ATOM     22  H6  UNL     1     -15.004   9.332  25.741  1.00  0.00     0.212 HD
HETATM   23  N11 UNL     1     -13.713   6.614  26.589  1.00  0.00    -0.246 N 
ATOM     24  H11 UNL     1     -13.659   5.706  27.049  1.00  0.00     0.192 HD
BRANCH  21  25
HETATM   25  N8  UNL     1     -15.990   7.334  27.234  1.00  0.00    -0.272 N 
HETATM   26  C17 UNL     1     -16.703   8.006  27.990  1.00  0.00     0.141 C 
ATOM     27  H8  UNL     1     -16.436   6.450  26.991  1.00  0.00     0.189 HD
BRANCH  26  28
HETATM   28  C18 UNL     1     -16.415   9.303  28.547  1.00  0.00     0.065 A 
HETATM   29  C19 UNL     1     -17.254  10.103  29.208  1.00  0.00     0.119 A 
HETATM   30  N9  UNL     1     -16.603  11.212  29.570  1.00  0.00    -0.360 N 
HETATM   31  C20 UNL     1     -15.374  11.118  29.150  1.00  0.00     0.180 A 
ATOM     32  H9  UNL     1     -17.000  11.997  30.086  1.00  0.00     0.166 HD
HETATM   33  N10 UNL     1     -15.124   9.944  28.479  1.00  0.00    -0.350 N 
ATOM     34  H10 UNL     1     -14.259   9.615  28.050  1.00  0.00     0.166 HD
ENDBRANCH  26  28
ENDBRANCH  21  25
ENDBRANCH  14  17
ENDBRANCH  12  14
ENDBRANCH  11  12
BRANCH   1  35
HETATM   35  S2  UNL     1      -8.016   5.380  24.594  1.00  0.00    -0.113 SA
BRANCH  35  36
HETATM   36  C8  UNL     1      -6.668   5.533  23.447  1.00  0.00     0.084 C 
HETATM   37  C7  UNL     1      -6.884   6.100  22.074  1.00  0.00     0.201 C 
HETATM   38  C6  UNL     1      -5.713   5.602  21.301  1.00  0.00     0.234 C 
HETATM   39  O3  UNL     1      -7.778   6.813  21.622  1.00  0.00    -0.288 OA
HETATM   40  S1  UNL     1      -5.146   6.790  20.084  1.00  0.00    -0.087 SA
HETATM   41  N12 UNL     1      -4.697   5.703  22.326  1.00  0.00    -0.286 N 
HETATM   42  C5  UNL     1      -3.477   7.126  20.804  1.00  0.00     0.323 C 
HETATM   43  C23 UNL     1      -3.459   6.138  21.912  1.00  0.00     0.272 C 
HETATM   44  O8  UNL     1      -2.361   5.742  22.417  1.00  0.00    -0.268 OA
HETATM   45  C21 UNL     1      -5.387   5.275  23.555  1.00  0.00     0.136 C 
BRANCH  42  46
HETATM   46  N1  UNL     1      -2.507   6.978  19.918  1.00  0.00    -0.387 NA
HETATM   47  C4  UNL     1      -1.473   6.823  18.963  1.00  0.00     0.317 C 
HETATM   48  O2  UNL     1      -1.562   7.059  17.750  1.00  0.00    -0.255 OA
BRANCH  47  49
HETATM   49  C3  UNL     1      -0.154   6.326  19.460  1.00  0.00     0.224 C 
BRANCH  49  50
HETATM   50  C2  UNL     1       0.560   7.336  20.302  1.00  0.00     0.038 C 
HETATM   51  C1  UNL     1       2.055   7.308  20.162  1.00  0.00     0.008 C 
ENDBRANCH  49  50
BRANCH  49  52
HETATM   52  O1  UNL     1      -0.409   5.160  20.187  1.00  0.00    -0.385 OA
ATOM     53  H1  UNL     1      -0.661   4.448  19.610  1.00  0.00     0.210 HD
ENDBRANCH  49  52
ENDBRANCH  47  49
ENDBRANCH  42  46
BRANCH  45  54
HETATM   54  C22 UNL     1      -4.714   4.722  24.711  1.00  0.00     0.228 C 
HETATM   55  O6  UNL     1      -3.923   5.387  25.416  1.00  0.00    -0.643 OA
HETATM   56  O7  UNL     1      -4.925   3.385  25.106  1.00  0.00    -0.643 OA
ENDBRANCH  45  54
ENDBRANCH  35  36
ENDBRANCH   1  35
TORSDOF 13
ENDMDL
MODEL 4
REMARK VINA RESULT: -10.502826112      3.803      7.768
REMARK  13 active torsions:
REMARK  status: ('A' for Active; 'I' for Inactive)
REMARK    1  A    between atoms: C2_2  and  C3_3 
REMARK    2  A    between atoms: C3_3  and  O1_4 
REMARK    3  A    between atoms: C3_3  and  C4_6 
REMARK       I    between atoms: C4_6  and  N1_8 
REMARK    4  A    between atoms: N1_8  and  C5_9 
REMARK    5  A    between atoms: C8_14  and  S2_15 
REMARK    6  A    between atoms: S2_15  and  C9_16 
REMARK       I    between atoms: N2_18  and  C11_19 
REMARK    7  A    between atoms: C14_26  and  N4_27 
REMARK    8  A    between atoms: N4_27  and  C15_29 
REMARK    9  A    between atoms: C15_29  and  O5_30 
REMARK   10  A    between atoms: C15_29  and  C16_32 
REMARK   11  A    between atoms: N7_37  and  N8_38 
REMARK   12  A    between atoms: C17_40  and  C18_41 
REMARK   13  A    between atoms: C21_50  and  C22_51 
ROOT
HETATM    1  C9  UNL     1      -7.423   5.870  23.534  1.00  0.00     0.120 C 
HETATM    2  C10 UNL     1      -6.480   5.671  22.329  1.00  0.00     0.147 C 
HETATM    3  N2  UNL     1      -6.150   6.995  21.859  1.00  0.00    -0.327 N 
HETATM    4  C11 UNL     1      -5.797   7.132  20.486  1.00  0.00     0.217 C 
HETATM    5  C12 UNL     1      -5.382   8.389  19.876  1.00  0.00     0.117 C 
HETATM    6  O4  UNL     1      -5.847   6.078  19.735  1.00  0.00    -0.274 OA
HETATM    7  C13 UNL     1      -6.145   8.179  22.703  1.00  0.00     0.362 C 
HETATM    8  N3  UNL     1      -7.403   8.274  23.454  1.00  0.00    -0.037 N 
ATOM      9  H31 UNL     1      -7.892   9.154  23.284  1.00  0.00     0.281 HD
ATOM     10  H32 UNL     1      -7.251   8.388  24.456  1.00  0.00     0.281 HD
HETATM   11  C14 UNL     1      -8.217   7.126  23.148  1.00  0.00     0.299 C 
ENDROOT
BRANCH  11  12
HETATM   12  N4  UNL     1      -9.538   7.201  23.632  1.00  0.00    -0.363 N 
ATOM     13  H4  UNL     1     -10.273   6.587  23.281  1.00  0.00     0.158 HD
BRANCH  12  14
HETATM   14  C15 UNL     1      -9.798   8.182  24.639  1.00  0.00     0.287 C 
BRANCH  14  15
HETATM   15  O5  UNL     1     -10.065   9.414  23.977  1.00  0.00    -0.370 OA
ATOM     16  H5  UNL     1      -9.612  10.099  24.455  1.00  0.00     0.212 HD
ENDBRANCH  14  15
BRANCH  14  17
HETATM   17  C16 UNL     1     -11.043   7.866  25.393  1.00  0.00     0.164 A 
HETATM   18  N5  UNL     1     -11.128   7.770  26.752  1.00  0.00    -0.267 N 
HETATM   19  N6  UNL     1     -12.338   7.476  27.068  1.00  0.00    -0.204 N 
ATOM     20  H5  UNL     1     -10.359   7.908  27.407  1.00  0.00     0.190 HD
HETATM   21  N7  UNL     1     -13.108   7.366  25.975  1.00  0.00    -0.115 N 
ATOM     22  H6  UNL     1     -12.669   7.345  28.024  1.00  0.00     0.212 HD
HETATM   23  N11 UNL     1     -12.278   7.615  24.934  1.00  0.00    -0.246 N 
ATOM     24  H11 UNL     1     -12.551   7.613  23.951  1.00  0.00     0.192 HD
BRANCH  21  25
HETATM   25  N8  UNL     1     -14.438   7.099  26.023  1.00  0.00    -0.272 N 
HETATM   26  C17 UNL     1     -15.440   7.563  26.582  1.00  0.00     0.141 C 
ATOM     27  H8  UNL     1     -14.677   6.297  25.439  1.00  0.00     0.189 HD
BRANCH  26  28
HETATM   28  C18 UNL     1     -15.503   8.688  27.480  1.00  0.00     0.065 A 
HETATM   29  C19 UNL     1     -16.367   8.877  28.479  1.00  0.00     0.119 A 
HETATM   30  N9  UNL     1     -16.089  10.037  29.080  1.00  0.00    -0.360 N 
HETATM   31  C20 UNL     1     -15.066  10.573  28.478  1.00  0.00     0.180 A 
ATOM     32  H9  UNL     1     -16.591  10.434  29.875  1.00  0.00     0.166 HD
HETATM   33  N10 UNL     1     -14.596   9.810  27.436  1.00  0.00    -0.350 N 
ATOM     34  H10 UNL     1     -13.818   9.989  26.801  1.00  0.00     0.166 HD
ENDBRANCH  26  28
ENDBRANCH  21  25
ENDBRANCH  14  17
ENDBRANCH  12  14
ENDBRANCH  11  12
BRANCH   1  35
HETATM   35  S2  UNL     1      -6.420   6.392  24.961  1.00  0.00    -0.113 SA
BRANCH  35  36
HETATM   36  C8  UNL     1      -5.904   5.074  26.035  1.00  0.00     0.084 C 
HETATM   37  C7  UNL     1      -4.547   5.087  26.675  1.00  0.00     0.201 C 
HETATM   38  C6  UNL     1      -4.318   3.662  27.040  1.00  0.00     0.234 C 
HETATM   39  O3  UNL     1      -3.758   6.007  26.889  1.00  0.00    -0.288 OA
HETATM   40  S1  UNL     1      -3.402   3.490  28.573  1.00  0.00    -0.087 SA
HETATM   41  N12 UNL     1      -5.661   3.307  27.444  1.00  0.00    -0.286 N 
HETATM   42  C5  UNL     1      -4.722   2.672  29.576  1.00  0.00     0.323 C 
HETATM   43  C23 UNL     1      -5.767   2.480  28.539  1.00  0.00     0.272 C 
HETATM   44  O8  UNL     1      -6.678   1.604  28.683  1.00  0.00    -0.268 OA
HETATM   45  C21 UNL     1      -6.522   4.003  26.472  1.00  0.00     0.136 C 
BRANCH  42  46
HETATM   46  N1  UNL     1      -4.301   1.557  30.148  1.00  0.00    -0.387 NA
HETATM   47  C4  UNL     1      -3.844   0.362  30.756  1.00  0.00     0.317 C 
HETATM   48  O2  UNL     1      -2.887  -0.325  30.378  1.00  0.00    -0.255 OA
BRANCH  47  49
HETATM   49  C3  UNL     1      -4.586  -0.116  31.962  1.00  0.00     0.224 C 
BRANCH  49  50
HETATM   50  C2  UNL     1      -5.948  -0.638  31.630  1.00  0.00     0.038 C 
HETATM   51  C1  UNL     1      -6.306  -1.916  32.333  1.00  0.00     0.008 C 
ENDBRANCH  49  50
BRANCH  49  52
HETATM   52  O1  UNL     1      -3.801  -1.109  32.553  1.00  0.00    -0.385 OA
ATOM     53  H1  UNL     1      -2.876  -0.912  32.458  1.00  0.00     0.210 HD
ENDBRANCH  49  52
ENDBRANCH  47  49
ENDBRANCH  42  46
BRANCH  45  54
HETATM   54  C22 UNL     1      -7.862   3.581  26.128  1.00  0.00     0.228 C 
HETATM   55  O6  UNL     1      -8.106   2.483  25.580  1.00  0.00    -0.643 OA
HETATM   56  O7  UNL     1      -8.976   4.401  26.400  1.00  0.00    -0.643 OA
ENDBRANCH  45  54
ENDBRANCH  35  36
ENDBRANCH   1  35
TORSDOF 13
ENDMDL
MODEL 5
REMARK VINA RESULT: -10.481326300      1.046      1.606
REMARK  13 active torsions:
REMARK  status: ('A' for Active; 'I' for Inactive)
REMARK    1  A    between atoms: C2_2  and  C3_3 
REMARK    2  A    between atoms: C3_3  and  O1_4 
REMARK    3  A    between atoms: C3_3  and  C4_6 
REMARK       I    between atoms: C4_6  and  N1_8 
REMARK    4  A    between atoms: N1_8  and  C5_9 
REMARK    5  A    between atoms: C8_14  and  S2_15 
REMARK    6  A    between atoms: S2_15  and  C9_16 
REMARK       I    between atoms: N2_18  and  C11_19 
REMARK    7  A    between atoms: C14_26  and  N4_27 
REMARK    8  A    between atoms: N4_27  and  C15_29 
REMARK    9  A    between atoms: C15_29  and  O5_30 
REMARK   10  A    between atoms: C15_29  and  C16_32 
REMARK   11  A    between atoms: N7_37  and  N8_38 
REMARK   12  A    between atoms: C17_40  and  C18_41 
REMARK   13  A    between atoms: C21_50  and  C22_51 
ROOT
HETATM    1  C9  UNL     1      -7.929   6.291  25.278  1.00  0.00     0.120 C 
HETATM    2  C10 UNL     1      -7.046   7.507  25.630  1.00  0.00     0.147 C 
HETATM    3  N2  UNL     1      -6.351   7.156  26.845  1.00  0.00    -0.327 N 
HETATM    4  C11 UNL     1      -5.938   8.223  27.693  1.00  0.00     0.217 C 
HETATM    5  C12 UNL     1      -5.177   8.036  28.922  1.00  0.00     0.117 C 
HETATM    6  O4  UNL     1      -6.258   9.432  27.353  1.00  0.00    -0.274 OA
HETATM    7  C13 UNL     1      -6.041   5.792  27.239  1.00  0.00     0.362 C 
HETATM    8  N3  UNL     1      -7.244   4.952  27.156  1.00  0.00    -0.037 N 
ATOM      9  H31 UNL     1      -7.466   4.502  28.044  1.00  0.00     0.281 HD
ATOM     10  H32 UNL     1      -7.092   4.108  26.603  1.00  0.00     0.281 HD
HETATM   11  C14 UNL     1      -8.335   5.749  26.656  1.00  0.00     0.299 C 
ENDROOT
BRANCH  11  12
HETATM   12  N4  UNL     1      -9.596   5.125  26.734  1.00  0.00    -0.363 N 
ATOM     13  H4  UNL     1      -9.859   4.546  27.530  1.00  0.00     0.158 HD
BRANCH  12  14
HETATM   14  C15 UNL     1     -10.489   5.346  25.639  1.00  0.00     0.287 C 
BRANCH  14  15
HETATM   15  O5  UNL     1     -11.340   4.207  25.546  1.00  0.00    -0.370 OA
ATOM     16  H5  UNL     1     -10.789   3.435  25.602  1.00  0.00     0.212 HD
ENDBRANCH  14  15
BRANCH  14  17
HETATM   17  C16 UNL     1     -11.401   6.493  25.907  1.00  0.00     0.164 A 
HETATM   18  N5  UNL     1     -12.166   7.117  24.966  1.00  0.00    -0.267 N 
HETATM   19  N6  UNL     1     -12.821   8.067  25.532  1.00  0.00    -0.204 N 
ATOM     20  H5  UNL     1     -12.210   6.872  23.978  1.00  0.00     0.190 HD
HETATM   21  N7  UNL     1     -12.543   8.128  26.843  1.00  0.00    -0.115 N 
ATOM     22  H6  UNL     1     -13.467   8.691  25.049  1.00  0.00     0.212 HD
HETATM   23  N11 UNL     1     -11.651   7.132  27.060  1.00  0.00    -0.246 N 
ATOM     24  H11 UNL     1     -11.234   6.903  27.962  1.00  0.00     0.192 HD
BRANCH  21  25
HETATM   25  N8  UNL     1     -13.126   9.016  27.689  1.00  0.00    -0.272 N 
HETATM   26  C17 UNL     1     -14.264   9.261  28.108  1.00  0.00     0.141 C 
ATOM     27  H8  UNL     1     -12.438   9.655  28.087  1.00  0.00     0.189 HD
BRANCH  26  28
HETATM   28  C18 UNL     1     -15.489   8.580  27.774  1.00  0.00     0.065 A 
HETATM   29  C19 UNL     1     -16.586   8.474  28.527  1.00  0.00     0.119 A 
HETATM   30  N9  UNL     1     -17.506   7.774  27.858  1.00  0.00    -0.360 N 
HETATM   31  C20 UNL     1     -17.005   7.442  26.702  1.00  0.00     0.180 A 
ATOM     32  H9  UNL     1     -18.440   7.539  28.194  1.00  0.00     0.166 HD
HETATM   33  N10 UNL     1     -15.719   7.896  26.524  1.00  0.00    -0.350 N 
ATOM     34  H10 UNL     1     -15.096   7.780  25.725  1.00  0.00     0.166 HD
ENDBRANCH  26  28
ENDBRANCH  21  25
ENDBRANCH  14  17
ENDBRANCH  12  14
ENDBRANCH  11  12
BRANCH   1  35
HETATM   35  S2  UNL     1      -6.858   4.993  24.581  1.00  0.00    -0.113 SA
BRANCH  35  36
HETATM   36  C8  UNL     1      -5.677   5.564  23.382  1.00  0.00     0.084 C 
HETATM   37  C7  UNL     1      -6.127   6.176  22.088  1.00  0.00     0.201 C 
HETATM   38  C6  UNL     1      -4.935   6.042  21.205  1.00  0.00     0.234 C 
HETATM   39  O3  UNL     1      -7.195   6.689  21.760  1.00  0.00    -0.288 OA
HETATM   40  S1  UNL     1      -4.758   7.431  20.084  1.00  0.00    -0.087 SA
HETATM   41  N12 UNL     1      -3.895   6.298  22.177  1.00  0.00    -0.286 N 
HETATM   42  C5  UNL     1      -3.164   8.096  20.742  1.00  0.00     0.323 C 
HETATM   43  C23 UNL     1      -2.829   7.052  21.742  1.00  0.00     0.272 C 
HETATM   44  O8  UNL     1      -1.633   6.890  22.143  1.00  0.00    -0.268 OA
HETATM   45  C21 UNL     1      -4.367   5.613  23.393  1.00  0.00     0.136 C 
BRANCH  42  46
HETATM   46  N1  UNL     1      -2.258   8.262  19.792  1.00  0.00    -0.387 NA
HETATM   47  C4  UNL     1      -1.283   8.436  18.780  1.00  0.00     0.317 C 
HETATM   48  O2  UNL     1      -0.133   7.977  18.792  1.00  0.00    -0.255 OA
BRANCH  47  49
HETATM   49  C3  UNL     1      -1.675   9.250  17.589  1.00  0.00     0.224 C 
BRANCH  49  50
HETATM   50  C2  UNL     1      -2.501  10.442  17.954  1.00  0.00     0.038 C 
HETATM   51  C1  UNL     1      -3.914  10.391  17.449  1.00  0.00     0.008 C 
ENDBRANCH  49  50
BRANCH  49  52
HETATM   52  O1  UNL     1      -0.491   9.637  16.956  1.00  0.00    -0.385 OA
ATOM     53  H1  UNL     1      -0.549   9.505  16.017  1.00  0.00     0.210 HD
ENDBRANCH  49  52
ENDBRANCH  47  49
ENDBRANCH  42  46
BRANCH  45  54
HETATM   54  C22 UNL     1      -3.496   5.143  24.449  1.00  0.00     0.228 C 
HETATM   55  O6  UNL     1      -3.172   5.853  25.426  1.00  0.00    -0.643 OA
HETATM   56  O7  UNL     1      -2.963   3.838  24.425  1.00  0.00    -0.643 OA
ENDBRANCH  45  54
ENDBRANCH  35  36
ENDBRANCH   1  35
TORSDOF 13
ENDMDL
