MODEL 1
REMARK VINA RESULT: -8.532789190      0.000      0.000
REMARK  15 active torsions:
REMARK  status: ('A' for Active; 'I' for Inactive)
REMARK    1  A    between atoms: O1_2  and  C2_3 
REMARK    2  A    between atoms: C2_3  and  O2_4 
REMARK    3  A    between atoms: O2_4  and  C3_5 
REMARK    4  A    between atoms: C3_5  and  O3_6 
REMARK    5  A    between atoms: C3_5  and  C4_8 
REMARK    6  A    between atoms: C4_8  and  O4_9 
REMARK    7  A    between atoms: C4_8  and  N1_11 
REMARK    8  A    between atoms: C7_15  and  N3_16 
REMARK       I    between atoms: N3_16  and  C8_18 
REMARK    9  A    between atoms: C8_18  and  C9_20 
REMARK   10  A    between atoms: C11_22  and  C12_23 
REMARK       I    between atoms: C12_23  and  N4_25 
REMARK   11  A    between atoms: C13_27  and  C14_28 
REMARK   12  A    between atoms: C16_35  and  O8_36 
REMARK   13  A    between atoms: N8_41  and  C17_42 
REMARK   14  A    between atoms: C19_44  and  O9_45 
REMARK   15  A    between atoms: O9_45  and  S2_46 
ROOT
HETATM    1  N1  UNL     1      -6.696   5.605  18.643  1.00  0.00    -0.230 N 
HETATM    2  C6  UNL     1      -7.402   4.683  19.326  1.00  0.00     0.222 A 
HETATM    3  N2  UNL     1      -6.950   4.590  20.575  1.00  0.00    -0.184 N 
ATOM      4  H2  UNL     1      -7.308   3.969  21.301  1.00  0.00     0.185 HD
HETATM    5  C7  UNL     1      -5.926   5.474  20.706  1.00  0.00     0.709 A 
HETATM    6  N8  UNL     1      -5.793   6.075  19.524  1.00  0.00    -0.061 N 
ENDROOT
BRANCH   5   7
HETATM    7  N3  UNL     1      -5.249   5.654  21.792  1.00  0.00    -0.153 N 
HETATM    8  C8  UNL     1      -5.639   6.070  23.034  1.00  0.00     0.278 C 
HETATM    9  O5  UNL     1      -5.551   7.307  23.327  1.00  0.00    -0.266 OA
ATOM     10  H3  UNL     1      -4.254   5.450  21.708  1.00  0.00     0.187 HD
BRANCH   8  11
HETATM   11  C9  UNL     1      -6.166   5.202  24.111  1.00  0.00     0.092 A 
HETATM   12  C10 UNL     1      -7.436   5.157  24.620  1.00  0.00     0.061 A 
HETATM   13  C11 UNL     1      -7.671   4.260  25.584  1.00  0.00     0.108 A 
HETATM   14  N7  UNL     1      -6.642   3.486  25.964  1.00  0.00    -0.321 N 
HETATM   15  S1  UNL     1      -5.368   3.992  25.003  1.00  0.00    -0.009 SA
ATOM     16  H7  UNL     1      -6.638   2.755  26.676  1.00  0.00     0.174 HD
BRANCH  13  17
HETATM   17  C12 UNL     1      -8.978   4.055  26.274  1.00  0.00     0.272 C 
HETATM   18  O6  UNL     1      -9.579   2.986  26.013  1.00  0.00    -0.266 OA
HETATM   19  N4  UNL     1      -9.529   4.952  27.150  1.00  0.00    -0.329 N 
HETATM   20  C13 UNL     1     -10.128   6.025  27.176  1.00  0.00     0.125 C 
ATOM     21  H4  UNL     1      -9.398   4.616  28.104  1.00  0.00     0.168 HD
BRANCH  20  22
HETATM   22  C14 UNL     1     -10.523   6.841  26.028  1.00  0.00     0.103 A 
HETATM   23  N5  UNL     1     -10.208   8.108  25.719  1.00  0.00    -0.304 N 
HETATM   24  C15 UNL     1     -10.780   8.442  24.545  1.00  0.00     0.326 A 
ATOM     25  H5  UNL     1      -9.625   8.723  26.286  1.00  0.00     0.171 HD
HETATM   26  O7  UNL     1     -10.659   9.574  24.003  1.00  0.00    -0.247 OA
HETATM   27  N6  UNL     1     -11.458   7.373  24.119  1.00  0.00    -0.287 N 
HETATM   28  C16 UNL     1     -11.331   6.373  24.990  1.00  0.00     0.172 A 
ATOM     29  H6  UNL     1     -11.995   7.329  23.254  1.00  0.00     0.172 HD
BRANCH  28  30
HETATM   30  O8  UNL     1     -11.889   5.088  24.903  1.00  0.00    -0.344 OA
ATOM     31  H8  UNL     1     -12.017   4.594  24.103  1.00  0.00     0.219 HD
ENDBRANCH  28  30
ENDBRANCH  20  22
ENDBRANCH  13  17
ENDBRANCH   8  11
ENDBRANCH   5   7
BRANCH   6  32
HETATM   32  C17 UNL     1      -4.851   7.087  19.129  1.00  0.00     0.164 C 
HETATM   33  C18 UNL     1      -3.569   6.685  18.543  1.00  0.00     0.149 C 
HETATM   34  C19 UNL     1      -2.370   6.578  19.445  1.00  0.00     0.353 C 
HETATM   35  N9  UNL     1      -2.771   6.959  20.784  1.00  0.00    -0.026 N 
HETATM   36  C20 UNL     1      -3.482   8.194  20.668  1.00  0.00     0.411 C 
ATOM     37  H92 UNL     1      -3.301   6.233  21.266  1.00  0.00     0.282 HD
ATOM     38  H91 UNL     1      -1.991   7.005  21.439  1.00  0.00     0.282 HD
HETATM   39  O13 UNL     1      -4.686   8.095  20.044  1.00  0.00    -0.309 OA
BRANCH  34  40
HETATM   40  O9  UNL     1      -1.349   7.469  19.095  1.00  0.00    -0.222 OA
BRANCH  40  41
HETATM   41  S2  UNL     1       0.010   7.048  19.981  1.00  0.00     0.253 S 
HETATM   42  O10 UNL     1       0.005   7.552  21.373  1.00  0.00    -0.572 OA
HETATM   43  O11 UNL     1       0.042   5.525  20.008  1.00  0.00    -0.572 OA
HETATM   44  O12 UNL     1       1.347   7.597  19.109  1.00  0.00    -0.572 OA
ENDBRANCH  40  41
ENDBRANCH  34  40
ENDBRANCH   6  32
BRANCH   1  45
HETATM   45  C4  UNL     1      -6.880   5.974  17.274  1.00  0.00     0.300 C 
BRANCH  45  46
HETATM   46  C3  UNL     1      -8.551   6.444  17.159  1.00  0.00     0.310 C 
BRANCH  46  47
HETATM   47  O2  UNL     1      -8.388   7.042  15.991  1.00  0.00    -0.333 OA
BRANCH  47  48
HETATM   48  C2  UNL     1      -9.552   7.581  15.427  1.00  0.00     0.340 C 
BRANCH  48  49
HETATM   49  O1  UNL     1      -9.704   8.881  15.933  1.00  0.00    -0.372 OA
HETATM   50  C1  UNL     1      -8.973   9.785  15.150  1.00  0.00     0.204 C 
ENDBRANCH  48  49
ENDBRANCH  47  48
ENDBRANCH  46  47
BRANCH  46  51
HETATM   51  O3  UNL     1      -8.229   7.799  17.986  1.00  0.00    -0.367 OA
ATOM     52  H3  UNL     1      -7.293   7.714  17.849  1.00  0.00     0.212 HD
ENDBRANCH  46  51
ENDBRANCH  45  46
BRANCH  45  53
HETATM   53  O4  UNL     1      -6.929   4.947  16.373  1.00  0.00    -0.365 OA
HETATM   54  C5  UNL     1      -5.756   4.396  15.965  1.00  0.00     0.204 C 
ENDBRANCH  45  53
ENDBRANCH   1  45
TORSDOF 15
ENDMDL
MODEL 2
REMARK VINA RESULT: -8.372232551      4.494      8.138
REMARK  15 active torsions:
REMARK  status: ('A' for Active; 'I' for Inactive)
REMARK    1  A    between atoms: O1_2  and  C2_3 
REMARK    2  A    between atoms: C2_3  and  O2_4 
REMARK    3  A    between atoms: O2_4  and  C3_5 
REMARK    4  A    between atoms: C3_5  and  O3_6 
REMARK    5  A    between atoms: C3_5  and  C4_8 
REMARK    6  A    between atoms: C4_8  and  O4_9 
REMARK    7  A    between atoms: C4_8  and  N1_11 
REMARK    8  A    between atoms: C7_15  and  N3_16 
REMARK       I    between atoms: N3_16  and  C8_18 
REMARK    9  A    between atoms: C8_18  and  C9_20 
REMARK   10  A    between atoms: C11_22  and  C12_23 
REMARK       I    between atoms: C12_23  and  N4_25 
REMARK   11  A    between atoms: C13_27  and  C14_28 
REMARK   12  A    between atoms: C16_35  and  O8_36 
REMARK   13  A    between atoms: N8_41  and  C17_42 
REMARK   14  A    between atoms: C19_44  and  O9_45 
REMARK   15  A    between atoms: O9_45  and  S2_46 
ROOT
HETATM    1  N1  UNL     1      -6.128   6.469  22.896  1.00  0.00    -0.230 N 
HETATM    2  C6  UNL     1      -5.211   5.596  23.356  1.00  0.00     0.222 A 
HETATM    3  N2  UNL     1      -5.517   5.216  24.595  1.00  0.00    -0.184 N 
ATOM      4  H2  UNL     1      -4.989   4.563  25.173  1.00  0.00     0.185 HD
HETATM    5  C7  UNL     1      -6.662   5.858  24.948  1.00  0.00     0.709 A 
HETATM    6  N8  UNL     1      -7.011   6.609  23.903  1.00  0.00    -0.061 N 
ENDROOT
BRANCH   5   7
HETATM    7  N3  UNL     1      -7.253   5.725  26.089  1.00  0.00    -0.153 N 
HETATM    8  C8  UNL     1      -7.692   4.612  26.749  1.00  0.00     0.278 C 
HETATM    9  O5  UNL     1      -8.905   4.247  26.605  1.00  0.00    -0.266 OA
ATOM     10  H3  UNL     1      -7.419   6.602  26.582  1.00  0.00     0.187 HD
BRANCH   8  11
HETATM   11  C9  UNL     1      -6.879   3.762  27.646  1.00  0.00     0.092 A 
HETATM   12  C10 UNL     1      -7.259   2.633  28.322  1.00  0.00     0.061 A 
HETATM   13  C11 UNL     1      -6.323   2.025  29.059  1.00  0.00     0.108 A 
HETATM   14  N7  UNL     1      -5.098   2.574  29.069  1.00  0.00    -0.321 N 
HETATM   15  S1  UNL     1      -5.239   3.914  28.075  1.00  0.00    -0.009 SA
ATOM     16  H7  UNL     1      -4.271   2.249  29.569  1.00  0.00     0.174 HD
BRANCH  13  17
HETATM   17  C12 UNL     1      -6.532   0.792  29.873  1.00  0.00     0.272 C 
HETATM   18  O6  UNL     1      -7.663   0.256  29.785  1.00  0.00    -0.266 OA
HETATM   19  N4  UNL     1      -5.576   0.238  30.683  1.00  0.00    -0.329 N 
HETATM   20  C13 UNL     1      -5.034   0.395  31.775  1.00  0.00     0.125 C 
ATOM     21  H4  UNL     1      -5.179  -0.582  30.225  1.00  0.00     0.168 HD
BRANCH  20  22
HETATM   22  C14 UNL     1      -5.312   1.447  32.753  1.00  0.00     0.103 A 
HETATM   23  N5  UNL     1      -6.116   1.438  33.826  1.00  0.00    -0.304 N 
HETATM   24  C15 UNL     1      -6.041   2.628  34.457  1.00  0.00     0.326 A 
ATOM     25  H5  UNL     1      -6.694   0.651  34.121  1.00  0.00     0.171 HD
HETATM   26  O7  UNL     1      -6.690   2.910  35.501  1.00  0.00    -0.247 OA
HETATM   27  N6  UNL     1      -5.183   3.384  33.768  1.00  0.00    -0.287 N 
HETATM   28  C16 UNL     1      -4.713   2.708  32.722  1.00  0.00     0.172 A 
ATOM     29  H6  UNL     1      -4.926   4.341  34.008  1.00  0.00     0.172 HD
BRANCH  28  30
HETATM   30  O8  UNL     1      -3.793   3.153  31.760  1.00  0.00    -0.344 OA
ATOM     31  H8  UNL     1      -2.880   3.359  31.922  1.00  0.00     0.219 HD
ENDBRANCH  28  30
ENDBRANCH  20  22
ENDBRANCH  13  17
ENDBRANCH   8  11
ENDBRANCH   5   7
BRANCH   6  32
HETATM   32  C17 UNL     1      -8.141   7.486  23.762  1.00  0.00     0.164 C 
HETATM   33  C18 UNL     1      -8.702   8.132  24.952  1.00  0.00     0.149 C 
HETATM   34  C19 UNL     1      -9.878   7.485  25.633  1.00  0.00     0.353 C 
HETATM   35  N9  UNL     1     -10.243   6.300  24.883  1.00  0.00    -0.026 N 
HETATM   36  C20 UNL     1     -10.324   6.688  23.509  1.00  0.00     0.411 C 
ATOM     37  H92 UNL     1      -9.613   5.514  25.043  1.00  0.00     0.282 HD
ATOM     38  H91 UNL     1     -11.094   5.855  25.226  1.00  0.00     0.282 HD
HETATM   39  O13 UNL     1      -9.131   7.008  22.942  1.00  0.00    -0.309 OA
BRANCH  34  40
HETATM   40  O9  UNL     1     -11.018   8.296  25.627  1.00  0.00    -0.222 OA
BRANCH  40  41
HETATM   41  S2  UNL     1     -12.145   7.583  26.643  1.00  0.00     0.253 S 
HETATM   42  O10 UNL     1     -12.798   8.527  27.578  1.00  0.00    -0.572 OA
HETATM   43  O11 UNL     1     -13.206   6.974  25.736  1.00  0.00    -0.572 OA
HETATM   44  O12 UNL     1     -11.348   6.334  27.452  1.00  0.00    -0.572 OA
ENDBRANCH  40  41
ENDBRANCH  34  40
ENDBRANCH   6  32
BRANCH   1  45
HETATM   45  C4  UNL     1      -6.130   7.104  21.615  1.00  0.00     0.300 C 
BRANCH  45  46
HETATM   46  C3  UNL     1      -6.249   5.800  20.470  1.00  0.00     0.310 C 
BRANCH  46  47
HETATM   47  O2  UNL     1      -6.360   6.612  19.432  1.00  0.00    -0.333 OA
BRANCH  47  48
HETATM   48  C2  UNL     1      -7.337   6.252  18.494  1.00  0.00     0.340 C 
BRANCH  48  49
HETATM   49  O1  UNL     1      -8.141   7.379  18.266  1.00  0.00    -0.372 OA
HETATM   50  C1  UNL     1      -7.350   8.537  18.268  1.00  0.00     0.204 C 
ENDBRANCH  48  49
ENDBRANCH  47  48
ENDBRANCH  46  47
BRANCH  46  51
HETATM   51  O3  UNL     1      -7.852   5.743  20.697  1.00  0.00    -0.367 OA
ATOM     52  H3  UNL     1      -7.763   5.341  21.553  1.00  0.00     0.212 HD
ENDBRANCH  46  51
ENDBRANCH  45  46
BRANCH  45  53
HETATM   53  O4  UNL     1      -4.931   7.601  21.185  1.00  0.00    -0.365 OA
HETATM   54  C5  UNL     1      -4.676   8.920  21.384  1.00  0.00     0.204 C 
ENDBRANCH  45  53
ENDBRANCH   1  45
TORSDOF 15
ENDMDL
MODEL 3
REMARK VINA RESULT: -8.286466383      4.578      8.489
REMARK  15 active torsions:
REMARK  status: ('A' for Active; 'I' for Inactive)
REMARK    1  A    between atoms: O1_2  and  C2_3 
REMARK    2  A    between atoms: C2_3  and  O2_4 
REMARK    3  A    between atoms: O2_4  and  C3_5 
REMARK    4  A    between atoms: C3_5  and  O3_6 
REMARK    5  A    between atoms: C3_5  and  C4_8 
REMARK    6  A    between atoms: C4_8  and  O4_9 
REMARK    7  A    between atoms: C4_8  and  N1_11 
REMARK    8  A    between atoms: C7_15  and  N3_16 
REMARK       I    between atoms: N3_16  and  C8_18 
REMARK    9  A    between atoms: C8_18  and  C9_20 
REMARK   10  A    between atoms: C11_22  and  C12_23 
REMARK       I    between atoms: C12_23  and  N4_25 
REMARK   11  A    between atoms: C13_27  and  C14_28 
REMARK   12  A    between atoms: C16_35  and  O8_36 
REMARK   13  A    between atoms: N8_41  and  C17_42 
REMARK   14  A    between atoms: C19_44  and  O9_45 
REMARK   15  A    between atoms: O9_45  and  S2_46 
ROOT
HETATM    1  N1  UNL     1      -6.220   6.473  22.918  1.00  0.00    -0.230 N 
HETATM    2  C6  UNL     1      -5.315   5.586  23.374  1.00  0.00     0.222 A 
HETATM    3  N2  UNL     1      -5.649   5.174  24.595  1.00  0.00    -0.184 N 
ATOM      4  H2  UNL     1      -5.136   4.504  25.168  1.00  0.00     0.185 HD
HETATM    5  C7  UNL     1      -6.801   5.810  24.940  1.00  0.00     0.709 A 
HETATM    6  N8  UNL     1      -7.124   6.590  23.907  1.00  0.00    -0.061 N 
ENDROOT
BRANCH   5   7
HETATM    7  N3  UNL     1      -7.416   5.650  26.064  1.00  0.00    -0.153 N 
HETATM    8  C8  UNL     1      -7.859   4.520  26.692  1.00  0.00     0.278 C 
HETATM    9  O5  UNL     1      -9.063   4.144  26.512  1.00  0.00    -0.266 OA
ATOM     10  H3  UNL     1      -7.605   6.516  26.569  1.00  0.00     0.187 HD
BRANCH   8  11
HETATM   11  C9  UNL     1      -7.057   3.662  27.593  1.00  0.00     0.092 A 
HETATM   12  C10 UNL     1      -5.764   3.841  28.007  1.00  0.00     0.061 A 
HETATM   13  C11 UNL     1      -5.267   2.928  28.849  1.00  0.00     0.108 A 
HETATM   14  N7  UNL     1      -6.077   1.922  29.211  1.00  0.00    -0.321 N 
HETATM   15  S1  UNL     1      -7.508   2.232  28.397  1.00  0.00    -0.009 SA
ATOM     16  H7  UNL     1      -5.870   1.146  29.839  1.00  0.00     0.174 HD
BRANCH  13  17
HETATM   17  C12 UNL     1      -3.885   2.936  29.411  1.00  0.00     0.272 C 
HETATM   18  O6  UNL     1      -2.949   2.890  28.577  1.00  0.00    -0.266 OA
HETATM   19  N4  UNL     1      -3.603   2.991  30.751  1.00  0.00    -0.329 N 
HETATM   20  C13 UNL     1      -3.588   2.287  31.758  1.00  0.00     0.125 C 
ATOM     21  H4  UNL     1      -3.306   3.935  30.995  1.00  0.00     0.168 HD
BRANCH  20  22
HETATM   22  C14 UNL     1      -3.936   0.869  31.847  1.00  0.00     0.103 A 
HETATM   23  N5  UNL     1      -4.803   0.242  32.656  1.00  0.00    -0.304 N 
HETATM   24  C15 UNL     1      -4.819  -1.075  32.367  1.00  0.00     0.326 A 
ATOM     25  H5  UNL     1      -5.365   0.692  33.379  1.00  0.00     0.171 HD
HETATM   26  O7  UNL     1      -5.541  -1.916  32.967  1.00  0.00    -0.247 OA
HETATM   27  N6  UNL     1      -3.953  -1.269  31.369  1.00  0.00    -0.287 N 
HETATM   28  C16 UNL     1      -3.391  -0.113  31.018  1.00  0.00     0.172 A 
ATOM     29  H6  UNL     1      -3.750  -2.170  30.938  1.00  0.00     0.172 HD
BRANCH  28  30
HETATM   30  O8  UNL     1      -2.435   0.103  30.014  1.00  0.00    -0.344 OA
ATOM     31  H8  UNL     1      -2.028  -0.572  29.484  1.00  0.00     0.219 HD
ENDBRANCH  28  30
ENDBRANCH  20  22
ENDBRANCH  13  17
ENDBRANCH   8  11
ENDBRANCH   5   7
BRANCH   6  32
HETATM   32  C17 UNL     1      -8.247   7.475  23.765  1.00  0.00     0.164 C 
HETATM   33  C18 UNL     1      -8.780   8.156  24.949  1.00  0.00     0.149 C 
HETATM   34  C19 UNL     1      -9.949   7.538  25.667  1.00  0.00     0.353 C 
HETATM   35  N9  UNL     1     -10.340   6.339  24.954  1.00  0.00    -0.026 N 
HETATM   36  C20 UNL     1     -10.442   6.693  23.573  1.00  0.00     0.411 C 
ATOM     37  H92 UNL     1      -9.715   5.551  25.122  1.00  0.00     0.282 HD
ATOM     38  H91 UNL     1     -11.189   5.911  25.323  1.00  0.00     0.282 HD
HETATM   39  O13 UNL     1      -9.257   6.987  22.975  1.00  0.00    -0.309 OA
BRANCH  34  40
HETATM   40  O9  UNL     1     -11.082   8.360  25.661  1.00  0.00    -0.222 OA
BRANCH  40  41
HETATM   41  S2  UNL     1     -12.252   7.608  26.596  1.00  0.00     0.253 S 
HETATM   42  O10 UNL     1     -13.279   6.885  25.813  1.00  0.00    -0.572 OA
HETATM   43  O11 UNL     1     -11.512   6.611  27.478  1.00  0.00    -0.572 OA
HETATM   44  O12 UNL     1     -12.925   8.801  27.583  1.00  0.00    -0.572 OA
ENDBRANCH  40  41
ENDBRANCH  34  40
ENDBRANCH   6  32
BRANCH   1  45
HETATM   45  C4  UNL     1      -6.191   7.142  21.654  1.00  0.00     0.300 C 
BRANCH  45  46
HETATM   46  C3  UNL     1      -6.294   5.870  20.472  1.00  0.00     0.310 C 
BRANCH  46  47
HETATM   47  O2  UNL     1      -6.442   6.709  19.460  1.00  0.00    -0.333 OA
BRANCH  47  48
HETATM   48  C2  UNL     1      -7.331   6.290  18.462  1.00  0.00     0.340 C 
BRANCH  48  49
HETATM   49  O1  UNL     1      -8.145   7.384  18.132  1.00  0.00    -0.372 OA
HETATM   50  C1  UNL     1      -7.422   8.576  18.280  1.00  0.00     0.204 C 
ENDBRANCH  48  49
ENDBRANCH  47  48
ENDBRANCH  46  47
BRANCH  46  51
HETATM   51  O3  UNL     1      -7.891   5.765  20.721  1.00  0.00    -0.367 OA
ATOM     52  H3  UNL     1      -7.782   5.221  21.492  1.00  0.00     0.212 HD
ENDBRANCH  46  51
ENDBRANCH  45  46
BRANCH  45  53
HETATM   53  O4  UNL     1      -4.981   7.642  21.262  1.00  0.00    -0.365 OA
HETATM   54  C5  UNL     1      -4.782   8.983  21.349  1.00  0.00     0.204 C 
ENDBRANCH  45  53
ENDBRANCH   1  45
TORSDOF 15
ENDMDL
MODEL 4
REMARK VINA RESULT: -8.276321421      4.735      8.479
REMARK  15 active torsions:
REMARK  status: ('A' for Active; 'I' for Inactive)
REMARK    1  A    between atoms: O1_2  and  C2_3 
REMARK    2  A    between atoms: C2_3  and  O2_4 
REMARK    3  A    between atoms: O2_4  and  C3_5 
REMARK    4  A    between atoms: C3_5  and  O3_6 
REMARK    5  A    between atoms: C3_5  and  C4_8 
REMARK    6  A    between atoms: C4_8  and  O4_9 
REMARK    7  A    between atoms: C4_8  and  N1_11 
REMARK    8  A    between atoms: C7_15  and  N3_16 
REMARK       I    between atoms: N3_16  and  C8_18 
REMARK    9  A    between atoms: C8_18  and  C9_20 
REMARK   10  A    between atoms: C11_22  and  C12_23 
REMARK       I    between atoms: C12_23  and  N4_25 
REMARK   11  A    between atoms: C13_27  and  C14_28 
REMARK   12  A    between atoms: C16_35  and  O8_36 
REMARK   13  A    between atoms: N8_41  and  C17_42 
REMARK   14  A    between atoms: C19_44  and  O9_45 
REMARK   15  A    between atoms: O9_45  and  S2_46 
ROOT
HETATM    1  N1  UNL     1      -5.949   6.513  22.880  1.00  0.00    -0.230 N 
HETATM    2  C6  UNL     1      -5.004   5.647  23.293  1.00  0.00     0.222 A 
HETATM    3  N2  UNL     1      -5.235   5.280  24.552  1.00  0.00    -0.184 N 
ATOM      4  H2  UNL     1      -4.673   4.634  25.106  1.00  0.00     0.185 HD
HETATM    5  C7  UNL     1      -6.359   5.924  24.966  1.00  0.00     0.709 A 
HETATM    6  N8  UNL     1      -6.771   6.663  23.935  1.00  0.00    -0.061 N 
ENDROOT
BRANCH   5   7
HETATM    7  N3  UNL     1      -6.881   5.803  26.141  1.00  0.00    -0.153 N 
HETATM    8  C8  UNL     1      -7.228   4.694  26.860  1.00  0.00     0.278 C 
HETATM    9  O5  UNL     1      -8.426   4.264  26.795  1.00  0.00    -0.266 OA
ATOM     10  H3  UNL     1      -7.065   6.688  26.614  1.00  0.00     0.187 HD
BRANCH   8  11
HETATM   11  C9  UNL     1      -6.325   3.917  27.739  1.00  0.00     0.092 A 
HETATM   12  C10 UNL     1      -6.650   2.926  28.627  1.00  0.00     0.061 A 
HETATM   13  C11 UNL     1      -5.640   2.355  29.294  1.00  0.00     0.108 A 
HETATM   14  N7  UNL     1      -4.403   2.805  29.033  1.00  0.00    -0.321 N 
HETATM   15  S1  UNL     1      -4.632   4.000  27.883  1.00  0.00    -0.009 SA
ATOM     16  H7  UNL     1      -3.524   2.490  29.443  1.00  0.00     0.174 HD
BRANCH  13  17
HETATM   17  C12 UNL     1      -5.780   1.268  30.306  1.00  0.00     0.272 C 
HETATM   18  O6  UNL     1      -6.634   1.456  31.205  1.00  0.00    -0.266 OA
HETATM   19  N4  UNL     1      -5.044   0.113  30.295  1.00  0.00    -0.329 N 
HETATM   20  C13 UNL     1      -3.923  -0.314  30.566  1.00  0.00     0.125 C 
ATOM     21  H4  UNL     1      -5.620  -0.651  29.943  1.00  0.00     0.168 HD
BRANCH  20  22
HETATM   22  C14 UNL     1      -2.797   0.448  31.103  1.00  0.00     0.103 A 
HETATM   23  N5  UNL     1      -2.504   0.781  32.369  1.00  0.00    -0.304 N 
HETATM   24  C15 UNL     1      -1.345   1.471  32.399  1.00  0.00     0.326 A 
ATOM     25  H5  UNL     1      -3.071   0.547  33.184  1.00  0.00     0.171 HD
HETATM   26  O7  UNL     1      -0.821   1.915  33.456  1.00  0.00    -0.247 OA
HETATM   27  N6  UNL     1      -0.914   1.569  31.139  1.00  0.00    -0.287 N 
HETATM   28  C16 UNL     1      -1.764   0.961  30.314  1.00  0.00     0.172 A 
ATOM     29  H6  UNL     1      -0.058   2.040  30.850  1.00  0.00     0.172 HD
BRANCH  28  30
HETATM   30  O8  UNL     1      -1.666   0.843  28.919  1.00  0.00    -0.344 OA
ATOM     31  H8  UNL     1      -1.157   0.189  28.454  1.00  0.00     0.219 HD
ENDBRANCH  28  30
ENDBRANCH  20  22
ENDBRANCH  13  17
ENDBRANCH   8  11
ENDBRANCH   5   7
BRANCH   6  32
HETATM   32  C17 UNL     1      -7.908   7.537  23.852  1.00  0.00     0.164 C 
HETATM   33  C18 UNL     1      -8.467   8.110  25.081  1.00  0.00     0.149 C 
HETATM   34  C19 UNL     1      -9.632   7.415  25.732  1.00  0.00     0.353 C 
HETATM   35  N9  UNL     1      -9.993   6.272  24.919  1.00  0.00    -0.026 N 
HETATM   36  C20 UNL     1     -10.087   6.736  23.570  1.00  0.00     0.411 C 
ATOM     37  H92 UNL     1      -9.355   5.484  25.029  1.00  0.00     0.282 HD
ATOM     38  H91 UNL     1     -10.838   5.801  25.241  1.00  0.00     0.282 HD
HETATM   39  O13 UNL     1      -8.901   7.099  23.013  1.00  0.00    -0.309 OA
BRANCH  34  40
HETATM   40  O9  UNL     1     -10.779   8.215  25.780  1.00  0.00    -0.222 OA
BRANCH  40  41
HETATM   41  S2  UNL     1     -11.917   7.405  26.705  1.00  0.00     0.253 S 
HETATM   42  O10 UNL     1     -12.607   8.259  27.699  1.00  0.00    -0.572 OA
HETATM   43  O11 UNL     1     -12.947   6.857  25.726  1.00  0.00    -0.572 OA
HETATM   44  O12 UNL     1     -11.118   6.105  27.428  1.00  0.00    -0.572 OA
ENDBRANCH  40  41
ENDBRANCH  34  40
ENDBRANCH   6  32
BRANCH   1  45
HETATM   45  C4  UNL     1      -6.028   7.134  21.594  1.00  0.00     0.300 C 
BRANCH  45  46
HETATM   46  C3  UNL     1      -6.203   5.817  20.472  1.00  0.00     0.310 C 
BRANCH  46  47
HETATM   47  O2  UNL     1      -6.362   6.617  19.430  1.00  0.00    -0.333 OA
BRANCH  47  48
HETATM   48  C2  UNL     1      -7.330   6.207  18.504  1.00  0.00     0.340 C 
BRANCH  48  49
HETATM   49  O1  UNL     1      -8.162   7.307  18.247  1.00  0.00    -0.372 OA
HETATM   50  C1  UNL     1      -7.412   8.491  18.281  1.00  0.00     0.204 C 
ENDBRANCH  48  49
ENDBRANCH  47  48
ENDBRANCH  46  47
BRANCH  46  51
HETATM   51  O3  UNL     1      -7.794   5.767  20.774  1.00  0.00    -0.367 OA
ATOM     52  H3  UNL     1      -7.663   5.413  21.646  1.00  0.00     0.212 HD
ENDBRANCH  46  51
ENDBRANCH  45  46
BRANCH  45  53
HETATM   53  O4  UNL     1      -4.859   7.634  21.091  1.00  0.00    -0.365 OA
HETATM   54  C5  UNL     1      -4.638   8.970  21.190  1.00  0.00     0.204 C 
ENDBRANCH  45  53
ENDBRANCH   1  45
TORSDOF 15
ENDMDL
MODEL 5
REMARK VINA RESULT: -8.239039354      5.674      9.539
REMARK  15 active torsions:
REMARK  status: ('A' for Active; 'I' for Inactive)
REMARK    1  A    between atoms: O1_2  and  C2_3 
REMARK    2  A    between atoms: C2_3  and  O2_4 
REMARK    3  A    between atoms: O2_4  and  C3_5 
REMARK    4  A    between atoms: C3_5  and  O3_6 
REMARK    5  A    between atoms: C3_5  and  C4_8 
REMARK    6  A    between atoms: C4_8  and  O4_9 
REMARK    7  A    between atoms: C4_8  and  N1_11 
REMARK    8  A    between atoms: C7_15  and  N3_16 
REMARK       I    between atoms: N3_16  and  C8_18 
REMARK    9  A    between atoms: C8_18  and  C9_20 
REMARK   10  A    between atoms: C11_22  and  C12_23 
REMARK       I    between atoms: C12_23  and  N4_25 
REMARK   11  A    between atoms: C13_27  and  C14_28 
REMARK   12  A    between atoms: C16_35  and  O8_36 
REMARK   13  A    between atoms: N8_41  and  C17_42 
REMARK   14  A    between atoms: C19_44  and  O9_45 
REMARK   15  A    between atoms: O9_45  and  S2_46 
ROOT
HETATM    1  N1  UNL     1      -7.642   6.696  25.383  1.00  0.00    -0.230 N 
HETATM    2  C6  UNL     1      -6.605   7.065  24.606  1.00  0.00     0.222 A 
HETATM    3  N2  UNL     1      -5.679   6.108  24.589  1.00  0.00    -0.184 N 
ATOM      4  H2  UNL     1      -4.796   6.132  24.080  1.00  0.00     0.185 HD
HETATM    5  C7  UNL     1      -6.128   5.092  25.373  1.00  0.00     0.709 A 
HETATM    6  N8  UNL     1      -7.317   5.473  25.841  1.00  0.00    -0.061 N 
ENDROOT
BRANCH   5   7
HETATM    7  N3  UNL     1      -5.483   3.993  25.587  1.00  0.00    -0.153 N 
HETATM    8  C8  UNL     1      -4.218   3.771  26.053  1.00  0.00     0.278 C 
HETATM    9  O5  UNL     1      -3.268   3.620  25.216  1.00  0.00    -0.266 OA
ATOM     10  H3  UNL     1      -6.008   3.146  25.370  1.00  0.00     0.187 HD
BRANCH   8  11
HETATM   11  C9  UNL     1      -3.825   3.680  27.477  1.00  0.00     0.092 A 
HETATM   12  C10 UNL     1      -3.275   2.616  28.140  1.00  0.00     0.061 A 
HETATM   13  C11 UNL     1      -2.986   2.792  29.434  1.00  0.00     0.108 A 
HETATM   14  N7  UNL     1      -3.260   3.994  29.965  1.00  0.00    -0.321 N 
HETATM   15  S1  UNL     1      -3.910   4.868  28.692  1.00  0.00    -0.009 SA
ATOM     16  H7  UNL     1      -3.107   4.305  30.924  1.00  0.00     0.174 HD
BRANCH  13  17
HETATM   17  C12 UNL     1      -2.391   1.762  30.334  1.00  0.00     0.272 C 
HETATM   18  O6  UNL     1      -2.255   0.614  29.846  1.00  0.00    -0.266 OA
HETATM   19  N4  UNL     1      -2.000   2.006  31.624  1.00  0.00    -0.329 N 
HETATM   20  C13 UNL     1      -2.459   2.162  32.753  1.00  0.00     0.125 C 
ATOM     21  H4  UNL     1      -0.984   2.084  31.659  1.00  0.00     0.168 HD
BRANCH  20  22
HETATM   22  C14 UNL     1      -3.867   2.120  33.145  1.00  0.00     0.103 A 
HETATM   23  N5  UNL     1      -4.612   3.031  33.788  1.00  0.00    -0.304 N 
HETATM   24  C15 UNL     1      -5.875   2.576  33.913  1.00  0.00     0.326 A 
ATOM     25  H5  UNL     1      -4.275   3.931  34.130  1.00  0.00     0.171 HD
HETATM   26  O7  UNL     1      -6.800   3.220  34.478  1.00  0.00    -0.247 OA
HETATM   27  N6  UNL     1      -5.916   1.369  33.343  1.00  0.00    -0.287 N 
HETATM   28  C16 UNL     1      -4.716   1.049  32.860  1.00  0.00     0.172 A 
ATOM     29  H6  UNL     1      -6.744   0.778  33.285  1.00  0.00     0.172 HD
BRANCH  28  30
HETATM   30  O8  UNL     1      -4.350  -0.129  32.191  1.00  0.00    -0.344 OA
ATOM     31  H8  UNL     1      -4.643  -0.386  31.325  1.00  0.00     0.219 HD
ENDBRANCH  28  30
ENDBRANCH  20  22
ENDBRANCH  13  17
ENDBRANCH   8  11
ENDBRANCH   5   7
BRANCH   6  32
HETATM   32  C17 UNL     1      -8.207   4.766  26.720  1.00  0.00     0.164 C 
HETATM   33  C18 UNL     1      -7.666   4.107  27.913  1.00  0.00     0.149 C 
HETATM   34  C19 UNL     1      -7.329   2.643  27.833  1.00  0.00     0.353 C 
HETATM   35  N9  UNL     1      -7.674   2.167  26.509  1.00  0.00    -0.026 N 
HETATM   36  C20 UNL     1      -9.003   2.621  26.239  1.00  0.00     0.411 C 
ATOM     37  H92 UNL     1      -7.001   2.446  25.795  1.00  0.00     0.282 HD
ATOM     38  H91 UNL     1      -7.564   1.159  26.403  1.00  0.00     0.282 HD
HETATM   39  O13 UNL     1      -9.119   3.966  26.080  1.00  0.00    -0.309 OA
BRANCH  34  40
HETATM   40  O9  UNL     1      -8.086   1.865  28.717  1.00  0.00    -0.222 OA
BRANCH  40  41
HETATM   41  S2  UNL     1      -7.090   1.451  29.999  1.00  0.00     0.253 S 
HETATM   42  O10 UNL     1      -6.083   2.482  30.341  1.00  0.00    -0.572 OA
HETATM   43  O11 UNL     1      -8.007   1.241  31.197  1.00  0.00    -0.572 OA
HETATM   44  O12 UNL     1      -6.378  -0.028  29.603  1.00  0.00    -0.572 OA
ENDBRANCH  40  41
ENDBRANCH  34  40
ENDBRANCH   6  32
BRANCH   1  45
HETATM   45  C4  UNL     1      -8.816   7.466  25.654  1.00  0.00     0.300 C 
BRANCH  45  46
HETATM   46  C3  UNL     1      -9.708   7.463  24.160  1.00  0.00     0.310 C 
BRANCH  46  47
HETATM   47  O2  UNL     1     -10.613   8.319  24.603  1.00  0.00    -0.333 OA
BRANCH  47  48
HETATM   48  C2  UNL     1     -11.913   7.809  24.718  1.00  0.00     0.340 C 
BRANCH  48  49
HETATM   49  O1  UNL     1     -12.356   8.067  26.024  1.00  0.00    -0.372 OA
HETATM   50  C1  UNL     1     -13.482   7.283  26.309  1.00  0.00     0.204 C 
ENDBRANCH  48  49
ENDBRANCH  47  48
ENDBRANCH  46  47
BRANCH  46  51
HETATM   51  O3  UNL     1     -10.558   6.181  24.668  1.00  0.00    -0.367 OA
ATOM     52  H3  UNL     1      -9.929   5.565  24.313  1.00  0.00     0.212 HD
ENDBRANCH  46  51
ENDBRANCH  45  46
BRANCH  45  53
HETATM   53  O4  UNL     1      -8.644   8.819  25.748  1.00  0.00    -0.365 OA
HETATM   54  C5  UNL     1      -8.059   9.315  26.869  1.00  0.00     0.204 C 
ENDBRANCH  45  53
ENDBRANCH   1  45
TORSDOF 15
ENDMDL
