MODEL 1
REMARK VINA RESULT: -6.831533766      0.000      0.000
REMARK  14 active torsions:
REMARK  status: ('A' for Active; 'I' for Inactive)
REMARK    1  A    between atoms: O1_2  and  C2_3 
REMARK    2  A    between atoms: C3_4  and  O2_5 
REMARK    3  A    between atoms: C4_7  and  N1_8 
REMARK    4  A    between atoms: C9_20  and  S2_21 
REMARK    5  A    between atoms: S2_21  and  O5_24 
REMARK    6  A    between atoms: C14_30  and  N4_31 
REMARK    7  A    between atoms: N4_31  and  C15_33 
REMARK    8  A    between atoms: C18_41  and  O8_42 
REMARK    9  A    between atoms: O8_42  and  C19_43 
REMARK   10  A    between atoms: C19_43  and  C20_44 
REMARK   11  A    between atoms: C20_44  and  O9_45 
REMARK   12  A    between atoms: C20_44  and  C21_47 
REMARK   13  A    between atoms: C21_47  and  N7_48 
REMARK   14  A    between atoms: N7_48  and  S3_50 
ROOT
HETATM    1  C2  UNL     1      -3.687   8.037  16.905  1.00  0.00     0.192 C 
HETATM    2  C3  UNL     1      -3.719   9.561  16.658  1.00  0.00     0.181 C 
HETATM    3  C4  UNL     1      -2.924  10.196  17.725  1.00  0.00     0.222 C 
HETATM    4  C5  UNL     1      -2.412   9.014  18.549  1.00  0.00     0.071 C 
HETATM    5  C6  UNL     1      -1.073   8.749  18.048  1.00  0.00     0.091 C 
HETATM    6  S1  UNL     1      -0.102   7.528  18.977  1.00  0.00    -0.110 SA
HETATM    7  C7  UNL     1      -1.138   7.105  20.388  1.00  0.00     0.099 A 
HETATM    8  N2  UNL     1      -0.736   7.072  21.631  1.00  0.00    -0.291 N 
ATOM      9  H2  UNL     1       0.204   7.271  21.972  1.00  0.00     0.188 HD
HETATM   10  N3  UNL     1      -1.746   6.743  22.338  1.00  0.00    -0.283 N 
HETATM   11  C8  UNL     1      -1.748   6.585  23.797  1.00  0.00     0.179 C 
HETATM   12  C9  UNL     1      -2.905   6.530  21.614  1.00  0.00     0.187 A 
HETATM   13  C11 UNL     1      -2.459   6.782  20.304  1.00  0.00     0.084 A 
HETATM   14  C12 UNL     1      -3.229   6.710  19.033  1.00  0.00     0.236 C 
HETATM   15  O6  UNL     1      -2.346   6.104  18.074  1.00  0.00    -0.344 OA
HETATM   16  C13 UNL     1      -2.260   4.780  18.448  1.00  0.00     0.225 C 
HETATM   17  C14 UNL     1      -3.636   4.504  19.002  1.00  0.00     0.251 C 
HETATM   18  O7  UNL     1      -4.160   5.762  19.132  1.00  0.00    -0.321 OA
HETATM   19  C18 UNL     1      -3.540   8.019  18.392  1.00  0.00     0.157 C 
ENDROOT
BRANCH  19  20
HETATM   20  O8  UNL     1      -4.647   8.694  18.869  1.00  0.00    -0.368 OA
BRANCH  20  21
HETATM   21  C19 UNL     1      -5.731   8.058  19.283  1.00  0.00     0.202 C 
BRANCH  21  22
HETATM   22  C20 UNL     1      -7.047   8.535  18.675  1.00  0.00     0.160 C 
BRANCH  22  23
HETATM   23  O9  UNL     1      -7.024   9.770  18.116  1.00  0.00    -0.392 OA
ATOM     24  H9  UNL     1      -7.415   9.840  17.253  1.00  0.00     0.210 HD
ENDBRANCH  22  23
BRANCH  22  25
HETATM   25  C21 UNL     1      -7.527   7.545  17.624  1.00  0.00     0.165 C 
BRANCH  25  26
HETATM   26  N7  UNL     1      -6.747   6.353  17.602  1.00  0.00    -0.317 N 
ATOM     27  H7  UNL     1      -5.772   6.268  17.315  1.00  0.00     0.172 HD
BRANCH  26  28
HETATM   28  S3  UNL     1      -7.783   5.064  18.164  1.00  0.00     0.222 S 
HETATM   29  C22 UNL     1      -7.491   4.798  19.907  1.00  0.00     0.185 C 
HETATM   30  O10 UNL     1      -9.226   5.446  18.009  1.00  0.00    -0.206 OA
HETATM   31  O11 UNL     1      -7.546   3.805  17.399  1.00  0.00    -0.206 OA
ENDBRANCH  26  28
ENDBRANCH  25  26
ENDBRANCH  22  25
ENDBRANCH  21  22
ENDBRANCH  20  21
ENDBRANCH  19  20
BRANCH  12  32
HETATM   32  S2  UNL     1      -4.587   6.031  22.167  1.00  0.00     0.315 S 
HETATM   33  O3  UNL     1      -3.989   5.245  23.607  1.00  0.00    -0.192 OA
HETATM   34  O4  UNL     1      -5.036   8.017  22.478  1.00  0.00    -0.192 OA
BRANCH  32  35
HETATM   35  O5  UNL     1      -5.953   5.994  22.884  1.00  0.00    -0.276 OA
HETATM   36  C10 UNL     1      -6.292   5.051  23.814  1.00  0.00     0.226 C 
ENDBRANCH  32  35
ENDBRANCH  12  32
BRANCH  17  37
HETATM   37  N4  UNL     1      -4.447   3.690  18.154  1.00  0.00    -0.334 N 
ATOM     38  H4  UNL     1      -4.966   4.155  17.409  1.00  0.00     0.165 HD
BRANCH  37  39
HETATM   39  C15 UNL     1      -4.582   2.286  18.270  1.00  0.00     0.173 C 
HETATM   40  N5  UNL     1      -3.612   1.455  18.367  1.00  0.00    -0.361 N 
HETATM   41  C16 UNL     1      -4.080   0.098  18.471  1.00  0.00     0.142 C 
ATOM     42  H5  UNL     1      -2.628   1.723  18.370  1.00  0.00     0.162 HD
HETATM   43  C17 UNL     1      -5.583   0.209  18.655  1.00  0.00     0.142 C 
HETATM   44  N6  UNL     1      -5.832   1.592  18.296  1.00  0.00    -0.361 N 
ATOM     45  H6  UNL     1      -6.745   2.000  18.096  1.00  0.00     0.162 HD
ENDBRANCH  37  39
ENDBRANCH  17  37
BRANCH   1  46
HETATM   46  O1  UNL     1      -2.748   7.408  16.155  1.00  0.00    -0.385 OA
HETATM   47  C1  UNL     1      -3.285   6.806  15.048  1.00  0.00     0.202 C 
ENDBRANCH   1  46
BRANCH   2  48
HETATM   48  O2  UNL     1      -3.243   9.843  15.377  1.00  0.00    -0.391 OA
ATOM     49  H2  UNL     1      -3.079  10.774  15.291  1.00  0.00     0.210 HD
ENDBRANCH   2  48
BRANCH   3  50
HETATM   50  N1  UNL     1      -3.571  11.166  18.533  1.00  0.00    -0.072 N 
ATOM     51  H13 UNL     1      -3.379  12.096  18.163  1.00  0.00     0.274 HD
ATOM     52  H12 UNL     1      -4.579  11.108  18.389  1.00  0.00     0.274 HD
ATOM     53  H11 UNL     1      -3.373  11.152  19.534  1.00  0.00     0.274 HD
ENDBRANCH   3  50
TORSDOF 14
ENDMDL
MODEL 2
REMARK VINA RESULT: -6.626774763      0.893      1.062
REMARK  14 active torsions:
REMARK  status: ('A' for Active; 'I' for Inactive)
REMARK    1  A    between atoms: O1_2  and  C2_3 
REMARK    2  A    between atoms: C3_4  and  O2_5 
REMARK    3  A    between atoms: C4_7  and  N1_8 
REMARK    4  A    between atoms: C9_20  and  S2_21 
REMARK    5  A    between atoms: S2_21  and  O5_24 
REMARK    6  A    between atoms: C14_30  and  N4_31 
REMARK    7  A    between atoms: N4_31  and  C15_33 
REMARK    8  A    between atoms: C18_41  and  O8_42 
REMARK    9  A    between atoms: O8_42  and  C19_43 
REMARK   10  A    between atoms: C19_43  and  C20_44 
REMARK   11  A    between atoms: C20_44  and  O9_45 
REMARK   12  A    between atoms: C20_44  and  C21_47 
REMARK   13  A    between atoms: C21_47  and  N7_48 
REMARK   14  A    between atoms: N7_48  and  S3_50 
ROOT
HETATM    1  C2  UNL     1      -3.332   8.353  16.831  1.00  0.00     0.192 C 
HETATM    2  C3  UNL     1      -3.101   9.855  16.558  1.00  0.00     0.181 C 
HETATM    3  C4  UNL     1      -2.213  10.364  17.620  1.00  0.00     0.222 C 
HETATM    4  C5  UNL     1      -1.915   9.126  18.467  1.00  0.00     0.071 C 
HETATM    5  C6  UNL     1      -0.639   8.626  17.981  1.00  0.00     0.091 C 
HETATM    6  S1  UNL     1       0.103   7.273  18.937  1.00  0.00    -0.110 SA
HETATM    7  C7  UNL     1      -0.996   7.060  20.348  1.00  0.00     0.099 A 
HETATM    8  N2  UNL     1      -0.611   6.981  21.594  1.00  0.00    -0.291 N 
ATOM      9  H2  UNL     1       0.348   7.021  21.938  1.00  0.00     0.188 HD
HETATM   10  N3  UNL     1      -1.666   6.843  22.298  1.00  0.00    -0.283 N 
HETATM   11  C8  UNL     1      -1.700   6.714  23.761  1.00  0.00     0.179 C 
HETATM   12  C9  UNL     1      -2.841   6.819  21.570  1.00  0.00     0.187 A 
HETATM   13  C11 UNL     1      -2.352   6.968  20.259  1.00  0.00     0.084 A 
HETATM   14  C12 UNL     1      -3.119   7.006  18.984  1.00  0.00     0.236 C 
HETATM   15  O6  UNL     1      -2.349   6.240  18.042  1.00  0.00    -0.344 OA
HETATM   16  C13 UNL     1      -2.493   4.928  18.439  1.00  0.00     0.225 C 
HETATM   17  C14 UNL     1      -3.899   4.902  18.988  1.00  0.00     0.251 C 
HETATM   18  O7  UNL     1      -4.199   6.234  19.092  1.00  0.00    -0.321 OA
HETATM   19  C18 UNL     1      -3.196   8.337  18.318  1.00  0.00     0.157 C 
ENDROOT
BRANCH  19  20
HETATM   20  O8  UNL     1      -4.173   9.201  18.776  1.00  0.00    -0.368 OA
BRANCH  20  21
HETATM   21  C19 UNL     1      -5.354   8.769  19.189  1.00  0.00     0.202 C 
BRANCH  21  22
HETATM   22  C20 UNL     1      -6.563   9.412  18.518  1.00  0.00     0.160 C 
BRANCH  22  23
HETATM   23  O9  UNL     1      -6.285  10.351  17.579  1.00  0.00    -0.392 OA
ATOM     24  H9  UNL     1      -6.910  11.064  17.510  1.00  0.00     0.210 HD
ENDBRANCH  22  23
BRANCH  22  25
HETATM   25  C21 UNL     1      -7.437   8.343  17.878  1.00  0.00     0.165 C 
BRANCH  25  26
HETATM   26  N7  UNL     1      -7.223   7.054  18.446  1.00  0.00    -0.317 N 
ATOM     27  H7  UNL     1      -6.683   6.840  19.284  1.00  0.00     0.172 HD
BRANCH  26  28
HETATM   28  S3  UNL     1      -8.063   5.911  17.427  1.00  0.00     0.222 S 
HETATM   29  C22 UNL     1      -7.258   5.849  15.832  1.00  0.00     0.185 C 
HETATM   30  O10 UNL     1      -7.989   4.532  18.015  1.00  0.00    -0.206 OA
HETATM   31  O11 UNL     1      -9.501   6.278  17.271  1.00  0.00    -0.206 OA
ENDBRANCH  26  28
ENDBRANCH  25  26
ENDBRANCH  22  25
ENDBRANCH  21  22
ENDBRANCH  20  21
ENDBRANCH  19  20
BRANCH  12  32
HETATM   32  S2  UNL     1      -4.586   6.627  22.120  1.00  0.00     0.315 S 
HETATM   33  O3  UNL     1      -4.130   5.952  23.665  1.00  0.00    -0.192 OA
HETATM   34  O4  UNL     1      -4.759   8.679  22.172  1.00  0.00    -0.192 OA
BRANCH  32  35
HETATM   35  O5  UNL     1      -5.956   6.867  22.787  1.00  0.00    -0.276 OA
HETATM   36  C10 UNL     1      -6.674   5.884  23.412  1.00  0.00     0.226 C 
ENDBRANCH  32  35
ENDBRANCH  12  32
BRANCH  17  37
HETATM   37  N4  UNL     1      -4.834   4.225  18.147  1.00  0.00    -0.334 N 
ATOM     38  H4  UNL     1      -5.446   4.797  17.565  1.00  0.00     0.165 HD
BRANCH  37  39
HETATM   39  C15 UNL     1      -4.973   2.819  18.064  1.00  0.00     0.173 C 
HETATM   40  N5  UNL     1      -4.092   2.015  17.597  1.00  0.00    -0.361 N 
HETATM   41  C16 UNL     1      -4.535   0.647  17.649  1.00  0.00     0.142 C 
ATOM     42  H5  UNL     1      -3.185   2.309  17.232  1.00  0.00     0.162 HD
HETATM   43  C17 UNL     1      -5.817   0.676  18.464  1.00  0.00     0.142 C 
HETATM   44  N6  UNL     1      -6.128   2.092  18.491  1.00  0.00    -0.361 N 
ATOM     45  H6  UNL     1      -7.021   2.501  18.768  1.00  0.00     0.162 HD
ENDBRANCH  37  39
ENDBRANCH  17  37
BRANCH   1  46
HETATM   46  O1  UNL     1      -2.512   7.559  16.098  1.00  0.00    -0.385 OA
HETATM   47  C1  UNL     1      -3.156   6.992  15.031  1.00  0.00     0.202 C 
ENDBRANCH   1  46
BRANCH   2  48
HETATM   48  O2  UNL     1      -2.577  10.028  15.275  1.00  0.00    -0.391 OA
ATOM     49  H2  UNL     1      -3.159  10.575  14.761  1.00  0.00     0.210 HD
ENDBRANCH   2  48
BRANCH   3  50
HETATM   50  N1  UNL     1      -2.687  11.444  18.407  1.00  0.00    -0.072 N 
ATOM     51  H13 UNL     1      -2.226  12.305  18.110  1.00  0.00     0.274 HD
ATOM     52  H12 UNL     1      -3.653  11.648  18.153  1.00  0.00     0.274 HD
ATOM     53  H11 UNL     1      -2.616  11.355  19.420  1.00  0.00     0.274 HD
ENDBRANCH   3  50
TORSDOF 14
ENDMDL
MODEL 3
REMARK VINA RESULT: -6.579763519      0.951      1.204
REMARK  14 active torsions:
REMARK  status: ('A' for Active; 'I' for Inactive)
REMARK    1  A    between atoms: O1_2  and  C2_3 
REMARK    2  A    between atoms: C3_4  and  O2_5 
REMARK    3  A    between atoms: C4_7  and  N1_8 
REMARK    4  A    between atoms: C9_20  and  S2_21 
REMARK    5  A    between atoms: S2_21  and  O5_24 
REMARK    6  A    between atoms: C14_30  and  N4_31 
REMARK    7  A    between atoms: N4_31  and  C15_33 
REMARK    8  A    between atoms: C18_41  and  O8_42 
REMARK    9  A    between atoms: O8_42  and  C19_43 
REMARK   10  A    between atoms: C19_43  and  C20_44 
REMARK   11  A    between atoms: C20_44  and  O9_45 
REMARK   12  A    between atoms: C20_44  and  C21_47 
REMARK   13  A    between atoms: C21_47  and  N7_48 
REMARK   14  A    between atoms: N7_48  and  S3_50 
ROOT
HETATM    1  C2  UNL     1      -3.572   8.066  16.975  1.00  0.00     0.192 C 
HETATM    2  C3  UNL     1      -3.530   9.580  16.669  1.00  0.00     0.181 C 
HETATM    3  C4  UNL     1      -2.674  10.210  17.691  1.00  0.00     0.222 C 
HETATM    4  C5  UNL     1      -2.204   9.033  18.547  1.00  0.00     0.071 C 
HETATM    5  C6  UNL     1      -0.894   8.678  18.024  1.00  0.00     0.091 C 
HETATM    6  S1  UNL     1       0.035   7.441  18.975  1.00  0.00    -0.110 SA
HETATM    7  C7  UNL     1      -0.984   7.129  20.426  1.00  0.00     0.099 A 
HETATM    8  N2  UNL     1      -0.551   7.120  21.660  1.00  0.00    -0.291 N 
ATOM      9  H2  UNL     1       0.408   7.280  21.969  1.00  0.00     0.188 HD
HETATM   10  N3  UNL     1      -1.558   6.873  22.403  1.00  0.00    -0.283 N 
HETATM   11  C8  UNL     1      -1.528   6.770  23.867  1.00  0.00     0.179 C 
HETATM   12  C9  UNL     1      -2.746   6.696  21.717  1.00  0.00     0.187 A 
HETATM   13  C11 UNL     1      -2.322   6.875  20.388  1.00  0.00     0.084 A 
HETATM   14  C12 UNL     1      -3.129   6.798  19.140  1.00  0.00     0.236 C 
HETATM   15  O6  UNL     1      -2.306   6.108  18.183  1.00  0.00    -0.344 OA
HETATM   16  C13 UNL     1      -2.280   4.797  18.607  1.00  0.00     0.225 C 
HETATM   17  C14 UNL     1      -3.654   4.617  19.205  1.00  0.00     0.251 C 
HETATM   18  O7  UNL     1      -4.106   5.905  19.299  1.00  0.00    -0.321 OA
HETATM   19  C18 UNL     1      -3.387   8.096  18.456  1.00  0.00     0.157 C 
ENDROOT
BRANCH  19  20
HETATM   20  O8  UNL     1      -4.443   8.848  18.935  1.00  0.00    -0.368 OA
BRANCH  20  21
HETATM   21  C19 UNL     1      -5.584   8.294  19.310  1.00  0.00     0.202 C 
BRANCH  21  22
HETATM   22  C20 UNL     1      -6.836   8.838  18.629  1.00  0.00     0.160 C 
BRANCH  22  23
HETATM   23  O9  UNL     1      -6.703  10.047  18.029  1.00  0.00    -0.392 OA
ATOM     24  H9  UNL     1      -5.892  10.509  18.208  1.00  0.00     0.210 HD
ENDBRANCH  22  23
BRANCH  22  25
HETATM   25  C21 UNL     1      -7.341   7.845  17.591  1.00  0.00     0.165 C 
BRANCH  25  26
HETATM   26  N7  UNL     1      -6.607   6.624  17.605  1.00  0.00    -0.317 N 
ATOM     27  H7  UNL     1      -5.623   6.502  17.366  1.00  0.00     0.172 HD
BRANCH  26  28
HETATM   28  S3  UNL     1      -7.720   5.375  18.108  1.00  0.00     0.222 S 
HETATM   29  C22 UNL     1      -7.542   5.110  19.867  1.00  0.00     0.185 C 
HETATM   30  O10 UNL     1      -9.137   5.806  17.865  1.00  0.00    -0.206 OA
HETATM   31  O11 UNL     1      -7.481   4.104  17.364  1.00  0.00    -0.206 OA
ENDBRANCH  26  28
ENDBRANCH  25  26
ENDBRANCH  22  25
ENDBRANCH  21  22
ENDBRANCH  20  21
ENDBRANCH  19  20
BRANCH  12  32
HETATM   32  S2  UNL     1      -4.436   6.311  22.331  1.00  0.00     0.315 S 
HETATM   33  O3  UNL     1      -3.858   5.786  23.893  1.00  0.00    -0.192 OA
HETATM   34  O4  UNL     1      -4.874   8.323  22.284  1.00  0.00    -0.192 OA
BRANCH  32  35
HETATM   35  O5  UNL     1      -5.809   6.407  23.029  1.00  0.00    -0.276 OA
HETATM   36  C10 UNL     1      -6.485   5.324  23.518  1.00  0.00     0.226 C 
ENDBRANCH  32  35
ENDBRANCH  12  32
BRANCH  17  37
HETATM   37  N4  UNL     1      -4.530   3.817  18.409  1.00  0.00    -0.334 N 
ATOM     38  H4  UNL     1      -5.477   3.667  18.756  1.00  0.00     0.165 HD
BRANCH  37  39
HETATM   39  C15 UNL     1      -4.179   3.219  17.176  1.00  0.00     0.173 C 
HETATM   40  N5  UNL     1      -4.524   3.650  16.020  1.00  0.00    -0.361 N 
HETATM   41  C16 UNL     1      -4.008   2.820  14.964  1.00  0.00     0.142 C 
ATOM     42  H5  UNL     1      -5.095   4.481  15.867  1.00  0.00     0.162 HD
HETATM   43  C17 UNL     1      -3.047   1.862  15.645  1.00  0.00     0.142 C 
HETATM   44  N6  UNL     1      -3.384   2.037  17.045  1.00  0.00    -0.361 N 
ATOM     45  H6  UNL     1      -3.101   1.422  17.808  1.00  0.00     0.162 HD
ENDBRANCH  37  39
ENDBRANCH  17  37
BRANCH   1  46
HETATM   46  O1  UNL     1      -2.689   7.360  16.226  1.00  0.00    -0.385 OA
HETATM   47  C1  UNL     1      -3.272   6.813  15.114  1.00  0.00     0.202 C 
ENDBRANCH   1  46
BRANCH   2  48
HETATM   48  O2  UNL     1      -3.074   9.787  15.367  1.00  0.00    -0.391 OA
ATOM     49  H2  UNL     1      -3.694   9.423  14.746  1.00  0.00     0.210 HD
ENDBRANCH   2  48
BRANCH   3  50
HETATM   50  N1  UNL     1      -3.246  11.243  18.477  1.00  0.00    -0.072 N 
ATOM     51  H13 UNL     1      -3.694  11.925  17.864  1.00  0.00     0.274 HD
ATOM     52  H12 UNL     1      -4.055  10.877  18.978  1.00  0.00     0.274 HD
ATOM     53  H11 UNL     1      -2.635  11.729  19.133  1.00  0.00     0.274 HD
ENDBRANCH   3  50
TORSDOF 14
ENDMDL
MODEL 4
REMARK VINA RESULT: -6.352838760      1.575      2.133
REMARK  14 active torsions:
REMARK  status: ('A' for Active; 'I' for Inactive)
REMARK    1  A    between atoms: O1_2  and  C2_3 
REMARK    2  A    between atoms: C3_4  and  O2_5 
REMARK    3  A    between atoms: C4_7  and  N1_8 
REMARK    4  A    between atoms: C9_20  and  S2_21 
REMARK    5  A    between atoms: S2_21  and  O5_24 
REMARK    6  A    between atoms: C14_30  and  N4_31 
REMARK    7  A    between atoms: N4_31  and  C15_33 
REMARK    8  A    between atoms: C18_41  and  O8_42 
REMARK    9  A    between atoms: O8_42  and  C19_43 
REMARK   10  A    between atoms: C19_43  and  C20_44 
REMARK   11  A    between atoms: C20_44  and  O9_45 
REMARK   12  A    between atoms: C20_44  and  C21_47 
REMARK   13  A    between atoms: C21_47  and  N7_48 
REMARK   14  A    between atoms: N7_48  and  S3_50 
ROOT
HETATM    1  C2  UNL     1      -3.246   8.264  16.932  1.00  0.00     0.192 C 
HETATM    2  C3  UNL     1      -3.119   9.770  16.615  1.00  0.00     0.181 C 
HETATM    3  C4  UNL     1      -2.225  10.358  17.629  1.00  0.00     0.222 C 
HETATM    4  C5  UNL     1      -1.818   9.163  18.492  1.00  0.00     0.071 C 
HETATM    5  C6  UNL     1      -0.534   8.729  17.967  1.00  0.00     0.091 C 
HETATM    6  S1  UNL     1       0.328   7.449  18.924  1.00  0.00    -0.110 SA
HETATM    7  C7  UNL     1      -0.702   7.206  20.382  1.00  0.00     0.099 A 
HETATM    8  N2  UNL     1      -0.265   7.182  21.614  1.00  0.00    -0.291 N 
ATOM      9  H2  UNL     1       0.702   7.289  21.918  1.00  0.00     0.188 HD
HETATM   10  N3  UNL     1      -1.282   6.997  22.362  1.00  0.00    -0.283 N 
HETATM   11  C8  UNL     1      -1.252   6.904  23.827  1.00  0.00     0.179 C 
HETATM   12  C9  UNL     1      -2.480   6.884  21.682  1.00  0.00     0.187 A 
HETATM   13  C11 UNL     1      -2.052   7.028  20.350  1.00  0.00     0.084 A 
HETATM   14  C12 UNL     1      -2.867   6.988  19.105  1.00  0.00     0.236 C 
HETATM   15  O6  UNL     1      -2.088   6.246  18.151  1.00  0.00    -0.344 OA
HETATM   16  C13 UNL     1      -2.135   4.938  18.584  1.00  0.00     0.225 C 
HETATM   17  C14 UNL     1      -3.515   4.841  19.189  1.00  0.00     0.251 C 
HETATM   18  O7  UNL     1      -3.892   6.154  19.274  1.00  0.00    -0.321 OA
HETATM   19  C18 UNL     1      -3.053   8.294  18.413  1.00  0.00     0.157 C 
ENDROOT
BRANCH  19  20
HETATM   20  O8  UNL     1      -4.063   9.108  18.889  1.00  0.00    -0.368 OA
BRANCH  20  21
HETATM   21  C19 UNL     1      -5.300   9.036  18.423  1.00  0.00     0.202 C 
BRANCH  21  22
HETATM   22  C20 UNL     1      -6.235   8.099  19.180  1.00  0.00     0.160 C 
BRANCH  22  23
HETATM   23  O9  UNL     1      -6.624   8.519  20.408  1.00  0.00    -0.392 OA
ATOM     24  H9  UNL     1      -6.181   8.112  21.144  1.00  0.00     0.210 HD
ENDBRANCH  22  23
BRANCH  22  25
HETATM   25  C21 UNL     1      -7.484   7.826  18.353  1.00  0.00     0.165 C 
BRANCH  25  26
HETATM   26  N7  UNL     1      -7.180   7.512  16.996  1.00  0.00    -0.317 N 
ATOM     27  H7  UNL     1      -6.270   7.244  16.623  1.00  0.00     0.172 HD
BRANCH  26  28
HETATM   28  S3  UNL     1      -8.668   7.678  16.097  1.00  0.00     0.222 S 
HETATM   29  C22 UNL     1      -8.381   7.194  14.401  1.00  0.00     0.185 C 
HETATM   30  O10 UNL     1      -9.719   6.759  16.649  1.00  0.00    -0.206 OA
HETATM   31  O11 UNL     1      -9.186   9.075  16.159  1.00  0.00    -0.206 OA
ENDBRANCH  26  28
ENDBRANCH  25  26
ENDBRANCH  22  25
ENDBRANCH  21  22
ENDBRANCH  20  21
ENDBRANCH  19  20
BRANCH  12  32
HETATM   32  S2  UNL     1      -4.187   6.599  22.305  1.00  0.00     0.315 S 
HETATM   33  O3  UNL     1      -3.638   6.148  23.900  1.00  0.00    -0.192 OA
HETATM   34  O4  UNL     1      -4.549   8.619  22.134  1.00  0.00    -0.192 OA
BRANCH  32  35
HETATM   35  O5  UNL     1      -5.560   6.789  22.984  1.00  0.00    -0.276 OA
HETATM   36  C10 UNL     1      -6.472   5.782  23.138  1.00  0.00     0.226 C 
ENDBRANCH  32  35
ENDBRANCH  12  32
BRANCH  17  37
HETATM   37  N4  UNL     1      -4.438   4.086  18.402  1.00  0.00    -0.334 N 
ATOM     38  H4  UNL     1      -4.052   3.437  17.715  1.00  0.00     0.165 HD
BRANCH  37  39
HETATM   39  C15 UNL     1      -5.846   4.173  18.505  1.00  0.00     0.173 C 
HETATM   40  N5  UNL     1      -6.675   3.894  17.569  1.00  0.00    -0.361 N 
HETATM   41  C16 UNL     1      -8.039   4.084  17.988  1.00  0.00     0.142 C 
ATOM     42  H5  UNL     1      -6.402   3.576  16.639  1.00  0.00     0.162 HD
HETATM   43  C17 UNL     1      -7.963   4.333  19.485  1.00  0.00     0.142 C 
HETATM   44  N6  UNL     1      -6.549   4.589  19.679  1.00  0.00    -0.361 N 
ATOM     45  H6  UNL     1      -6.126   4.997  20.513  1.00  0.00     0.162 HD
ENDBRANCH  37  39
ENDBRANCH  17  37
BRANCH   1  46
HETATM   46  O1  UNL     1      -2.407   7.503  16.186  1.00  0.00    -0.385 OA
HETATM   47  C1  UNL     1      -3.052   6.882  15.150  1.00  0.00     0.202 C 
ENDBRANCH   1  46
BRANCH   2  48
HETATM   48  O2  UNL     1      -2.657   9.942  15.310  1.00  0.00    -0.391 OA
ATOM     49  H2  UNL     1      -3.146  10.635  14.883  1.00  0.00     0.210 HD
ENDBRANCH   2  48
BRANCH   3  50
HETATM   50  N1  UNL     1      -2.734  11.428  18.409  1.00  0.00    -0.072 N 
ATOM     51  H13 UNL     1      -2.088  11.625  19.174  1.00  0.00     0.274 HD
ATOM     52  H12 UNL     1      -2.669  12.295  17.877  1.00  0.00     0.274 HD
ATOM     53  H11 UNL     1      -3.678  11.331  18.781  1.00  0.00     0.274 HD
ENDBRANCH   3  50
TORSDOF 14
ENDMDL
MODEL 5
REMARK VINA RESULT: -6.337566057      6.825      9.990
REMARK  14 active torsions:
REMARK  status: ('A' for Active; 'I' for Inactive)
REMARK    1  A    between atoms: O1_2  and  C2_3 
REMARK    2  A    between atoms: C3_4  and  O2_5 
REMARK    3  A    between atoms: C4_7  and  N1_8 
REMARK    4  A    between atoms: C9_20  and  S2_21 
REMARK    5  A    between atoms: S2_21  and  O5_24 
REMARK    6  A    between atoms: C14_30  and  N4_31 
REMARK    7  A    between atoms: N4_31  and  C15_33 
REMARK    8  A    between atoms: C18_41  and  O8_42 
REMARK    9  A    between atoms: O8_42  and  C19_43 
REMARK   10  A    between atoms: C19_43  and  C20_44 
REMARK   11  A    between atoms: C20_44  and  O9_45 
REMARK   12  A    between atoms: C20_44  and  C21_47 
REMARK   13  A    between atoms: C21_47  and  N7_48 
REMARK   14  A    between atoms: N7_48  and  S3_50 
ROOT
HETATM    1  C2  UNL     1      -9.747   6.382  26.507  1.00  0.00     0.192 C 
HETATM    2  C3  UNL     1     -10.184   7.858  26.380  1.00  0.00     0.181 C 
HETATM    3  C4  UNL     1      -9.215   8.528  25.495  1.00  0.00     0.222 C 
HETATM    4  C5  UNL     1      -8.255   7.408  25.093  1.00  0.00     0.071 C 
HETATM    5  C6  UNL     1      -8.733   6.936  23.803  1.00  0.00     0.091 C 
HETATM    6  S1  UNL     1      -7.669   5.739  22.947  1.00  0.00    -0.110 SA
HETATM    7  C7  UNL     1      -6.204   5.613  23.987  1.00  0.00     0.099 A 
HETATM    8  N2  UNL     1      -4.972   5.690  23.560  1.00  0.00    -0.291 N 
ATOM      9  H2  UNL     1      -4.670   5.824  22.595  1.00  0.00     0.188 HD
HETATM   10  N3  UNL     1      -4.218   5.564  24.581  1.00  0.00    -0.283 N 
HETATM   11  C8  UNL     1      -2.750   5.590  24.563  1.00  0.00     0.179 C 
HETATM   12  C9  UNL     1      -4.895   5.393  25.775  1.00  0.00     0.187 A 
HETATM   13  C11 UNL     1      -6.232   5.430  25.337  1.00  0.00     0.084 A 
HETATM   14  C12 UNL     1      -7.475   5.287  26.143  1.00  0.00     0.236 C 
HETATM   15  O6  UNL     1      -8.360   4.472  25.355  1.00  0.00    -0.344 OA
HETATM   16  C13 UNL     1      -7.823   3.203  25.404  1.00  0.00     0.225 C 
HETATM   17  C14 UNL     1      -7.222   3.153  26.787  1.00  0.00     0.251 C 
HETATM   18  O7  UNL     1      -7.246   4.467  27.168  1.00  0.00    -0.321 OA
HETATM   19  C18 UNL     1      -8.272   6.532  26.325  1.00  0.00     0.157 C 
ENDROOT
BRANCH  19  20
HETATM   20  O8  UNL     1      -7.871   7.380  27.341  1.00  0.00    -0.368 OA
BRANCH  20  21
HETATM   21  C19 UNL     1      -6.782   7.150  28.056  1.00  0.00     0.202 C 
BRANCH  21  22
HETATM   22  C20 UNL     1      -5.724   8.248  28.016  1.00  0.00     0.160 C 
BRANCH  22  23
HETATM   23  O9  UNL     1      -6.033   9.338  27.271  1.00  0.00    -0.392 OA
ATOM     24  H9  UNL     1      -5.785  10.177  27.642  1.00  0.00     0.210 HD
ENDBRANCH  22  23
BRANCH  22  25
HETATM   25  C21 UNL     1      -5.398   8.714  29.428  1.00  0.00     0.165 C 
BRANCH  25  26
HETATM   26  N7  UNL     1      -4.353   7.950  30.024  1.00  0.00    -0.317 N 
ATOM     27  H7  UNL     1      -4.337   6.939  30.158  1.00  0.00     0.172 HD
BRANCH  26  28
HETATM   28  S3  UNL     1      -3.103   9.081  30.483  1.00  0.00     0.222 S 
HETATM   29  C22 UNL     1      -1.606   8.178  30.852  1.00  0.00     0.185 C 
HETATM   30  O10 UNL     1      -2.792  10.009  29.344  1.00  0.00    -0.206 OA
HETATM   31  O11 UNL     1      -3.519   9.902  31.657  1.00  0.00    -0.206 OA
ENDBRANCH  26  28
ENDBRANCH  25  26
ENDBRANCH  22  25
ENDBRANCH  21  22
ENDBRANCH  20  21
ENDBRANCH  19  20
BRANCH  12  32
HETATM   32  S2  UNL     1      -4.264   5.156  27.486  1.00  0.00     0.315 S 
HETATM   33  O3  UNL     1      -3.406   3.692  27.074  1.00  0.00    -0.192 OA
HETATM   34  O4  UNL     1      -3.106   6.844  27.255  1.00  0.00    -0.192 OA
BRANCH  32  35
HETATM   35  O5  UNL     1      -3.365   5.163  28.740  1.00  0.00    -0.276 OA
HETATM   36  C10 UNL     1      -3.395   4.186  29.696  1.00  0.00     0.226 C 
ENDBRANCH  32  35
ENDBRANCH  12  32
BRANCH  17  37
HETATM   37  N4  UNL     1      -7.952   2.335  27.703  1.00  0.00    -0.334 N 
ATOM     38  H4  UNL     1      -8.875   2.010  27.414  1.00  0.00     0.165 HD
BRANCH  37  39
HETATM   39  C15 UNL     1      -7.488   1.942  28.981  1.00  0.00     0.173 C 
HETATM   40  N5  UNL     1      -6.334   2.213  29.464  1.00  0.00    -0.361 N 
HETATM   41  C16 UNL     1      -6.167   1.671  30.787  1.00  0.00     0.142 C 
ATOM     42  H5  UNL     1      -5.619   2.749  28.971  1.00  0.00     0.162 HD
HETATM   43  C17 UNL     1      -7.543   1.169  31.187  1.00  0.00     0.142 C 
HETATM   44  N6  UNL     1      -8.250   1.178  29.920  1.00  0.00    -0.361 N 
ATOM     45  H6  UNL     1      -9.140   0.717  29.731  1.00  0.00     0.162 HD
ENDBRANCH  37  39
ENDBRANCH  17  37
BRANCH   1  46
HETATM   46  O1  UNL     1     -10.423   5.565  25.661  1.00  0.00    -0.385 OA
HETATM   47  C1  UNL     1     -11.398   4.846  26.302  1.00  0.00     0.202 C 
ENDBRANCH   1  46
BRANCH   2  48
HETATM   48  O2  UNL     1     -11.496   7.924  25.909  1.00  0.00    -0.391 OA
ATOM     49  H2  UNL     1     -11.558   8.573  25.219  1.00  0.00     0.210 HD
ENDBRANCH   2  48
BRANCH   3  50
HETATM   50  N1  UNL     1      -8.528   9.656  26.012  1.00  0.00    -0.072 N 
ATOM     51  H13 UNL     1      -9.184  10.429  26.123  1.00  0.00     0.274 HD
ATOM     52  H12 UNL     1      -8.273   9.480  26.983  1.00  0.00     0.274 HD
ATOM     53  H11 UNL     1      -7.707   9.982  25.502  1.00  0.00     0.274 HD
ENDBRANCH   3  50
TORSDOF 14
ENDMDL
