MODEL 1
REMARK VINA RESULT: -9.389406543      0.000      0.000
REMARK  15 active torsions:
REMARK  status: ('A' for Active; 'I' for Inactive)
REMARK    1  A    between atoms: O1_2  and  C2_3 
REMARK    2  A    between atoms: C2_3  and  C3_5 
REMARK    3  A    between atoms: C3_5  and  O3_6 
REMARK    4  A    between atoms: C3_5  and  C4_8 
REMARK    5  A    between atoms: C3_5  and  C21_44 
REMARK    6  A    between atoms: C4_8  and  S1_9 
REMARK    7  A    between atoms: S1_9  and  C5_10 
REMARK    8  A    between atoms: C5_10  and  C6_11 
REMARK       I    between atoms: N4_23  and  C12_24 
REMARK    9  A    between atoms: C15_30  and  C16_31 
REMARK       I    between atoms: C16_31  and  N5_33 
REMARK   10  A    between atoms: N5_33  and  C17_35 
REMARK   11  A    between atoms: C17_35  and  C19_37 
REMARK   12  A    between atoms: C21_44  and  C22_45 
REMARK   13  A    between atoms: C21_44  and  O11_48 
REMARK   14  A    between atoms: C22_45  and  O10_46 
REMARK   15  A    between atoms: O11_48  and  C23_49 
ROOT
HETATM    1  C6  UNL     1      -5.971   5.917  22.333  1.00  0.00     0.071 A 
HETATM    2  N1  UNL     1      -5.079   6.517  21.495  1.00  0.00    -0.262 N 
ATOM      3  H1  UNL     1      -5.278   6.896  20.569  1.00  0.00     0.194 HD
HETATM    4  O4  UNL     1      -3.927   6.514  22.098  1.00  0.00    -0.239 OA
HETATM    5  C7  UNL     1      -3.957   5.974  23.252  1.00  0.00     0.112 A 
HETATM    6  C8  UNL     1      -5.350   5.534  23.488  1.00  0.00     0.092 A 
HETATM    7  N2  UNL     1      -5.510   4.929  24.741  1.00  0.00    -0.323 N 
HETATM    8  C9  UNL     1      -5.067   3.577  25.080  1.00  0.00     0.211 C 
HETATM    9  N3  UNL     1      -3.711   3.808  25.673  1.00  0.00    -0.356 N 
ATOM     10  H3  UNL     1      -3.115   3.085  26.077  1.00  0.00     0.163 HD
HETATM   11  C10 UNL     1      -3.368   5.228  25.585  1.00  0.00     0.095 C 
HETATM   12  C11 UNL     1      -2.906   5.750  24.280  1.00  0.00     0.146 C 
HETATM   13  N4  UNL     1      -4.322   5.977  26.331  1.00  0.00    -0.249 N 
HETATM   14  C12 UNL     1      -4.145   6.957  27.297  1.00  0.00     0.293 C 
HETATM   15  O5  UNL     1      -2.967   7.285  27.609  1.00  0.00    -0.629 OA
HETATM   16  O6  UNL     1      -5.168   7.618  27.958  1.00  0.00    -0.629 OA
HETATM   17  C13 UNL     1      -5.775   5.623  25.997  1.00  0.00     0.266 C 
HETATM   18  S2  UNL     1      -6.347   4.722  27.383  1.00  0.00    -0.109 SA
HETATM   19  C14 UNL     1      -5.996   2.960  27.342  1.00  0.00     0.132 C 
HETATM   20  C15 UNL     1      -7.247   2.239  27.678  1.00  0.00     0.105 C 
HETATM   21  N6  UNL     1      -8.012   2.209  26.620  1.00  0.00    -0.301 N 
ATOM     22  H6  UNL     1      -8.933   1.774  26.571  1.00  0.00     0.182 HD
HETATM   23  N7  UNL     1      -7.363   2.874  25.548  1.00  0.00    -0.131 NA
HETATM   24  C20 UNL     1      -5.950   2.706  25.831  1.00  0.00     0.161 C 
ENDROOT
BRANCH   1  25
HETATM   25  C5  UNL     1      -7.418   5.660  22.107  1.00  0.00     0.135 C 
BRANCH  25  26
HETATM   26  S1  UNL     1      -8.338   6.936  22.970  1.00  0.00    -0.159 SA
BRANCH  26  27
HETATM   27  C4  UNL     1      -9.400   6.355  24.281  1.00  0.00     0.125 C 
BRANCH  27  28
HETATM   28  C3  UNL     1     -10.540   7.268  24.631  1.00  0.00     0.182 C 
BRANCH  28  29
HETATM   29  C2  UNL     1     -10.108   8.661  24.846  1.00  0.00     0.296 C 
HETATM   30  O2  UNL     1     -10.294   9.579  23.979  1.00  0.00    -0.262 OA
BRANCH  29  31
HETATM   31  O1  UNL     1      -9.471   9.072  26.007  1.00  0.00    -0.324 OA
HETATM   32  C1  UNL     1      -8.057   8.960  26.168  1.00  0.00     0.213 C 
ENDBRANCH  29  31
ENDBRANCH  28  29
BRANCH  28  33
HETATM   33  O3  UNL     1     -11.373   7.283  23.476  1.00  0.00    -0.376 OA
ATOM     34  H3  UNL     1     -11.001   6.651  22.872  1.00  0.00     0.211 HD
ENDBRANCH  28  33
BRANCH  28  35
HETATM   35  C21 UNL     1     -11.445   6.734  25.721  1.00  0.00     0.200 C 
BRANCH  35  36
HETATM   36  C22 UNL     1     -10.826   5.728  26.629  1.00  0.00     0.200 C 
BRANCH  36  37
HETATM   37  O10 UNL     1     -11.362   4.456  26.575  1.00  0.00    -0.398 OA
ATOM     38  H10 UNL     1     -10.895   3.787  27.062  1.00  0.00     0.209 HD
ENDBRANCH  36  37
ENDBRANCH  35  36
BRANCH  35  39
HETATM   39  O11 UNL     1     -11.956   7.848  26.463  1.00  0.00    -0.310 OA
BRANCH  39  40
HETATM   40  C23 UNL     1     -13.290   7.904  26.769  1.00  0.00     0.255 C 
HETATM   41  C24 UNL     1     -13.805   8.923  27.713  1.00  0.00     0.126 C 
HETATM   42  O12 UNL     1     -14.068   7.089  26.246  1.00  0.00    -0.266 OA
ENDBRANCH  39  40
ENDBRANCH  35  39
ENDBRANCH  28  35
ENDBRANCH  27  28
ENDBRANCH  26  27
ENDBRANCH  25  26
ENDBRANCH   1  25
BRANCH  20  43
HETATM   43  C16 UNL     1      -7.554   1.667  28.978  1.00  0.00     0.267 C 
HETATM   44  O7  UNL     1      -8.670   1.125  29.169  1.00  0.00    -0.266 OA
HETATM   45  N5  UNL     1      -6.635   1.692  30.058  1.00  0.00    -0.342 N 
ATOM     46  H5  UNL     1      -5.722   2.126  29.928  1.00  0.00     0.163 HD
BRANCH  45  47
HETATM   47  C17 UNL     1      -6.966   1.120  31.324  1.00  0.00     0.181 C 
HETATM   48  C18 UNL     1      -6.454   2.064  32.420  1.00  0.00     0.043 C 
BRANCH  47  49
HETATM   49  C19 UNL     1      -6.432  -0.243  31.509  1.00  0.00     0.196 C 
HETATM   50  O8  UNL     1      -5.641  -0.521  32.438  1.00  0.00    -0.646 OA
HETATM   51  O9  UNL     1      -6.822  -1.246  30.626  1.00  0.00    -0.646 OA
ENDBRANCH  47  49
ENDBRANCH  45  47
ENDBRANCH  20  43
TORSDOF 15
ENDMDL
MODEL 2
REMARK VINA RESULT: -9.151786594      2.535      6.630
REMARK  15 active torsions:
REMARK  status: ('A' for Active; 'I' for Inactive)
REMARK    1  A    between atoms: O1_2  and  C2_3 
REMARK    2  A    between atoms: C2_3  and  C3_5 
REMARK    3  A    between atoms: C3_5  and  O3_6 
REMARK    4  A    between atoms: C3_5  and  C4_8 
REMARK    5  A    between atoms: C3_5  and  C21_44 
REMARK    6  A    between atoms: C4_8  and  S1_9 
REMARK    7  A    between atoms: S1_9  and  C5_10 
REMARK    8  A    between atoms: C5_10  and  C6_11 
REMARK       I    between atoms: N4_23  and  C12_24 
REMARK    9  A    between atoms: C15_30  and  C16_31 
REMARK       I    between atoms: C16_31  and  N5_33 
REMARK   10  A    between atoms: N5_33  and  C17_35 
REMARK   11  A    between atoms: C17_35  and  C19_37 
REMARK   12  A    between atoms: C21_44  and  C22_45 
REMARK   13  A    between atoms: C21_44  and  O11_48 
REMARK   14  A    between atoms: C22_45  and  O10_46 
REMARK   15  A    between atoms: O11_48  and  C23_49 
ROOT
HETATM    1  C6  UNL     1      -7.525   6.612  22.434  1.00  0.00     0.071 A 
HETATM    2  N1  UNL     1      -7.844   7.813  21.875  1.00  0.00    -0.262 N 
ATOM      3  H1  UNL     1      -7.743   8.070  20.892  1.00  0.00     0.194 HD
HETATM    4  O4  UNL     1      -8.300   8.570  22.829  1.00  0.00    -0.239 OA
HETATM    5  C7  UNL     1      -8.318   7.998  23.968  1.00  0.00     0.112 A 
HETATM    6  C8  UNL     1      -7.793   6.628  23.773  1.00  0.00     0.092 A 
HETATM    7  N2  UNL     1      -7.774   5.893  24.965  1.00  0.00    -0.323 N 
HETATM    8  C9  UNL     1      -6.801   6.070  26.043  1.00  0.00     0.211 C 
HETATM    9  N3  UNL     1      -7.494   7.024  26.966  1.00  0.00    -0.356 N 
ATOM     10  H3  UNL     1      -7.131   7.339  27.866  1.00  0.00     0.163 HD
HETATM   11  C10 UNL     1      -8.771   7.439  26.382  1.00  0.00     0.095 C 
HETATM   12  C11 UNL     1      -8.744   8.463  25.315  1.00  0.00     0.146 C 
HETATM   13  N4  UNL     1      -9.594   6.288  26.218  1.00  0.00    -0.249 N 
HETATM   14  C12 UNL     1     -10.911   6.060  26.592  1.00  0.00     0.293 C 
HETATM   15  O5  UNL     1     -11.537   6.986  27.177  1.00  0.00    -0.629 OA
HETATM   16  O6  UNL     1     -11.608   4.882  26.373  1.00  0.00    -0.629 OA
HETATM   17  C13 UNL     1      -8.888   5.125  25.513  1.00  0.00     0.266 C 
HETATM   18  S2  UNL     1      -8.595   3.949  26.773  1.00  0.00    -0.109 SA
HETATM   19  C14 UNL     1      -7.079   4.194  27.706  1.00  0.00     0.132 C 
HETATM   20  C15 UNL     1      -6.374   2.892  27.779  1.00  0.00     0.105 C 
HETATM   21  N6  UNL     1      -5.757   2.684  26.646  1.00  0.00    -0.301 N 
ATOM     22  H6  UNL     1      -5.194   1.863  26.424  1.00  0.00     0.182 HD
HETATM   23  N7  UNL     1      -5.991   3.777  25.773  1.00  0.00    -0.131 NA
HETATM   24  C20 UNL     1      -6.206   4.902  26.663  1.00  0.00     0.161 C 
ENDROOT
BRANCH   1  25
HETATM   25  C5  UNL     1      -6.952   5.411  21.771  1.00  0.00     0.135 C 
BRANCH  25  26
HETATM   26  S1  UNL     1      -5.874   5.979  20.454  1.00  0.00    -0.159 SA
BRANCH  26  27
HETATM   27  C4  UNL     1      -4.126   5.858  20.795  1.00  0.00     0.125 C 
BRANCH  27  28
HETATM   28  C3  UNL     1      -3.558   6.973  21.626  1.00  0.00     0.182 C 
BRANCH  28  29
HETATM   29  C2  UNL     1      -4.061   8.298  21.221  1.00  0.00     0.296 C 
HETATM   30  O2  UNL     1      -4.847   8.987  21.952  1.00  0.00    -0.262 OA
BRANCH  29  31
HETATM   31  O1  UNL     1      -3.713   8.890  20.016  1.00  0.00    -0.324 OA
HETATM   32  C1  UNL     1      -4.696   9.421  19.128  1.00  0.00     0.213 C 
ENDBRANCH  29  31
ENDBRANCH  28  29
BRANCH  28  33
HETATM   33  O3  UNL     1      -4.053   6.744  22.943  1.00  0.00    -0.376 OA
ATOM     34  H3  UNL     1      -3.573   5.997  23.281  1.00  0.00     0.211 HD
ENDBRANCH  28  33
BRANCH  28  35
HETATM   35  C21 UNL     1      -2.055   6.914  21.792  1.00  0.00     0.200 C 
BRANCH  35  36
HETATM   36  C22 UNL     1      -1.575   6.615  23.170  1.00  0.00     0.200 C 
BRANCH  36  37
HETATM   37  O10 UNL     1      -1.715   5.306  23.587  1.00  0.00    -0.398 OA
ATOM     38  H10 UNL     1      -1.059   4.696  23.269  1.00  0.00     0.209 HD
ENDBRANCH  36  37
ENDBRANCH  35  36
BRANCH  35  39
HETATM   39  O11 UNL     1      -1.538   5.966  20.851  1.00  0.00    -0.310 OA
BRANCH  39  40
HETATM   40  C23 UNL     1      -0.815   6.405  19.774  1.00  0.00     0.255 C 
HETATM   41  C24 UNL     1       0.515   7.030  19.962  1.00  0.00     0.126 C 
HETATM   42  O12 UNL     1      -1.287   6.274  18.632  1.00  0.00    -0.266 OA
ENDBRANCH  39  40
ENDBRANCH  35  39
ENDBRANCH  28  35
ENDBRANCH  27  28
ENDBRANCH  26  27
ENDBRANCH  25  26
ENDBRANCH   1  25
BRANCH  20  43
HETATM   43  C16 UNL     1      -6.379   2.006  28.930  1.00  0.00     0.267 C 
HETATM   44  O7  UNL     1      -7.318   1.185  29.077  1.00  0.00    -0.266 OA
HETATM   45  N5  UNL     1      -5.355   2.025  29.910  1.00  0.00    -0.342 N 
ATOM     46  H5  UNL     1      -4.581   2.682  29.813  1.00  0.00     0.163 HD
BRANCH  45  47
HETATM   47  C17 UNL     1      -5.387   1.141  31.031  1.00  0.00     0.181 C 
HETATM   48  C18 UNL     1      -5.831   1.946  32.259  1.00  0.00     0.043 C 
BRANCH  47  49
HETATM   49  C19 UNL     1      -4.099   0.464  31.281  1.00  0.00     0.196 C 
HETATM   50  O8  UNL     1      -3.340   0.814  32.212  1.00  0.00    -0.646 OA
HETATM   51  O9  UNL     1      -3.722  -0.593  30.458  1.00  0.00    -0.646 OA
ENDBRANCH  47  49
ENDBRANCH  45  47
ENDBRANCH  20  43
TORSDOF 15
ENDMDL
MODEL 3
REMARK VINA RESULT: -8.844971515      2.484      6.700
REMARK  15 active torsions:
REMARK  status: ('A' for Active; 'I' for Inactive)
REMARK    1  A    between atoms: O1_2  and  C2_3 
REMARK    2  A    between atoms: C2_3  and  C3_5 
REMARK    3  A    between atoms: C3_5  and  O3_6 
REMARK    4  A    between atoms: C3_5  and  C4_8 
REMARK    5  A    between atoms: C3_5  and  C21_44 
REMARK    6  A    between atoms: C4_8  and  S1_9 
REMARK    7  A    between atoms: S1_9  and  C5_10 
REMARK    8  A    between atoms: C5_10  and  C6_11 
REMARK       I    between atoms: N4_23  and  C12_24 
REMARK    9  A    between atoms: C15_30  and  C16_31 
REMARK       I    between atoms: C16_31  and  N5_33 
REMARK   10  A    between atoms: N5_33  and  C17_35 
REMARK   11  A    between atoms: C17_35  and  C19_37 
REMARK   12  A    between atoms: C21_44  and  C22_45 
REMARK   13  A    between atoms: C21_44  and  O11_48 
REMARK   14  A    between atoms: C22_45  and  O10_46 
REMARK   15  A    between atoms: O11_48  and  C23_49 
ROOT
HETATM    1  C6  UNL     1      -7.525   6.666  22.582  1.00  0.00     0.071 A 
HETATM    2  N1  UNL     1      -7.816   7.879  22.032  1.00  0.00    -0.262 N 
ATOM      3  H1  UNL     1      -7.677   8.151  21.058  1.00  0.00     0.194 HD
HETATM    4  O4  UNL     1      -8.304   8.622  22.980  1.00  0.00    -0.239 OA
HETATM    5  C7  UNL     1      -8.368   8.032  24.108  1.00  0.00     0.112 A 
HETATM    6  C8  UNL     1      -7.844   6.662  23.911  1.00  0.00     0.092 A 
HETATM    7  N2  UNL     1      -7.874   5.908  25.090  1.00  0.00    -0.323 N 
HETATM    8  C9  UNL     1      -6.941   6.061  26.206  1.00  0.00     0.211 C 
HETATM    9  N3  UNL     1      -7.663   7.004  27.118  1.00  0.00    -0.356 N 
ATOM     10  H3  UNL     1      -7.333   7.302  28.037  1.00  0.00     0.163 HD
HETATM   11  C10 UNL     1      -8.915   7.436  26.494  1.00  0.00     0.095 C 
HETATM   12  C11 UNL     1      -8.842   8.477  25.446  1.00  0.00     0.146 C 
HETATM   13  N4  UNL     1      -9.737   6.293  26.280  1.00  0.00    -0.249 N 
HETATM   14  C12 UNL     1     -11.068   6.066  26.600  1.00  0.00     0.293 C 
HETATM   15  O5  UNL     1     -11.711   6.987  27.176  1.00  0.00    -0.629 OA
HETATM   16  O6  UNL     1     -11.763   4.897  26.336  1.00  0.00    -0.629 OA
HETATM   17  C13 UNL     1      -9.012   5.138  25.583  1.00  0.00     0.266 C 
HETATM   18  S2  UNL     1      -8.773   3.939  26.834  1.00  0.00    -0.109 SA
HETATM   19  C14 UNL     1      -7.291   4.160  27.826  1.00  0.00     0.132 C 
HETATM   20  C15 UNL     1      -6.597   2.853  27.904  1.00  0.00     0.105 C 
HETATM   21  N6  UNL     1      -5.939   2.660  26.792  1.00  0.00    -0.301 N 
ATOM     22  H6  UNL     1      -5.372   1.839  26.578  1.00  0.00     0.182 HD
HETATM   23  N7  UNL     1      -6.134   3.768  25.929  1.00  0.00    -0.131 NA
HETATM   24  C20 UNL     1      -6.376   4.880  26.829  1.00  0.00     0.161 C 
ENDROOT
BRANCH   1  25
HETATM   25  C5  UNL     1      -6.935   5.473  21.921  1.00  0.00     0.135 C 
BRANCH  25  26
HETATM   26  S1  UNL     1      -5.424   5.995  21.106  1.00  0.00    -0.159 SA
BRANCH  26  27
HETATM   27  C4  UNL     1      -4.261   6.867  22.142  1.00  0.00     0.125 C 
BRANCH  27  28
HETATM   28  C3  UNL     1      -2.832   6.423  22.011  1.00  0.00     0.182 C 
BRANCH  28  29
HETATM   29  C2  UNL     1      -2.225   6.065  23.307  1.00  0.00     0.296 C 
HETATM   30  O2  UNL     1      -1.737   6.937  24.100  1.00  0.00    -0.262 OA
BRANCH  29  31
HETATM   31  O1  UNL     1      -2.144   4.755  23.754  1.00  0.00    -0.324 OA
HETATM   32  C1  UNL     1      -3.167   4.171  24.559  1.00  0.00     0.213 C 
ENDBRANCH  29  31
ENDBRANCH  28  29
BRANCH  28  33
HETATM   33  O3  UNL     1      -2.884   5.220  21.250  1.00  0.00    -0.376 OA
ATOM     34  H3  UNL     1      -3.554   5.353  20.590  1.00  0.00     0.211 HD
ENDBRANCH  28  33
BRANCH  28  35
HETATM   35  C21 UNL     1      -1.975   7.345  21.170  1.00  0.00     0.200 C 
BRANCH  35  36
HETATM   36  C22 UNL     1      -0.561   6.912  20.987  1.00  0.00     0.200 C 
BRANCH  36  37
HETATM   37  O10 UNL     1      -0.378   5.703  20.345  1.00  0.00    -0.398 OA
ATOM     38  H10 UNL     1       0.350   5.176  20.652  1.00  0.00     0.209 HD
ENDBRANCH  36  37
ENDBRANCH  35  36
BRANCH  35  39
HETATM   39  O11 UNL     1      -2.623   7.529  19.906  1.00  0.00    -0.310 OA
BRANCH  39  40
HETATM   40  C23 UNL     1      -2.765   8.792  19.396  1.00  0.00     0.255 C 
HETATM   41  C24 UNL     1      -4.034   9.538  19.572  1.00  0.00     0.126 C 
HETATM   42  O12 UNL     1      -1.819   9.309  18.780  1.00  0.00    -0.266 OA
ENDBRANCH  39  40
ENDBRANCH  35  39
ENDBRANCH  28  35
ENDBRANCH  27  28
ENDBRANCH  26  27
ENDBRANCH  25  26
ENDBRANCH   1  25
BRANCH  20  43
HETATM   43  C16 UNL     1      -6.650   1.948  29.040  1.00  0.00     0.267 C 
HETATM   44  O7  UNL     1      -7.655   1.213  29.201  1.00  0.00    -0.266 OA
HETATM   45  N5  UNL     1      -5.600   1.854  29.988  1.00  0.00    -0.342 N 
ATOM     46  H5  UNL     1      -4.773   2.440  29.879  1.00  0.00     0.163 HD
BRANCH  45  47
HETATM   47  C17 UNL     1      -5.681   0.954  31.095  1.00  0.00     0.181 C 
HETATM   48  C18 UNL     1      -6.011   1.772  32.349  1.00  0.00     0.043 C 
BRANCH  47  49
HETATM   49  C19 UNL     1      -4.456   0.155  31.291  1.00  0.00     0.196 C 
HETATM   50  O8  UNL     1      -4.062  -0.667  30.434  1.00  0.00    -0.646 OA
HETATM   51  O9  UNL     1      -3.721   0.323  32.461  1.00  0.00    -0.646 OA
ENDBRANCH  47  49
ENDBRANCH  45  47
ENDBRANCH  20  43
TORSDOF 15
ENDMDL
MODEL 4
REMARK VINA RESULT: -8.833498605      2.858      6.800
REMARK  15 active torsions:
REMARK  status: ('A' for Active; 'I' for Inactive)
REMARK    1  A    between atoms: O1_2  and  C2_3 
REMARK    2  A    between atoms: C2_3  and  C3_5 
REMARK    3  A    between atoms: C3_5  and  O3_6 
REMARK    4  A    between atoms: C3_5  and  C4_8 
REMARK    5  A    between atoms: C3_5  and  C21_44 
REMARK    6  A    between atoms: C4_8  and  S1_9 
REMARK    7  A    between atoms: S1_9  and  C5_10 
REMARK    8  A    between atoms: C5_10  and  C6_11 
REMARK       I    between atoms: N4_23  and  C12_24 
REMARK    9  A    between atoms: C15_30  and  C16_31 
REMARK       I    between atoms: C16_31  and  N5_33 
REMARK   10  A    between atoms: N5_33  and  C17_35 
REMARK   11  A    between atoms: C17_35  and  C19_37 
REMARK   12  A    between atoms: C21_44  and  C22_45 
REMARK   13  A    between atoms: C21_44  and  O11_48 
REMARK   14  A    between atoms: C22_45  and  O10_46 
REMARK   15  A    between atoms: O11_48  and  C23_49 
ROOT
HETATM    1  C6  UNL     1      -7.559   6.784  22.522  1.00  0.00     0.071 A 
HETATM    2  N1  UNL     1      -7.900   7.991  21.989  1.00  0.00    -0.262 N 
ATOM      3  H1  UNL     1      -7.796   8.274  21.014  1.00  0.00     0.194 HD
HETATM    4  O4  UNL     1      -8.383   8.714  22.957  1.00  0.00    -0.239 OA
HETATM    5  C7  UNL     1      -8.399   8.115  24.082  1.00  0.00     0.112 A 
HETATM    6  C8  UNL     1      -7.841   6.762  23.859  1.00  0.00     0.092 A 
HETATM    7  N2  UNL     1      -7.816   5.999  25.033  1.00  0.00    -0.323 N 
HETATM    8  C9  UNL     1      -6.858   6.171  26.124  1.00  0.00     0.211 C 
HETATM    9  N3  UNL     1      -7.582   7.087  27.063  1.00  0.00    -0.356 N 
ATOM     10  H3  UNL     1      -7.235   7.388  27.974  1.00  0.00     0.163 HD
HETATM   11  C10 UNL     1      -8.862   7.486  26.476  1.00  0.00     0.095 C 
HETATM   12  C11 UNL     1      -8.849   8.536  25.434  1.00  0.00     0.146 C 
HETATM   13  N4  UNL     1      -9.657   6.322  26.276  1.00  0.00    -0.249 N 
HETATM   14  C12 UNL     1     -10.972   6.054  26.631  1.00  0.00     0.293 C 
HETATM   15  O5  UNL     1     -11.625   6.952  27.232  1.00  0.00    -0.629 OA
HETATM   16  O6  UNL     1     -11.639   4.867  26.377  1.00  0.00    -0.629 OA
HETATM   17  C13 UNL     1      -8.918   5.193  25.551  1.00  0.00     0.266 C 
HETATM   18  S2  UNL     1      -8.610   3.993  26.786  1.00  0.00    -0.109 SA
HETATM   19  C14 UNL     1      -7.109   4.250  27.739  1.00  0.00     0.132 C 
HETATM   20  C15 UNL     1      -6.375   2.963  27.788  1.00  0.00     0.105 C 
HETATM   21  N6  UNL     1      -5.742   2.797  26.657  1.00  0.00    -0.301 N 
ATOM     22  H6  UNL     1      -5.159   1.995  26.421  1.00  0.00     0.182 HD
HETATM   23  N7  UNL     1      -5.993   3.905  25.808  1.00  0.00    -0.131 NA
HETATM   24  C20 UNL     1      -6.242   5.003  26.722  1.00  0.00     0.161 C 
ENDROOT
BRANCH   1  25
HETATM   25  C5  UNL     1      -6.953   5.613  21.836  1.00  0.00     0.135 C 
BRANCH  25  26
HETATM   26  S1  UNL     1      -5.187   5.653  22.153  1.00  0.00    -0.159 SA
BRANCH  26  27
HETATM   27  C4  UNL     1      -4.188   6.295  20.819  1.00  0.00     0.125 C 
BRANCH  27  28
HETATM   28  C3  UNL     1      -3.462   7.574  21.124  1.00  0.00     0.182 C 
BRANCH  28  29
HETATM   29  C2  UNL     1      -4.355   8.747  21.138  1.00  0.00     0.296 C 
HETATM   30  O2  UNL     1      -4.953   9.143  22.193  1.00  0.00    -0.262 OA
BRANCH  29  31
HETATM   31  O1  UNL     1      -4.607   9.503  20.003  1.00  0.00    -0.324 OA
HETATM   32  C1  UNL     1      -5.579   9.107  19.036  1.00  0.00     0.213 C 
ENDBRANCH  29  31
ENDBRANCH  28  29
BRANCH  28  33
HETATM   33  O3  UNL     1      -2.984   7.422  22.458  1.00  0.00    -0.376 OA
ATOM     34  H3  UNL     1      -3.219   8.220  22.916  1.00  0.00     0.211 HD
ENDBRANCH  28  33
BRANCH  28  35
HETATM   35  C21 UNL     1      -2.201   7.776  20.311  1.00  0.00     0.200 C 
BRANCH  35  36
HETATM   36  C22 UNL     1      -0.946   7.287  20.947  1.00  0.00     0.200 C 
BRANCH  36  37
HETATM   37  O10 UNL     1      -0.739   5.922  20.904  1.00  0.00    -0.398 OA
ATOM     38  H10 UNL     1       0.082   5.638  20.520  1.00  0.00     0.209 HD
ENDBRANCH  36  37
ENDBRANCH  35  36
BRANCH  35  39
HETATM   39  O11 UNL     1      -2.396   7.171  19.027  1.00  0.00    -0.310 OA
BRANCH  39  40
HETATM   40  C23 UNL     1      -2.076   7.869  17.894  1.00  0.00     0.255 C 
HETATM   41  C24 UNL     1      -1.756   9.314  17.964  1.00  0.00     0.126 C 
HETATM   42  O12 UNL     1      -2.056   7.278  16.802  1.00  0.00    -0.266 OA
ENDBRANCH  39  40
ENDBRANCH  35  39
ENDBRANCH  28  35
ENDBRANCH  27  28
ENDBRANCH  26  27
ENDBRANCH  25  26
ENDBRANCH   1  25
BRANCH  20  43
HETATM   43  C16 UNL     1      -6.371   2.049  28.918  1.00  0.00     0.267 C 
HETATM   44  O7  UNL     1      -7.324   1.248  29.070  1.00  0.00    -0.266 OA
HETATM   45  N5  UNL     1      -5.320   2.020  29.870  1.00  0.00    -0.342 N 
ATOM     46  H5  UNL     1      -4.534   2.662  29.767  1.00  0.00     0.163 HD
BRANCH  45  47
HETATM   47  C17 UNL     1      -5.344   1.110  30.970  1.00  0.00     0.181 C 
HETATM   48  C18 UNL     1      -5.726   1.897  32.230  1.00  0.00     0.043 C 
BRANCH  47  49
HETATM   49  C19 UNL     1      -4.070   0.390  31.163  1.00  0.00     0.196 C 
HETATM   50  O8  UNL     1      -3.696  -0.509  30.377  1.00  0.00    -0.646 OA
HETATM   51  O9  UNL     1      -3.264   0.723  32.248  1.00  0.00    -0.646 OA
ENDBRANCH  47  49
ENDBRANCH  45  47
ENDBRANCH  20  43
TORSDOF 15
ENDMDL
MODEL 5
REMARK VINA RESULT: -8.771262968      3.023      7.110
REMARK  15 active torsions:
REMARK  status: ('A' for Active; 'I' for Inactive)
REMARK    1  A    between atoms: O1_2  and  C2_3 
REMARK    2  A    between atoms: C2_3  and  C3_5 
REMARK    3  A    between atoms: C3_5  and  O3_6 
REMARK    4  A    between atoms: C3_5  and  C4_8 
REMARK    5  A    between atoms: C3_5  and  C21_44 
REMARK    6  A    between atoms: C4_8  and  S1_9 
REMARK    7  A    between atoms: S1_9  and  C5_10 
REMARK    8  A    between atoms: C5_10  and  C6_11 
REMARK       I    between atoms: N4_23  and  C12_24 
REMARK    9  A    between atoms: C15_30  and  C16_31 
REMARK       I    between atoms: C16_31  and  N5_33 
REMARK   10  A    between atoms: N5_33  and  C17_35 
REMARK   11  A    between atoms: C17_35  and  C19_37 
REMARK   12  A    between atoms: C21_44  and  C22_45 
REMARK   13  A    between atoms: C21_44  and  O11_48 
REMARK   14  A    between atoms: C22_45  and  O10_46 
REMARK   15  A    between atoms: O11_48  and  C23_49 
ROOT
HETATM    1  C6  UNL     1      -7.103   6.725  22.232  1.00  0.00     0.071 A 
HETATM    2  N1  UNL     1      -7.660   7.808  21.620  1.00  0.00    -0.262 N 
ATOM      3  H1  UNL     1      -7.553   8.070  20.639  1.00  0.00     0.194 HD
HETATM    4  O4  UNL     1      -8.352   8.442  22.519  1.00  0.00    -0.239 OA
HETATM    5  C7  UNL     1      -8.315   7.896  23.670  1.00  0.00     0.112 A 
HETATM    6  C8  UNL     1      -7.464   6.691  23.550  1.00  0.00     0.092 A 
HETATM    7  N2  UNL     1      -7.355   5.995  24.760  1.00  0.00    -0.323 N 
HETATM    8  C9  UNL     1      -6.534   6.414  25.896  1.00  0.00     0.211 C 
HETATM    9  N3  UNL     1      -7.501   7.182  26.743  1.00  0.00    -0.356 N 
ATOM     10  H3  UNL     1      -7.290   7.585  27.656  1.00  0.00     0.163 HD
HETATM   11  C10 UNL     1      -8.794   7.270  26.062  1.00  0.00     0.095 C 
HETATM   12  C11 UNL     1      -8.937   8.258  24.971  1.00  0.00     0.146 C 
HETATM   13  N4  UNL     1      -9.303   5.953  25.875  1.00  0.00    -0.249 N 
HETATM   14  C12 UNL     1     -10.549   5.417  26.166  1.00  0.00     0.293 C 
HETATM   15  O5  UNL     1     -11.421   6.171  26.680  1.00  0.00    -0.629 OA
HETATM   16  O6  UNL     1     -10.926   4.104  25.934  1.00  0.00    -0.629 OA
HETATM   17  C13 UNL     1      -8.289   4.987  25.253  1.00  0.00     0.266 C 
HETATM   18  S2  UNL     1      -7.814   3.930  26.563  1.00  0.00    -0.109 SA
HETATM   19  C14 UNL     1      -6.473   4.545  27.588  1.00  0.00     0.132 C 
HETATM   20  C15 UNL     1      -5.483   3.453  27.746  1.00  0.00     0.105 C 
HETATM   21  N6  UNL     1      -4.754   3.387  26.664  1.00  0.00    -0.301 N 
ATOM     22  H6  UNL     1      -3.996   2.724  26.503  1.00  0.00     0.182 HD
HETATM   23  N7  UNL     1      -5.180   4.382  25.746  1.00  0.00    -0.131 NA
HETATM   24  C20 UNL     1      -5.722   5.431  26.587  1.00  0.00     0.161 C 
ENDROOT
BRANCH   1  25
HETATM   25  C5  UNL     1      -6.212   5.690  21.644  1.00  0.00     0.135 C 
BRANCH  25  26
HETATM   26  S1  UNL     1      -5.567   6.343  20.102  1.00  0.00    -0.159 SA
BRANCH  26  27
HETATM   27  C4  UNL     1      -3.790   6.488  20.020  1.00  0.00     0.125 C 
BRANCH  27  28
HETATM   28  C3  UNL     1      -3.203   7.609  20.829  1.00  0.00     0.182 C 
BRANCH  28  29
HETATM   29  C2  UNL     1      -3.988   8.854  20.731  1.00  0.00     0.296 C 
HETATM   30  O2  UNL     1      -4.753   9.258  21.669  1.00  0.00    -0.262 OA
BRANCH  29  31
HETATM   31  O1  UNL     1      -3.950   9.672  19.612  1.00  0.00    -0.324 OA
HETATM   32  C1  UNL     1      -5.006   9.683  18.652  1.00  0.00     0.213 C 
ENDBRANCH  29  31
ENDBRANCH  28  29
BRANCH  28  33
HETATM   33  O3  UNL     1      -3.301   7.182  22.184  1.00  0.00    -0.376 OA
ATOM     34  H3  UNL     1      -4.228   7.069  22.360  1.00  0.00     0.211 HD
ENDBRANCH  28  33
BRANCH  28  35
HETATM   35  C21 UNL     1      -1.717   7.808  20.620  1.00  0.00     0.200 C 
BRANCH  35  36
HETATM   36  C22 UNL     1      -0.837   7.157  21.631  1.00  0.00     0.200 C 
BRANCH  36  37
HETATM   37  O10 UNL     1       0.504   7.480  21.562  1.00  0.00    -0.398 OA
ATOM     38  H10 UNL     1       1.010   7.320  22.350  1.00  0.00     0.209 HD
ENDBRANCH  36  37
ENDBRANCH  35  36
BRANCH  35  39
HETATM   39  O11 UNL     1      -1.389   7.370  19.296  1.00  0.00    -0.310 OA
BRANCH  39  40
HETATM   40  C23 UNL     1      -0.591   8.150  18.503  1.00  0.00     0.255 C 
HETATM   41  C24 UNL     1      -1.189   9.087  17.522  1.00  0.00     0.126 C 
HETATM   42  O12 UNL     1       0.643   8.066  18.611  1.00  0.00    -0.266 OA
ENDBRANCH  39  40
ENDBRANCH  35  39
ENDBRANCH  28  35
ENDBRANCH  27  28
ENDBRANCH  26  27
ENDBRANCH  25  26
ENDBRANCH   1  25
BRANCH  20  43
HETATM   43  C16 UNL     1      -5.359   2.604  28.919  1.00  0.00     0.267 C 
HETATM   44  O7  UNL     1      -4.431   2.810  29.738  1.00  0.00    -0.266 OA
HETATM   45  N5  UNL     1      -6.255   1.537  29.185  1.00  0.00    -0.342 N 
ATOM     46  H5  UNL     1      -7.018   1.350  28.535  1.00  0.00     0.163 HD
BRANCH  45  47
HETATM   47  C17 UNL     1      -6.107   0.720  30.347  1.00  0.00     0.181 C 
HETATM   48  C18 UNL     1      -6.612  -0.687  30.006  1.00  0.00     0.043 C 
BRANCH  47  49
HETATM   49  C19 UNL     1      -6.802   1.257  31.533  1.00  0.00     0.196 C 
HETATM   50  O8  UNL     1      -8.033   1.482  31.530  1.00  0.00    -0.646 OA
HETATM   51  O9  UNL     1      -6.066   1.521  32.684  1.00  0.00    -0.646 OA
ENDBRANCH  47  49
ENDBRANCH  45  47
ENDBRANCH  20  43
TORSDOF 15
ENDMDL
