MODEL 1
REMARK VINA RESULT: -7.760221624      0.000      0.000
REMARK  8 active torsions:
REMARK  status: ('A' for Active; 'I' for Inactive)
REMARK    1  A    between atoms: C2_2  and  O1_3 
REMARK    2  A    between atoms: O1_3  and  C3_4 
REMARK    3  A    between atoms: C3_4  and  C4_6 
REMARK    4  A    between atoms: C6_9  and  N1_10 
REMARK    5  A    between atoms: N1_10  and  S2_12 
REMARK    6  A    between atoms: S2_12  and  C7_15 
REMARK    7  A    between atoms: C9_17  and  N2_18 
REMARK    8  A    between atoms: C10_21  and  O7_22 
ROOT
HETATM    1  S2  UNL     1      69.559  -7.880  48.302  1.00  0.00     0.265 S 
HETATM    2  O3  UNL     1      69.025  -6.856  47.309  1.00  0.00    -0.200 OA
HETATM    3  O4  UNL     1      68.809  -9.157  48.169  1.00  0.00    -0.200 OA
ENDROOT
BRANCH   1   4
HETATM    4  N1  UNL     1      71.193  -8.167  47.921  1.00  0.00    -0.260 N 
ATOM      5  H1  UNL     1      71.751  -7.453  47.452  1.00  0.00     0.181 HD
BRANCH   4   6
HETATM    6  C6  UNL     1      71.721  -9.328  48.242  1.00  0.00     0.158 A 
HETATM    7  S1  UNL     1      72.040 -10.677  47.247  1.00  0.00    -0.063 SA
HETATM    8  C5  UNL     1      72.704 -11.709  48.430  1.00  0.00     0.089 A 
HETATM    9  C4  UNL     1      72.640 -10.927  49.565  1.00  0.00     0.117 A 
HETATM   10  N3  UNL     1      72.141  -9.734  49.439  1.00  0.00    -0.331 N 
ATOM     11  H3  UNL     1      72.071  -9.115  50.247  1.00  0.00     0.168 HD
BRANCH   9  12
HETATM   12  C3  UNL     1      73.144 -11.493  50.853  1.00  0.00     0.310 C 
HETATM   13  O2  UNL     1      72.405 -12.259  51.516  1.00  0.00    -0.258 OA
BRANCH  12  14
HETATM   14  O1  UNL     1      74.384 -11.214  51.350  1.00  0.00    -0.317 OA
BRANCH  14  15
HETATM   15  C2  UNL     1      74.725  -9.880  51.668  1.00  0.00     0.175 C 
HETATM   16  C1  UNL     1      73.793  -9.452  52.799  1.00  0.00     0.034 C 
ENDBRANCH  14  15
ENDBRANCH  12  14
ENDBRANCH   9  12
ENDBRANCH   4   6
ENDBRANCH   1   4
BRANCH   1  17
HETATM   17  C7  UNL     1      69.363  -7.149  49.875  1.00  0.00     0.088 A 
HETATM   18  C8  UNL     1      68.514  -7.649  50.813  1.00  0.00     0.064 A 
HETATM   19  C9  UNL     1      68.386  -7.034  52.066  1.00  0.00     0.138 A 
HETATM   20  C10 UNL     1      69.117  -5.908  52.377  1.00  0.00     0.107 A 
HETATM   21  C12 UNL     1      69.977  -5.401  51.427  1.00  0.00    -0.019 A 
HETATM   22  C13 UNL     1      70.782  -4.188  51.725  1.00  0.00     0.052 C 
HETATM   23  C14 UNL     1      70.096  -6.023  50.179  1.00  0.00    -0.030 A 
HETATM   24  C15 UNL     1      71.030  -5.458  49.175  1.00  0.00     0.050 C 
BRANCH  19  25
HETATM   25  N2  UNL     1      67.494  -7.567  53.031  1.00  0.00    -0.113 N 
HETATM   26  O5  UNL     1      67.841  -8.551  53.709  1.00  0.00    -0.532 OA
HETATM   27  O6  UNL     1      66.241  -7.038  53.263  1.00  0.00    -0.532 OA
ENDBRANCH  19  25
BRANCH  20  28
HETATM   28  O7  UNL     1      68.993  -5.289  53.631  1.00  0.00    -0.353 OA
HETATM   29  C11 UNL     1      68.288  -4.043  53.704  1.00  0.00     0.210 C 
ENDBRANCH  20  28
ENDBRANCH   1  17
TORSDOF 8
ENDMDL
MODEL 2
REMARK VINA RESULT: -7.748565762      1.428      1.647
REMARK  8 active torsions:
REMARK  status: ('A' for Active; 'I' for Inactive)
REMARK    1  A    between atoms: C2_2  and  O1_3 
REMARK    2  A    between atoms: O1_3  and  C3_4 
REMARK    3  A    between atoms: C3_4  and  C4_6 
REMARK    4  A    between atoms: C6_9  and  N1_10 
REMARK    5  A    between atoms: N1_10  and  S2_12 
REMARK    6  A    between atoms: S2_12  and  C7_15 
REMARK    7  A    between atoms: C9_17  and  N2_18 
REMARK    8  A    between atoms: C10_21  and  O7_22 
ROOT
HETATM    1  S2  UNL     1      71.233  -7.131  48.721  1.00  0.00     0.265 S 
HETATM    2  O3  UNL     1      72.652  -7.136  49.273  1.00  0.00    -0.200 OA
HETATM    3  O4  UNL     1      71.066  -6.012  47.756  1.00  0.00    -0.200 OA
ENDROOT
BRANCH   1   4
HETATM    4  N1  UNL     1      70.992  -8.600  47.896  1.00  0.00    -0.260 N 
ATOM      5  H1  UNL     1      70.241  -8.696  47.213  1.00  0.00     0.181 HD
BRANCH   4   6
HETATM    6  C6  UNL     1      71.795  -9.609  48.156  1.00  0.00     0.158 A 
HETATM    7  S1  UNL     1      72.511 -10.721  47.079  1.00  0.00    -0.063 SA
HETATM    8  C5  UNL     1      73.367 -11.656  48.216  1.00  0.00     0.089 A 
HETATM    9  C4  UNL     1      73.041 -11.036  49.405  1.00  0.00     0.117 A 
HETATM   10  N3  UNL     1      72.248 -10.009  49.343  1.00  0.00    -0.331 N 
ATOM     11  H3  UNL     1      71.976  -9.514  50.193  1.00  0.00     0.168 HD
BRANCH   9  12
HETATM   12  C3  UNL     1      73.614 -11.578  50.675  1.00  0.00     0.310 C 
HETATM   13  O2  UNL     1      73.026 -12.518  51.260  1.00  0.00    -0.258 OA
BRANCH  12  14
HETATM   14  O1  UNL     1      74.759 -11.093  51.237  1.00  0.00    -0.317 OA
BRANCH  14  15
HETATM   15  C2  UNL     1      74.829  -9.734  51.618  1.00  0.00     0.175 C 
HETATM   16  C1  UNL     1      73.787  -9.536  52.716  1.00  0.00     0.034 C 
ENDBRANCH  14  15
ENDBRANCH  12  14
ENDBRANCH   9  12
ENDBRANCH   4   6
ENDBRANCH   1   4
BRANCH   1  17
HETATM   17  C7  UNL     1      70.192  -6.974  50.114  1.00  0.00     0.088 A 
HETATM   18  C8  UNL     1      69.476  -8.018  50.613  1.00  0.00     0.064 A 
HETATM   19  C9  UNL     1      68.652  -7.851  51.734  1.00  0.00     0.138 A 
HETATM   20  C10 UNL     1      68.547  -6.627  52.359  1.00  0.00     0.107 A 
HETATM   21  C12 UNL     1      69.273  -5.570  51.853  1.00  0.00    -0.019 A 
HETATM   22  C13 UNL     1      69.187  -4.234  52.499  1.00  0.00     0.052 C 
HETATM   23  C14 UNL     1      70.092  -5.748  50.732  1.00  0.00    -0.030 A 
HETATM   24  C15 UNL     1      70.863  -4.593  50.210  1.00  0.00     0.050 C 
BRANCH  19  25
HETATM   25  N2  UNL     1      67.910  -8.949  52.239  1.00  0.00    -0.113 N 
HETATM   26  O5  UNL     1      68.276  -9.505  53.292  1.00  0.00    -0.532 OA
HETATM   27  O6  UNL     1      66.780  -9.438  51.616  1.00  0.00    -0.532 OA
ENDBRANCH  19  25
BRANCH  20  28
HETATM   28  O7  UNL     1      67.725  -6.456  53.483  1.00  0.00    -0.353 OA
HETATM   29  C11 UNL     1      66.306  -6.408  53.282  1.00  0.00     0.210 C 
ENDBRANCH  20  28
ENDBRANCH   1  17
TORSDOF 8
ENDMDL
MODEL 3
REMARK VINA RESULT: -7.475421739      1.500      2.219
REMARK  8 active torsions:
REMARK  status: ('A' for Active; 'I' for Inactive)
REMARK    1  A    between atoms: C2_2  and  O1_3 
REMARK    2  A    between atoms: O1_3  and  C3_4 
REMARK    3  A    between atoms: C3_4  and  C4_6 
REMARK    4  A    between atoms: C6_9  and  N1_10 
REMARK    5  A    between atoms: N1_10  and  S2_12 
REMARK    6  A    between atoms: S2_12  and  C7_15 
REMARK    7  A    between atoms: C9_17  and  N2_18 
REMARK    8  A    between atoms: C10_21  and  O7_22 
ROOT
HETATM    1  S2  UNL     1      69.560  -7.588  48.245  1.00  0.00     0.265 S 
HETATM    2  O3  UNL     1      68.968  -6.554  47.297  1.00  0.00    -0.200 OA
HETATM    3  O4  UNL     1      68.856  -8.887  48.084  1.00  0.00    -0.200 OA
ENDROOT
BRANCH   1   4
HETATM    4  N1  UNL     1      71.196  -7.800  47.824  1.00  0.00    -0.260 N 
ATOM      5  H1  UNL     1      71.632  -7.206  47.119  1.00  0.00     0.181 HD
BRANCH   4   6
HETATM    6  C6  UNL     1      71.885  -8.746  48.424  1.00  0.00     0.158 A 
HETATM    7  S1  UNL     1      72.801  -8.663  49.861  1.00  0.00    -0.063 SA
HETATM    8  C5  UNL     1      73.336 -10.279  49.911  1.00  0.00     0.089 A 
HETATM    9  C4  UNL     1      72.757 -10.811  48.777  1.00  0.00     0.117 A 
HETATM   10  N3  UNL     1      72.032 -10.015  48.049  1.00  0.00    -0.331 N 
ATOM     11  H3  UNL     1      71.581 -10.358  47.200  1.00  0.00     0.168 HD
BRANCH   9  12
HETATM   12  C3  UNL     1      72.996 -12.252  48.460  1.00  0.00     0.310 C 
HETATM   13  O2  UNL     1      72.937 -13.099  49.383  1.00  0.00    -0.258 OA
BRANCH  12  14
HETATM   14  O1  UNL     1      73.278 -12.697  47.202  1.00  0.00    -0.317 OA
BRANCH  14  15
HETATM   15  C2  UNL     1      74.454 -12.257  46.552  1.00  0.00     0.175 C 
HETATM   16  C1  UNL     1      75.602 -13.079  47.131  1.00  0.00     0.034 C 
ENDBRANCH  14  15
ENDBRANCH  12  14
ENDBRANCH   9  12
ENDBRANCH   4   6
ENDBRANCH   1   4
BRANCH   1  17
HETATM   17  C7  UNL     1      69.369  -6.916  49.846  1.00  0.00     0.088 A 
HETATM   18  C8  UNL     1      68.544  -7.467  50.776  1.00  0.00     0.064 A 
HETATM   19  C9  UNL     1      68.419  -6.898  52.051  1.00  0.00     0.138 A 
HETATM   20  C10 UNL     1      69.129  -5.767  52.392  1.00  0.00     0.107 A 
HETATM   21  C12 UNL     1      69.965  -5.209  51.449  1.00  0.00    -0.019 A 
HETATM   22  C13 UNL     1      70.746  -3.989  51.779  1.00  0.00     0.052 C 
HETATM   23  C14 UNL     1      70.081  -5.785  50.179  1.00  0.00    -0.030 A 
HETATM   24  C15 UNL     1      70.989  -5.164  49.183  1.00  0.00     0.050 C 
BRANCH  19  25
HETATM   25  N2  UNL     1      67.553  -7.484  53.008  1.00  0.00    -0.113 N 
HETATM   26  O5  UNL     1      67.950  -8.450  53.685  1.00  0.00    -0.532 OA
HETATM   27  O6  UNL     1      66.270  -7.028  53.234  1.00  0.00    -0.532 OA
ENDBRANCH  19  25
BRANCH  20  28
HETATM   28  O7  UNL     1      69.008  -5.195  53.668  1.00  0.00    -0.353 OA
HETATM   29  C11 UNL     1      68.206  -4.016  53.807  1.00  0.00     0.210 C 
ENDBRANCH  20  28
ENDBRANCH   1  17
TORSDOF 8
ENDMDL
MODEL 4
REMARK VINA RESULT: -7.351537874      1.901      3.063
REMARK  8 active torsions:
REMARK  status: ('A' for Active; 'I' for Inactive)
REMARK    1  A    between atoms: C2_2  and  O1_3 
REMARK    2  A    between atoms: O1_3  and  C3_4 
REMARK    3  A    between atoms: C3_4  and  C4_6 
REMARK    4  A    between atoms: C6_9  and  N1_10 
REMARK    5  A    between atoms: N1_10  and  S2_12 
REMARK    6  A    between atoms: S2_12  and  C7_15 
REMARK    7  A    between atoms: C9_17  and  N2_18 
REMARK    8  A    between atoms: C10_21  and  O7_22 
ROOT
HETATM    1  S2  UNL     1      70.624  -6.008  48.105  1.00  0.00     0.265 S 
HETATM    2  O3  UNL     1      71.624  -4.873  48.278  1.00  0.00    -0.200 OA
HETATM    3  O4  UNL     1      69.682  -5.692  46.999  1.00  0.00    -0.200 OA
ENDROOT
BRANCH   1   4
HETATM    4  N1  UNL     1      71.498  -7.409  47.690  1.00  0.00    -0.260 N 
ATOM      5  H1  UNL     1      71.263  -7.939  46.850  1.00  0.00     0.181 HD
BRANCH   4   6
HETATM    6  C6  UNL     1      72.482  -7.794  48.473  1.00  0.00     0.158 A 
HETATM    7  S1  UNL     1      74.143  -7.418  48.378  1.00  0.00    -0.063 SA
HETATM    8  C5  UNL     1      74.677  -8.300  49.734  1.00  0.00     0.089 A 
HETATM    9  C4  UNL     1      73.503  -8.854  50.201  1.00  0.00     0.117 A 
HETATM   10  N3  UNL     1      72.414  -8.581  49.545  1.00  0.00    -0.331 N 
ATOM     11  H3  UNL     1      71.519  -8.965  49.848  1.00  0.00     0.168 HD
BRANCH   9  12
HETATM   12  C3  UNL     1      73.554  -9.722  51.417  1.00  0.00     0.310 C 
HETATM   13  O2  UNL     1      73.320  -9.216  52.540  1.00  0.00    -0.258 OA
BRANCH  12  14
HETATM   14  O1  UNL     1      73.847 -11.053  51.364  1.00  0.00    -0.317 OA
BRANCH  14  15
HETATM   15  C2  UNL     1      72.823 -11.983  51.071  1.00  0.00     0.175 C 
HETATM   16  C1  UNL     1      73.069 -12.464  49.644  1.00  0.00     0.034 C 
ENDBRANCH  14  15
ENDBRANCH  12  14
ENDBRANCH   9  12
ENDBRANCH   4   6
ENDBRANCH   1   4
BRANCH   1  17
HETATM   17  C7  UNL     1      69.820  -6.160  49.647  1.00  0.00     0.088 A 
HETATM   18  C8  UNL     1      69.934  -5.223  50.626  1.00  0.00     0.064 A 
HETATM   19  C9  UNL     1      69.271  -5.382  51.851  1.00  0.00     0.138 A 
HETATM   20  C10 UNL     1      68.489  -6.490  52.093  1.00  0.00     0.107 A 
HETATM   21  C12 UNL     1      68.374  -7.440  51.100  1.00  0.00    -0.019 A 
HETATM   22  C13 UNL     1      67.540  -8.649  51.323  1.00  0.00     0.052 C 
HETATM   23  C14 UNL     1      69.041  -7.271  49.882  1.00  0.00    -0.030 A 
HETATM   24  C15 UNL     1      68.899  -8.308  48.830  1.00  0.00     0.050 C 
BRANCH  19  25
HETATM   25  N2  UNL     1      69.402  -4.396  52.862  1.00  0.00    -0.113 N 
HETATM   26  O5  UNL     1      70.529  -4.135  53.322  1.00  0.00    -0.532 OA
HETATM   27  O6  UNL     1      68.326  -3.696  53.368  1.00  0.00    -0.532 OA
ENDBRANCH  19  25
BRANCH  20  28
HETATM   28  O7  UNL     1      67.822  -6.652  53.317  1.00  0.00    -0.353 OA
HETATM   29  C11 UNL     1      66.397  -6.498  53.337  1.00  0.00     0.210 C 
ENDBRANCH  20  28
ENDBRANCH   1  17
TORSDOF 8
ENDMDL
MODEL 5
REMARK VINA RESULT: -7.327006507      3.702      6.491
REMARK  8 active torsions:
REMARK  status: ('A' for Active; 'I' for Inactive)
REMARK    1  A    between atoms: C2_2  and  O1_3 
REMARK    2  A    between atoms: O1_3  and  C3_4 
REMARK    3  A    between atoms: C3_4  and  C4_6 
REMARK    4  A    between atoms: C6_9  and  N1_10 
REMARK    5  A    between atoms: N1_10  and  S2_12 
REMARK    6  A    between atoms: S2_12  and  C7_15 
REMARK    7  A    between atoms: C9_17  and  N2_18 
REMARK    8  A    between atoms: C10_21  and  O7_22 
ROOT
HETATM    1  S2  UNL     1      71.344  -6.443  48.693  1.00  0.00     0.265 S 
HETATM    2  O3  UNL     1      71.670  -7.899  48.387  1.00  0.00    -0.200 OA
HETATM    3  O4  UNL     1      72.598  -5.686  48.951  1.00  0.00    -0.200 OA
ENDROOT
BRANCH   1   4
HETATM    4  N1  UNL     1      70.583  -5.783  47.321  1.00  0.00    -0.260 N 
ATOM      5  H1  UNL     1      69.735  -6.207  46.943  1.00  0.00     0.181 HD
BRANCH   4   6
HETATM    6  C6  UNL     1      71.110  -4.717  46.759  1.00  0.00     0.158 A 
HETATM    7  S1  UNL     1      72.246  -4.620  45.490  1.00  0.00    -0.063 SA
HETATM    8  C5  UNL     1      72.369  -2.924  45.394  1.00  0.00     0.089 A 
HETATM    9  C4  UNL     1      71.496  -2.513  46.379  1.00  0.00     0.117 A 
HETATM   10  N3  UNL     1      70.876  -3.439  47.050  1.00  0.00    -0.331 N 
ATOM     11  H3  UNL     1      70.219  -3.189  47.789  1.00  0.00     0.168 HD
BRANCH   9  12
HETATM   12  C3  UNL     1      71.317  -1.047  46.612  1.00  0.00     0.310 C 
HETATM   13  O2  UNL     1      72.325  -0.302  46.620  1.00  0.00    -0.258 OA
BRANCH  12  14
HETATM   14  O1  UNL     1      70.097  -0.475  46.821  1.00  0.00    -0.317 OA
BRANCH  14  15
HETATM   15  C2  UNL     1      69.971   0.587  47.745  1.00  0.00     0.175 C 
HETATM   16  C1  UNL     1      68.526   1.070  47.658  1.00  0.00     0.034 C 
ENDBRANCH  14  15
ENDBRANCH  12  14
ENDBRANCH   9  12
ENDBRANCH   4   6
ENDBRANCH   1   4
BRANCH   1  17
HETATM   17  C7  UNL     1      70.289  -6.484  50.083  1.00  0.00     0.088 A 
HETATM   18  C8  UNL     1      69.624  -7.608  50.464  1.00  0.00     0.064 A 
HETATM   19  C9  UNL     1      68.786  -7.600  51.587  1.00  0.00     0.138 A 
HETATM   20  C10 UNL     1      68.615  -6.454  52.333  1.00  0.00     0.107 A 
HETATM   21  C12 UNL     1      69.288  -5.314  51.946  1.00  0.00    -0.019 A 
HETATM   22  C13 UNL     1      69.129  -4.058  52.724  1.00  0.00     0.052 C 
HETATM   23  C14 UNL     1      70.121  -5.334  50.822  1.00  0.00    -0.030 A 
HETATM   24  C15 UNL     1      70.836  -4.094  50.429  1.00  0.00     0.050 C 
BRANCH  19  25
HETATM   25  N2  UNL     1      68.099  -8.780  51.969  1.00  0.00    -0.113 N 
HETATM   26  O5  UNL     1      67.141  -9.182  51.283  1.00  0.00    -0.532 OA
HETATM   27  O6  UNL     1      68.446  -9.522  53.080  1.00  0.00    -0.532 OA
ENDBRANCH  19  25
BRANCH  20  28
HETATM   28  O7  UNL     1      67.778  -6.441  53.459  1.00  0.00    -0.353 OA
HETATM   29  C11 UNL     1      66.360  -6.439  53.248  1.00  0.00     0.210 C 
ENDBRANCH  20  28
ENDBRANCH   1  17
TORSDOF 8
ENDMDL
