MODEL 1
REMARK VINA RESULT: -8.094676191      0.000      0.000
REMARK  9 active torsions:
REMARK  status: ('A' for Active; 'I' for Inactive)
REMARK    1  A    between atoms: C3_3  and  C5_5 
REMARK    2  A    between atoms: C5_5  and  O2_7 
REMARK    3  A    between atoms: O2_7  and  C6_8 
REMARK    4  A    between atoms: C8_10  and  C9_11 
REMARK    5  A    between atoms: C9_11  and  O3_12 
REMARK    6  A    between atoms: C9_11  and  C10_14 
REMARK    7  A    between atoms: C10_14  and  O4_15 
REMARK    8  A    between atoms: O4_15  and  C11_16 
REMARK    9  A    between atoms: C14_20  and  C16_22 
ROOT
HETATM    1  C6  UNL     1      70.875  -6.183  50.443  1.00  0.00     0.172 C 
HETATM    2  C7  UNL     1      69.484  -5.829  50.760  1.00  0.00     0.043 C 
HETATM    3  C8  UNL     1      69.227  -4.624  51.617  1.00  0.00     0.022 C 
HETATM    4  C13 UNL     1      70.381  -4.159  52.410  1.00  0.00     0.053 C 
HETATM    5  C14 UNL     1      71.289  -3.206  51.611  1.00  0.00     0.118 C 
HETATM    6  C15 UNL     1      72.611  -3.125  52.326  1.00  0.00     0.054 C 
HETATM    7  O7  UNL     1      71.268  -3.382  50.308  1.00  0.00    -0.364 OA
HETATM    8  C18 UNL     1      71.991  -4.117  49.526  1.00  0.00     0.163 C 
HETATM    9  C19 UNL     1      73.393  -4.514  49.812  1.00  0.00     0.038 C 
HETATM   10  C20 UNL     1      73.681  -5.347  48.545  1.00  0.00     0.038 C 
HETATM   11  C21 UNL     1      72.503  -6.268  48.536  1.00  0.00     0.163 A 
HETATM   12  O8  UNL     1      71.302  -5.950  47.954  1.00  0.00    -0.364 OA
HETATM   13  C22 UNL     1      71.389  -5.497  49.217  1.00  0.00     0.140 A 
ENDROOT
BRANCH   3  14
HETATM   14  C9  UNL     1      68.031  -4.882  52.540  1.00  0.00     0.146 C 
BRANCH  14  15
HETATM   15  O3  UNL     1      68.141  -3.907  53.600  1.00  0.00    -0.393 OA
ATOM     16  H3  UNL     1      67.343  -3.991  54.108  1.00  0.00     0.210 HD
ENDBRANCH  14  15
BRANCH  14  17
HETATM   17  C10 UNL     1      68.124  -6.186  53.285  1.00  0.00     0.210 C 
BRANCH  17  18
HETATM   18  O4  UNL     1      67.056  -7.058  52.970  1.00  0.00    -0.319 OA
BRANCH  18  19
HETATM   19  C11 UNL     1      67.134  -8.425  53.040  1.00  0.00     0.254 C 
HETATM   20  C12 UNL     1      68.446  -9.151  53.106  1.00  0.00     0.126 C 
HETATM   21  O5  UNL     1      66.080  -9.101  53.051  1.00  0.00    -0.266 OA
ENDBRANCH  18  19
ENDBRANCH  17  18
ENDBRANCH  14  17
ENDBRANCH   3  14
BRANCH   1  22
HETATM   22  O2  UNL     1      71.091  -7.586  50.329  1.00  0.00    -0.309 OA
BRANCH  22  23
HETATM   23  C5  UNL     1      71.633  -8.381  51.290  1.00  0.00     0.289 C 
HETATM   24  O1  UNL     1      71.675  -7.979  52.465  1.00  0.00    -0.260 OA
BRANCH  23  25
HETATM   25  C3  UNL     1      72.151  -9.698  50.880  1.00  0.00     0.009 C 
HETATM   26  C2  UNL     1      72.290 -10.678  51.739  1.00  0.00    -0.018 C 
HETATM   27  C1  UNL     1      72.807 -11.996  51.328  1.00  0.00     0.036 C 
HETATM   28  C4  UNL     1      72.533  -9.956  49.461  1.00  0.00     0.054 C 
ENDBRANCH  23  25
ENDBRANCH  22  23
ENDBRANCH   1  22
BRANCH   5  29
HETATM   29  C16 UNL     1      70.660  -1.838  51.840  1.00  0.00     0.157 C 
HETATM   30  C17 UNL     1      70.928  -0.666  51.003  1.00  0.00     0.094 C 
HETATM   31  O6  UNL     1      69.900  -1.768  52.785  1.00  0.00    -0.295 OA
ENDBRANCH   5  29
TORSDOF 9
ENDMDL
MODEL 2
REMARK VINA RESULT: -7.994745859      1.591      6.600
REMARK  9 active torsions:
REMARK  status: ('A' for Active; 'I' for Inactive)
REMARK    1  A    between atoms: C3_3  and  C5_5 
REMARK    2  A    between atoms: C5_5  and  O2_7 
REMARK    3  A    between atoms: O2_7  and  C6_8 
REMARK    4  A    between atoms: C8_10  and  C9_11 
REMARK    5  A    between atoms: C9_11  and  O3_12 
REMARK    6  A    between atoms: C9_11  and  C10_14 
REMARK    7  A    between atoms: C10_14  and  O4_15 
REMARK    8  A    between atoms: O4_15  and  C11_16 
REMARK    9  A    between atoms: C14_20  and  C16_22 
ROOT
HETATM    1  C6  UNL     1      70.211  -5.767  52.101  1.00  0.00     0.172 C 
HETATM    2  C7  UNL     1      70.560  -4.985  50.906  1.00  0.00     0.043 C 
HETATM    3  C8  UNL     1      71.488  -5.594  49.896  1.00  0.00     0.022 C 
HETATM    4  C13 UNL     1      72.298  -6.725  50.388  1.00  0.00     0.053 C 
HETATM    5  C14 UNL     1      71.548  -8.066  50.280  1.00  0.00     0.118 C 
HETATM    6  C15 UNL     1      72.255  -9.060  51.162  1.00  0.00     0.054 C 
HETATM    7  O7  UNL     1      70.237  -7.975  50.330  1.00  0.00    -0.364 OA
HETATM    8  C18 UNL     1      69.407  -8.025  51.322  1.00  0.00     0.163 C 
HETATM    9  C19 UNL     1      69.658  -8.764  52.585  1.00  0.00     0.038 C 
HETATM   10  C20 UNL     1      68.341  -8.446  53.326  1.00  0.00     0.038 C 
HETATM   11  C21 UNL     1      68.288  -6.958  53.187  1.00  0.00     0.163 A 
HETATM   12  O8  UNL     1      67.736  -6.321  52.105  1.00  0.00    -0.364 OA
HETATM   13  C22 UNL     1      69.022  -6.652  51.896  1.00  0.00     0.140 A 
ENDROOT
BRANCH   3  14
HETATM   14  C9  UNL     1      72.405  -4.516  49.308  1.00  0.00     0.146 C 
BRANCH  14  15
HETATM   15  O3  UNL     1      71.918  -3.263  49.833  1.00  0.00    -0.393 OA
ATOM     16  H3  UNL     1      71.357  -2.902  49.156  1.00  0.00     0.210 HD
ENDBRANCH  14  15
BRANCH  14  17
HETATM   17  C10 UNL     1      72.236  -4.336  47.824  1.00  0.00     0.210 C 
BRANCH  17  18
HETATM   18  O4  UNL     1      71.526  -5.407  47.233  1.00  0.00    -0.319 OA
BRANCH  18  19
HETATM   19  C11 UNL     1      70.229  -5.322  46.796  1.00  0.00     0.254 C 
HETATM   20  C12 UNL     1      69.093  -5.979  47.523  1.00  0.00     0.126 C 
HETATM   21  O5  UNL     1      69.973  -4.674  45.756  1.00  0.00    -0.266 OA
ENDBRANCH  18  19
ENDBRANCH  17  18
ENDBRANCH  14  17
ENDBRANCH   3  14
BRANCH   1  22
HETATM   22  O2  UNL     1      70.013  -4.967  53.263  1.00  0.00    -0.309 OA
BRANCH  22  23
HETATM   23  C5  UNL     1      69.570  -3.680  53.268  1.00  0.00     0.289 C 
HETATM   24  O1  UNL     1      68.371  -3.447  53.497  1.00  0.00    -0.260 OA
BRANCH  23  25
HETATM   25  C3  UNL     1      70.552  -2.616  52.996  1.00  0.00     0.009 C 
HETATM   26  C2  UNL     1      70.214  -1.517  52.366  1.00  0.00    -0.018 C 
HETATM   27  C1  UNL     1      71.196  -0.451  52.096  1.00  0.00     0.036 C 
HETATM   28  C4  UNL     1      71.970  -2.759  53.436  1.00  0.00     0.054 C 
ENDBRANCH  23  25
ENDBRANCH  22  23
ENDBRANCH   1  22
BRANCH   5  29
HETATM   29  C16 UNL     1      71.862  -8.538  48.866  1.00  0.00     0.157 C 
HETATM   30  C17 UNL     1      73.181  -8.417  48.240  1.00  0.00     0.094 C 
HETATM   31  O6  UNL     1      70.931  -9.033  48.266  1.00  0.00    -0.295 OA
ENDBRANCH   5  29
TORSDOF 9
ENDMDL
MODEL 3
REMARK VINA RESULT: -7.781757525      1.584      2.019
REMARK  9 active torsions:
REMARK  status: ('A' for Active; 'I' for Inactive)
REMARK    1  A    between atoms: C3_3  and  C5_5 
REMARK    2  A    between atoms: C5_5  and  O2_7 
REMARK    3  A    between atoms: O2_7  and  C6_8 
REMARK    4  A    between atoms: C8_10  and  C9_11 
REMARK    5  A    between atoms: C9_11  and  O3_12 
REMARK    6  A    between atoms: C9_11  and  C10_14 
REMARK    7  A    between atoms: C10_14  and  O4_15 
REMARK    8  A    between atoms: O4_15  and  C11_16 
REMARK    9  A    between atoms: C14_20  and  C16_22 
ROOT
HETATM    1  C6  UNL     1      70.882  -5.791  48.774  1.00  0.00     0.172 C 
HETATM    2  C7  UNL     1      69.690  -5.734  49.633  1.00  0.00     0.043 C 
HETATM    3  C8  UNL     1      69.774  -4.980  50.928  1.00  0.00     0.022 C 
HETATM    4  C13 UNL     1      71.141  -4.734  51.425  1.00  0.00     0.053 C 
HETATM    5  C14 UNL     1      71.757  -3.459  50.821  1.00  0.00     0.118 C 
HETATM    6  C15 UNL     1      73.244  -3.517  51.044  1.00  0.00     0.054 C 
HETATM    7  O7  UNL     1      71.294  -3.126  49.635  1.00  0.00    -0.364 OA
HETATM    8  C18 UNL     1      71.689  -3.426  48.440  1.00  0.00     0.163 C 
HETATM    9  C19 UNL     1      73.092  -3.752  48.081  1.00  0.00     0.038 C 
HETATM   10  C20 UNL     1      72.910  -4.004  46.569  1.00  0.00     0.038 C 
HETATM   11  C21 UNL     1      71.770  -4.971  46.576  1.00  0.00     0.163 A 
HETATM   12  O8  UNL     1      70.454  -4.584  46.585  1.00  0.00    -0.364 OA
HETATM   13  C22 UNL     1      70.974  -4.639  47.824  1.00  0.00     0.140 A 
ENDROOT
BRANCH   3  14
HETATM   14  C9  UNL     1      68.950  -5.695  52.005  1.00  0.00     0.146 C 
BRANCH  14  15
HETATM   15  O3  UNL     1      69.910  -6.191  52.963  1.00  0.00    -0.393 OA
ATOM     16  H3  UNL     1      69.400  -6.631  53.632  1.00  0.00     0.210 HD
ENDBRANCH  14  15
BRANCH  14  17
HETATM   17  C10 UNL     1      68.296  -6.958  51.515  1.00  0.00     0.210 C 
BRANCH  17  18
HETATM   18  O4  UNL     1      67.281  -7.409  52.392  1.00  0.00    -0.319 OA
BRANCH  18  19
HETATM   19  C11 UNL     1      67.232  -8.670  52.927  1.00  0.00     0.254 C 
HETATM   20  C12 UNL     1      68.471  -9.455  53.243  1.00  0.00     0.126 C 
HETATM   21  O5  UNL     1      66.120  -9.194  53.165  1.00  0.00    -0.266 OA
ENDBRANCH  18  19
ENDBRANCH  17  18
ENDBRANCH  14  17
ENDBRANCH   3  14
BRANCH   1  22
HETATM   22  O2  UNL     1      71.002  -7.013  48.054  1.00  0.00    -0.309 OA
BRANCH  22  23
HETATM   23  C5  UNL     1      71.181  -8.242  48.609  1.00  0.00     0.289 C 
HETATM   24  O1  UNL     1      70.631  -9.231  48.096  1.00  0.00    -0.260 OA
BRANCH  23  25
HETATM   25  C3  UNL     1      72.031  -8.335  49.808  1.00  0.00     0.009 C 
HETATM   26  C2  UNL     1      71.543  -8.705  50.967  1.00  0.00    -0.018 C 
HETATM   27  C1  UNL     1      72.395  -8.800  52.167  1.00  0.00     0.036 C 
HETATM   28  C4  UNL     1      73.486  -8.011  49.737  1.00  0.00     0.054 C 
ENDBRANCH  23  25
ENDBRANCH  22  23
ENDBRANCH   1  22
BRANCH   5  29
HETATM   29  C16 UNL     1      71.285  -2.355  51.759  1.00  0.00     0.157 C 
HETATM   30  C17 UNL     1      71.137  -2.524  53.207  1.00  0.00     0.094 C 
HETATM   31  O6  UNL     1      71.028  -1.296  51.225  1.00  0.00    -0.295 OA
ENDBRANCH   5  29
TORSDOF 9
ENDMDL
MODEL 4
REMARK VINA RESULT: -7.750241263      1.819      6.923
REMARK  9 active torsions:
REMARK  status: ('A' for Active; 'I' for Inactive)
REMARK    1  A    between atoms: C3_3  and  C5_5 
REMARK    2  A    between atoms: C5_5  and  O2_7 
REMARK    3  A    between atoms: O2_7  and  C6_8 
REMARK    4  A    between atoms: C8_10  and  C9_11 
REMARK    5  A    between atoms: C9_11  and  O3_12 
REMARK    6  A    between atoms: C9_11  and  C10_14 
REMARK    7  A    between atoms: C10_14  and  O4_15 
REMARK    8  A    between atoms: O4_15  and  C11_16 
REMARK    9  A    between atoms: C14_20  and  C16_22 
ROOT
HETATM    1  C6  UNL     1      70.085  -5.851  52.032  1.00  0.00     0.172 C 
HETATM    2  C7  UNL     1      70.384  -5.059  50.831  1.00  0.00     0.043 C 
HETATM    3  C8  UNL     1      71.265  -5.660  49.775  1.00  0.00     0.022 C 
HETATM    4  C13 UNL     1      72.092  -6.798  50.220  1.00  0.00     0.053 C 
HETATM    5  C14 UNL     1      71.334  -8.136  50.131  1.00  0.00     0.118 C 
HETATM    6  C15 UNL     1      72.076  -9.140  50.971  1.00  0.00     0.054 C 
HETATM    7  O7  UNL     1      70.027  -8.041  50.239  1.00  0.00    -0.364 OA
HETATM    8  C18 UNL     1      69.241  -8.099  51.265  1.00  0.00     0.163 C 
HETATM    9  C19 UNL     1      69.544  -8.852  52.509  1.00  0.00     0.038 C 
HETATM   10  C20 UNL     1      68.261  -8.538  53.309  1.00  0.00     0.038 C 
HETATM   11  C21 UNL     1      68.207  -7.048  53.188  1.00  0.00     0.163 A 
HETATM   12  O8  UNL     1      67.610  -6.399  52.137  1.00  0.00    -0.364 OA
HETATM   13  C22 UNL     1      68.885  -6.732  51.869  1.00  0.00     0.140 A 
ENDROOT
BRANCH   3  14
HETATM   14  C9  UNL     1      72.159  -4.578  49.159  1.00  0.00     0.146 C 
BRANCH  14  15
HETATM   15  O3  UNL     1      71.324  -3.407  49.035  1.00  0.00    -0.393 OA
ATOM     16  H3  UNL     1      70.443  -3.735  48.893  1.00  0.00     0.210 HD
ENDBRANCH  14  15
BRANCH  14  17
HETATM   17  C10 UNL     1      72.538  -4.861  47.731  1.00  0.00     0.210 C 
BRANCH  17  18
HETATM   18  O4  UNL     1      71.904  -3.978  46.825  1.00  0.00    -0.319 OA
BRANCH  18  19
HETATM   19  C11 UNL     1      71.394  -4.358  45.610  1.00  0.00     0.254 C 
HETATM   20  C12 UNL     1      72.237  -4.416  44.370  1.00  0.00     0.126 C 
HETATM   21  O5  UNL     1      70.185  -4.670  45.522  1.00  0.00    -0.266 OA
ENDBRANCH  18  19
ENDBRANCH  17  18
ENDBRANCH  14  17
ENDBRANCH   3  14
BRANCH   1  22
HETATM   22  O2  UNL     1      69.939  -5.063  53.209  1.00  0.00    -0.309 OA
BRANCH  22  23
HETATM   23  C5  UNL     1      69.514  -3.771  53.244  1.00  0.00     0.289 C 
HETATM   24  O1  UNL     1      68.328  -3.525  53.522  1.00  0.00    -0.260 OA
BRANCH  23  25
HETATM   25  C3  UNL     1      70.498  -2.716  52.946  1.00  0.00     0.009 C 
HETATM   26  C2  UNL     1      70.149  -1.602  52.349  1.00  0.00    -0.018 C 
HETATM   27  C1  UNL     1      71.134  -0.546  52.052  1.00  0.00     0.036 C 
HETATM   28  C4  UNL     1      71.932  -2.887  53.319  1.00  0.00     0.054 C 
ENDBRANCH  23  25
ENDBRANCH  22  23
ENDBRANCH   1  22
BRANCH   5  29
HETATM   29  C16 UNL     1      71.586  -8.593  48.700  1.00  0.00     0.157 C 
HETATM   30  C17 UNL     1      72.901  -8.569  48.055  1.00  0.00     0.094 C 
HETATM   31  O6  UNL     1      70.606  -8.991  48.103  1.00  0.00    -0.295 OA
ENDBRANCH   5  29
TORSDOF 9
ENDMDL
MODEL 5
REMARK VINA RESULT: -7.735783621      1.992      5.193
REMARK  9 active torsions:
REMARK  status: ('A' for Active; 'I' for Inactive)
REMARK    1  A    between atoms: C3_3  and  C5_5 
REMARK    2  A    between atoms: C5_5  and  O2_7 
REMARK    3  A    between atoms: O2_7  and  C6_8 
REMARK    4  A    between atoms: C8_10  and  C9_11 
REMARK    5  A    between atoms: C9_11  and  O3_12 
REMARK    6  A    between atoms: C9_11  and  C10_14 
REMARK    7  A    between atoms: C10_14  and  O4_15 
REMARK    8  A    between atoms: O4_15  and  C11_16 
REMARK    9  A    between atoms: C14_20  and  C16_22 
ROOT
HETATM    1  C6  UNL     1      71.938  -4.699  49.886  1.00  0.00     0.172 C 
HETATM    2  C7  UNL     1      72.029  -5.794  50.863  1.00  0.00     0.043 C 
HETATM    3  C8  UNL     1      71.045  -6.923  50.769  1.00  0.00     0.022 C 
HETATM    4  C13 UNL     1      69.825  -6.630  49.993  1.00  0.00     0.053 C 
HETATM    5  C14 UNL     1      70.021  -6.880  48.486  1.00  0.00     0.118 C 
HETATM    6  C15 UNL     1      68.909  -6.178  47.755  1.00  0.00     0.054 C 
HETATM    7  O7  UNL     1      71.259  -6.751  48.059  1.00  0.00    -0.364 OA
HETATM    8  C18 UNL     1      71.906  -5.735  47.588  1.00  0.00     0.163 C 
HETATM    9  C19 UNL     1      71.273  -4.598  46.875  1.00  0.00     0.038 C 
HETATM   10  C20 UNL     1      72.532  -3.754  46.580  1.00  0.00     0.038 C 
HETATM   11  C21 UNL     1      73.154  -3.688  47.938  1.00  0.00     0.163 A 
HETATM   12  O8  UNL     1      74.010  -4.645  48.423  1.00  0.00    -0.364 OA
HETATM   13  C22 UNL     1      72.721  -4.962  48.638  1.00  0.00     0.140 A 
ENDROOT
BRANCH   3  14
HETATM   14  C9  UNL     1      70.665  -7.406  52.173  1.00  0.00     0.146 C 
BRANCH  14  15
HETATM   15  O3  UNL     1      70.551  -8.842  52.072  1.00  0.00    -0.393 OA
ATOM     16  H3  UNL     1      70.086  -9.005  51.260  1.00  0.00     0.210 HD
ENDBRANCH  14  15
BRANCH  14  17
HETATM   17  C10 UNL     1      69.278  -6.997  52.588  1.00  0.00     0.210 C 
BRANCH  17  18
HETATM   18  O4  UNL     1      68.459  -8.111  52.890  1.00  0.00    -0.319 OA
BRANCH  18  19
HETATM   19  C11 UNL     1      67.102  -8.041  53.073  1.00  0.00     0.254 C 
HETATM   20  C12 UNL     1      66.373  -6.732  53.172  1.00  0.00     0.126 C 
HETATM   21  O5  UNL     1      66.439  -9.098  53.160  1.00  0.00    -0.266 OA
ENDBRANCH  18  19
ENDBRANCH  17  18
ENDBRANCH  14  17
ENDBRANCH   3  14
BRANCH   1  22
HETATM   22  O2  UNL     1      72.308  -3.432  50.421  1.00  0.00    -0.309 OA
BRANCH  22  23
HETATM   23  C5  UNL     1      71.447  -2.511  50.933  1.00  0.00     0.289 C 
HETATM   24  O1  UNL     1      71.225  -1.464  50.301  1.00  0.00    -0.260 OA
BRANCH  23  25
HETATM   25  C3  UNL     1      70.815  -2.808  52.229  1.00  0.00     0.009 C 
HETATM   26  C2  UNL     1      69.645  -3.393  52.304  1.00  0.00    -0.018 C 
HETATM   27  C1  UNL     1      69.013  -3.692  53.602  1.00  0.00     0.036 C 
HETATM   28  C4  UNL     1      71.497  -2.449  53.507  1.00  0.00     0.054 C 
ENDBRANCH  23  25
ENDBRANCH  22  23
ENDBRANCH   1  22
BRANCH   5  29
HETATM   29  C16 UNL     1      69.695  -8.360  48.324  1.00  0.00     0.157 C 
HETATM   30  C17 UNL     1      70.708  -9.412  48.216  1.00  0.00     0.094 C 
HETATM   31  O6  UNL     1      68.511  -8.628  48.287  1.00  0.00    -0.295 OA
ENDBRANCH   5  29
TORSDOF 9
ENDMDL
