MODEL 1
REMARK VINA RESULT: -7.148887451      0.000      0.000
REMARK  8 active torsions:
REMARK  status: ('A' for Active; 'I' for Inactive)
REMARK    1  A    between atoms: O1_2  and  C2_3 
REMARK    2  A    between atoms: C2_3  and  C3_5 
REMARK    3  A    between atoms: C3_5  and  C4_6 
REMARK    4  A    between atoms: C4_6  and  C6_8 
REMARK    5  A    between atoms: C7_10  and  C8_11 
REMARK    6  A    between atoms: C11_14  and  S2_15 
REMARK    7  A    between atoms: C14_22  and  C15_23 
REMARK    8  A    between atoms: C18_27  and  O6_28 
ROOT
HETATM    1  C6  UNL     1      69.899  -6.448  51.305  1.00  0.00     0.081 C 
HETATM    2  S1  UNL     1      70.638  -7.967  51.956  1.00  0.00    -0.149 SA
HETATM    3  C7  UNL     1      71.480  -8.789  50.598  1.00  0.00     0.108 C 
HETATM    4  C14 UNL     1      71.345  -8.200  49.259  1.00  0.00     0.077 C 
HETATM    5  C17 UNL     1      70.445  -7.069  49.040  1.00  0.00     0.046 C 
HETATM    6  C18 UNL     1      69.303  -6.866  49.994  1.00  0.00     0.133 C 
ENDROOT
BRANCH   3   7
HETATM    7  C8  UNL     1      72.908  -8.925  51.008  1.00  0.00     0.023 A 
HETATM    8  C9  UNL     1      73.181  -9.413  52.268  1.00  0.00     0.027 A 
HETATM    9  C10 UNL     1      74.455  -9.581  52.754  1.00  0.00     0.027 A 
HETATM   10  C11 UNL     1      75.510  -9.251  51.947  1.00  0.00     0.074 A 
HETATM   11  C13 UNL     1      75.231  -8.763  50.687  1.00  0.00     0.111 A 
HETATM   12  N1  UNL     1      73.954  -8.605  50.231  1.00  0.00    -0.367 N 
ATOM     13  H1  UNL     1      73.794  -8.240  49.292  1.00  0.00     0.165 HD
BRANCH  10  14
HETATM   14  S2  UNL     1      77.175  -9.421  52.455  1.00  0.00     0.173 S 
HETATM   15  C12 UNL     1      78.174  -8.408  51.358  1.00  0.00     0.167 C 
HETATM   16  O3  UNL     1      77.559 -10.861  52.325  1.00  0.00    -0.223 OA
HETATM   17  O4  UNL     1      77.299  -8.917  53.858  1.00  0.00    -0.223 OA
ENDBRANCH  10  14
ENDBRANCH   3   7
BRANCH   4  18
HETATM   18  C15 UNL     1      71.029  -9.270  48.268  1.00  0.00     0.128 C 
HETATM   19  C16 UNL     1      72.105 -10.084  47.650  1.00  0.00     0.091 C 
HETATM   20  O5  UNL     1      69.876  -9.484  47.957  1.00  0.00    -0.298 OA
ENDBRANCH   4  18
BRANCH   1  21
HETATM   21  C4  UNL     1      68.922  -5.836  52.268  1.00  0.00     0.007 C 
HETATM   22  C5  UNL     1      69.455  -4.676  53.038  1.00  0.00     0.011 C 
BRANCH  21  23
HETATM   23  C3  UNL     1      68.387  -6.872  53.230  1.00  0.00     0.116 C 
BRANCH  23  24
HETATM   24  C2  UNL     1      66.917  -7.037  53.056  1.00  0.00     0.258 C 
HETATM   25  O2  UNL     1      66.118  -6.151  53.472  1.00  0.00    -0.265 OA
BRANCH  24  26
HETATM   26  O1  UNL     1      66.420  -8.157  52.439  1.00  0.00    -0.326 OA
HETATM   27  C1  UNL     1      66.785  -9.452  52.859  1.00  0.00     0.213 C 
ENDBRANCH  24  26
ENDBRANCH  23  24
ENDBRANCH  21  23
ENDBRANCH   1  21
BRANCH   6  28
HETATM   28  O6  UNL     1      68.500  -7.997  50.105  1.00  0.00    -0.394 OA
ATOM     29  H6  UNL     1      67.583  -7.814  49.934  1.00  0.00     0.210 HD
ENDBRANCH   6  28
TORSDOF 8
ENDMDL
MODEL 2
REMARK VINA RESULT: -6.960587228      3.829      5.477
REMARK  8 active torsions:
REMARK  status: ('A' for Active; 'I' for Inactive)
REMARK    1  A    between atoms: O1_2  and  C2_3 
REMARK    2  A    between atoms: C2_3  and  C3_5 
REMARK    3  A    between atoms: C3_5  and  C4_6 
REMARK    4  A    between atoms: C4_6  and  C6_8 
REMARK    5  A    between atoms: C7_10  and  C8_11 
REMARK    6  A    between atoms: C11_14  and  S2_15 
REMARK    7  A    between atoms: C14_22  and  C15_23 
REMARK    8  A    between atoms: C18_27  and  O6_28 
ROOT
HETATM    1  C6  UNL     1      69.323  -6.456  50.695  1.00  0.00     0.081 C 
HETATM    2  S1  UNL     1      70.978  -5.858  50.276  1.00  0.00    -0.149 SA
HETATM    3  C7  UNL     1      71.685  -7.001  49.083  1.00  0.00     0.108 C 
HETATM    4  C14 UNL     1      70.910  -8.206  48.755  1.00  0.00     0.077 C 
HETATM    5  C17 UNL     1      69.680  -8.511  49.483  1.00  0.00     0.046 C 
HETATM    6  C18 UNL     1      69.501  -7.936  50.859  1.00  0.00     0.133 C 
ENDROOT
BRANCH   3   7
HETATM    7  C8  UNL     1      72.010  -6.197  47.870  1.00  0.00     0.023 A 
HETATM    8  C9  UNL     1      73.301  -6.237  47.387  1.00  0.00     0.027 A 
HETATM    9  C10 UNL     1      73.715  -5.538  46.279  1.00  0.00     0.027 A 
HETATM   10  C11 UNL     1      72.802  -4.763  45.616  1.00  0.00     0.074 A 
HETATM   11  C13 UNL     1      71.512  -4.728  46.103  1.00  0.00     0.111 A 
HETATM   12  N1  UNL     1      71.128  -5.431  47.208  1.00  0.00    -0.367 N 
ATOM     13  H1  UNL     1      70.163  -5.375  47.534  1.00  0.00     0.165 HD
BRANCH  10  14
HETATM   14  S2  UNL     1      73.212  -3.830  44.194  1.00  0.00     0.173 S 
HETATM   15  C12 UNL     1      73.261  -2.103  44.686  1.00  0.00     0.167 C 
HETATM   16  O3  UNL     1      72.146  -4.048  43.168  1.00  0.00    -0.223 OA
HETATM   17  O4  UNL     1      74.564  -4.256  43.719  1.00  0.00    -0.223 OA
ENDBRANCH  10  14
ENDBRANCH   3   7
BRANCH   4  18
HETATM   18  C15 UNL     1      71.801  -9.402  48.786  1.00  0.00     0.128 C 
HETATM   19  C16 UNL     1      71.725 -10.443  47.732  1.00  0.00     0.091 C 
HETATM   20  O5  UNL     1      72.604  -9.533  49.686  1.00  0.00    -0.298 OA
ENDBRANCH   4  18
BRANCH   1  21
HETATM   21  C4  UNL     1      68.757  -5.759  51.899  1.00  0.00     0.007 C 
HETATM   22  C5  UNL     1      69.644  -4.714  52.485  1.00  0.00     0.011 C 
BRANCH  21  23
HETATM   23  C3  UNL     1      68.378  -6.753  52.974  1.00  0.00     0.116 C 
BRANCH  23  24
HETATM   24  C2  UNL     1      66.900  -6.927  53.027  1.00  0.00     0.258 C 
HETATM   25  O2  UNL     1      66.159  -5.993  53.445  1.00  0.00    -0.265 OA
BRANCH  24  26
HETATM   26  O1  UNL     1      66.332  -8.107  52.620  1.00  0.00    -0.326 OA
HETATM   27  C1  UNL     1      66.864  -9.353  53.010  1.00  0.00     0.213 C 
ENDBRANCH  24  26
ENDBRANCH  23  24
ENDBRANCH  21  23
ENDBRANCH   1  21
BRANCH   6  28
HETATM   28  O6  UNL     1      70.555  -8.260  51.708  1.00  0.00    -0.394 OA
ATOM     29  H6  UNL     1      71.300  -8.626  51.245  1.00  0.00     0.210 HD
ENDBRANCH   6  28
TORSDOF 8
ENDMDL
MODEL 3
REMARK VINA RESULT: -6.834558812      3.527      7.063
REMARK  8 active torsions:
REMARK  status: ('A' for Active; 'I' for Inactive)
REMARK    1  A    between atoms: O1_2  and  C2_3 
REMARK    2  A    between atoms: C2_3  and  C3_5 
REMARK    3  A    between atoms: C3_5  and  C4_6 
REMARK    4  A    between atoms: C4_6  and  C6_8 
REMARK    5  A    between atoms: C7_10  and  C8_11 
REMARK    6  A    between atoms: C11_14  and  S2_15 
REMARK    7  A    between atoms: C14_22  and  C15_23 
REMARK    8  A    between atoms: C18_27  and  O6_28 
ROOT
HETATM    1  C6  UNL     1      72.939  -9.052  51.457  1.00  0.00     0.081 C 
HETATM    2  S1  UNL     1      72.091  -9.134  49.861  1.00  0.00    -0.149 SA
HETATM    3  C7  UNL     1      70.641  -8.076  49.958  1.00  0.00     0.108 C 
HETATM    4  C14 UNL     1      70.339  -7.455  51.256  1.00  0.00     0.077 C 
HETATM    5  C17 UNL     1      71.122  -7.806  52.440  1.00  0.00     0.046 C 
HETATM    6  C18 UNL     1      71.830  -9.131  52.463  1.00  0.00     0.133 C 
ENDROOT
BRANCH   3   7
HETATM    7  C8  UNL     1      70.784  -7.063  48.873  1.00  0.00     0.023 A 
HETATM    8  C9  UNL     1      72.053  -6.760  48.427  1.00  0.00     0.027 A 
HETATM    9  C10 UNL     1      72.307  -5.846  47.434  1.00  0.00     0.027 A 
HETATM   10  C11 UNL     1      71.247  -5.201  46.854  1.00  0.00     0.074 A 
HETATM   11  C13 UNL     1      69.980  -5.508  47.304  1.00  0.00     0.111 A 
HETATM   12  N1  UNL     1      69.757  -6.421  48.294  1.00  0.00    -0.367 N 
ATOM     13  H1  UNL     1      68.803  -6.617  48.596  1.00  0.00     0.165 HD
BRANCH  10  14
HETATM   14  S2  UNL     1      71.446  -4.017  45.582  1.00  0.00     0.173 S 
HETATM   15  C12 UNL     1      72.802  -2.941  46.062  1.00  0.00     0.167 C 
HETATM   16  O3  UNL     1      70.176  -3.233  45.470  1.00  0.00    -0.223 OA
HETATM   17  O4  UNL     1      71.794  -4.732  44.316  1.00  0.00    -0.223 OA
ENDBRANCH  10  14
ENDBRANCH   3   7
BRANCH   4  18
HETATM   18  C15 UNL     1      68.890  -7.618  51.567  1.00  0.00     0.128 C 
HETATM   19  C16 UNL     1      68.350  -7.277  52.907  1.00  0.00     0.091 C 
HETATM   20  O5  UNL     1      68.133  -8.037  50.716  1.00  0.00    -0.298 OA
ENDBRANCH   4  18
BRANCH   1  21
HETATM   21  C4  UNL     1      73.986 -10.119  51.598  1.00  0.00     0.007 C 
HETATM   22  C5  UNL     1      75.344  -9.613  51.946  1.00  0.00     0.011 C 
BRANCH  21  23
HETATM   23  C3  UNL     1      74.072 -10.963  50.346  1.00  0.00     0.116 C 
BRANCH  23  24
HETATM   24  C2  UNL     1      73.272 -12.210  50.501  1.00  0.00     0.258 C 
HETATM   25  O2  UNL     1      72.867 -12.576  51.640  1.00  0.00    -0.265 OA
BRANCH  24  26
HETATM   26  O1  UNL     1      72.967 -12.971  49.401  1.00  0.00    -0.326 OA
HETATM   27  C1  UNL     1      73.332 -12.566  48.101  1.00  0.00     0.213 C 
ENDBRANCH  24  26
ENDBRANCH  23  24
ENDBRANCH  21  23
ENDBRANCH   1  21
BRANCH   6  28
HETATM   28  O6  UNL     1      70.966 -10.196  52.229  1.00  0.00    -0.394 OA
ATOM     29  H6  UNL     1      71.218 -10.984  52.696  1.00  0.00     0.210 HD
ENDBRANCH   6  28
TORSDOF 8
ENDMDL
MODEL 4
REMARK VINA RESULT: -6.782088601      3.123      3.846
REMARK  8 active torsions:
REMARK  status: ('A' for Active; 'I' for Inactive)
REMARK    1  A    between atoms: O1_2  and  C2_3 
REMARK    2  A    between atoms: C2_3  and  C3_5 
REMARK    3  A    between atoms: C3_5  and  C4_6 
REMARK    4  A    between atoms: C4_6  and  C6_8 
REMARK    5  A    between atoms: C7_10  and  C8_11 
REMARK    6  A    between atoms: C11_14  and  S2_15 
REMARK    7  A    between atoms: C14_22  and  C15_23 
REMARK    8  A    between atoms: C18_27  and  O6_28 
ROOT
HETATM    1  C6  UNL     1      69.910  -6.099  51.745  1.00  0.00     0.081 C 
HETATM    2  S1  UNL     1      69.770  -6.934  50.145  1.00  0.00    -0.149 SA
HETATM    3  C7  UNL     1      71.334  -6.729  49.284  1.00  0.00     0.108 C 
HETATM    4  C14 UNL     1      72.353  -5.883  49.921  1.00  0.00     0.077 C 
HETATM    5  C17 UNL     1      72.037  -5.138  51.138  1.00  0.00     0.046 C 
HETATM    6  C18 UNL     1      70.600  -4.808  51.423  1.00  0.00     0.133 C 
ENDROOT
BRANCH   3   7
HETATM    7  C8  UNL     1      71.843  -8.102  49.001  1.00  0.00     0.023 A 
HETATM    8  C9  UNL     1      72.420  -8.809  50.034  1.00  0.00     0.027 A 
HETATM    9  C10 UNL     1      72.923 -10.080  49.891  1.00  0.00     0.027 A 
HETATM   10  C11 UNL     1      72.847 -10.678  48.662  1.00  0.00     0.074 A 
HETATM   11  C13 UNL     1      72.268  -9.965  47.632  1.00  0.00     0.111 A 
HETATM   12  N1  UNL     1      71.777  -8.703  47.802  1.00  0.00    -0.367 N 
ATOM     13  H1  UNL     1      71.358  -8.212  47.012  1.00  0.00     0.165 HD
BRANCH  10  14
HETATM   14  S2  UNL     1      73.453 -12.291  48.359  1.00  0.00     0.173 S 
HETATM   15  C12 UNL     1      75.246 -12.209  48.434  1.00  0.00     0.167 C 
HETATM   16  O3  UNL     1      73.008 -12.708  46.992  1.00  0.00    -0.223 OA
HETATM   17  O4  UNL     1      72.945 -13.200  49.432  1.00  0.00    -0.223 OA
ENDBRANCH  10  14
ENDBRANCH   3   7
BRANCH   4  18
HETATM   18  C15 UNL     1      72.928  -4.944  48.914  1.00  0.00     0.128 C 
HETATM   19  C16 UNL     1      74.370  -4.985  48.563  1.00  0.00     0.091 C 
HETATM   20  O5  UNL     1      72.212  -4.131  48.368  1.00  0.00    -0.298 OA
ENDBRANCH   4  18
BRANCH   1  21
HETATM   21  C4  UNL     1      68.578  -5.943  52.421  1.00  0.00     0.007 C 
HETATM   22  C5  UNL     1      68.463  -4.741  53.294  1.00  0.00     0.011 C 
BRANCH  21  23
HETATM   23  C3  UNL     1      68.227  -7.178  53.220  1.00  0.00     0.116 C 
BRANCH  23  24
HETATM   24  C2  UNL     1      66.774  -7.482  53.101  1.00  0.00     0.258 C 
HETATM   25  O2  UNL     1      65.924  -6.548  53.053  1.00  0.00    -0.265 OA
BRANCH  24  26
HETATM   26  O1  UNL     1      66.347  -8.785  53.043  1.00  0.00    -0.326 OA
HETATM   27  C1  UNL     1      66.629  -9.601  51.929  1.00  0.00     0.213 C 
ENDBRANCH  24  26
ENDBRANCH  23  24
ENDBRANCH  21  23
ENDBRANCH   1  21
BRANCH   6  28
HETATM   28  O6  UNL     1      69.997  -4.124  50.371  1.00  0.00    -0.394 OA
ATOM     29  H6  UNL     1      70.248  -4.463  49.520  1.00  0.00     0.210 HD
ENDBRANCH   6  28
TORSDOF 8
ENDMDL
MODEL 5
REMARK VINA RESULT: -6.775342928      4.511      6.070
REMARK  8 active torsions:
REMARK  status: ('A' for Active; 'I' for Inactive)
REMARK    1  A    between atoms: O1_2  and  C2_3 
REMARK    2  A    between atoms: C2_3  and  C3_5 
REMARK    3  A    between atoms: C3_5  and  C4_6 
REMARK    4  A    between atoms: C4_6  and  C6_8 
REMARK    5  A    between atoms: C7_10  and  C8_11 
REMARK    6  A    between atoms: C11_14  and  S2_15 
REMARK    7  A    between atoms: C14_22  and  C15_23 
REMARK    8  A    between atoms: C18_27  and  O6_28 
ROOT
HETATM    1  C6  UNL     1      70.232  -6.084  52.200  1.00  0.00     0.081 C 
HETATM    2  S1  UNL     1      69.880  -5.547  50.508  1.00  0.00    -0.149 SA
HETATM    3  C7  UNL     1      70.639  -3.935  50.278  1.00  0.00     0.108 C 
HETATM    4  C14 UNL     1      71.276  -3.311  51.447  1.00  0.00     0.077 C 
HETATM    5  C17 UNL     1      71.164  -3.932  52.765  1.00  0.00     0.046 C 
HETATM    6  C18 UNL     1      70.007  -4.854  53.027  1.00  0.00     0.133 C 
ENDROOT
BRANCH   3   7
HETATM    7  C8  UNL     1      71.585  -4.074  49.134  1.00  0.00     0.023 A 
HETATM    8  C9  UNL     1      71.067  -4.380  47.893  1.00  0.00     0.027 A 
HETATM    9  C10 UNL     1      71.841  -4.532  46.768  1.00  0.00     0.027 A 
HETATM   10  C11 UNL     1      73.196  -4.371  46.880  1.00  0.00     0.074 A 
HETATM   11  C13 UNL     1      73.708  -4.065  48.124  1.00  0.00     0.111 A 
HETATM   12  N1  UNL     1      72.916  -3.920  49.226  1.00  0.00    -0.367 N 
ATOM     13  H1  UNL     1      73.338  -3.694  50.126  1.00  0.00     0.165 HD
BRANCH  10  14
HETATM   14  S2  UNL     1      74.281  -4.540  45.519  1.00  0.00     0.173 S 
HETATM   15  C12 UNL     1      75.332  -3.084  45.491  1.00  0.00     0.167 C 
HETATM   16  O3  UNL     1      73.459  -4.612  44.271  1.00  0.00    -0.223 OA
HETATM   17  O4  UNL     1      75.119  -5.762  45.727  1.00  0.00    -0.223 OA
ENDBRANCH  10  14
ENDBRANCH   3   7
BRANCH   4  18
HETATM   18  C15 UNL     1      70.855  -1.883  51.547  1.00  0.00     0.128 C 
HETATM   19  C16 UNL     1      71.319  -0.876  50.561  1.00  0.00     0.091 C 
HETATM   20  O5  UNL     1      70.121  -1.531  52.447  1.00  0.00    -0.298 OA
ENDBRANCH   4  18
BRANCH   1  21
HETATM   21  C4  UNL     1      69.401  -7.268  52.604  1.00  0.00     0.007 C 
HETATM   22  C5  UNL     1      70.101  -8.580  52.501  1.00  0.00     0.011 C 
BRANCH  21  23
HETATM   23  C3  UNL     1      68.115  -7.324  51.810  1.00  0.00     0.116 C 
BRANCH  23  24
HETATM   24  C2  UNL     1      66.938  -7.321  52.723  1.00  0.00     0.258 C 
HETATM   25  O2  UNL     1      66.604  -6.268  53.337  1.00  0.00    -0.265 OA
BRANCH  24  26
HETATM   26  O1  UNL     1      66.204  -8.466  52.901  1.00  0.00    -0.326 OA
HETATM   27  C1  UNL     1      66.538  -9.664  52.238  1.00  0.00     0.213 C 
ENDBRANCH  24  26
ENDBRANCH  23  24
ENDBRANCH  21  23
ENDBRANCH   1  21
BRANCH   6  28
HETATM   28  O6  UNL     1      68.781  -4.249  52.769  1.00  0.00    -0.394 OA
ATOM     29  H6  UNL     1      68.594  -4.181  51.840  1.00  0.00     0.210 HD
ENDBRANCH   6  28
TORSDOF 8
ENDMDL
