MODEL 1
REMARK VINA RESULT: -7.603615031      0.000      0.000
REMARK  6 active torsions:
REMARK  status: ('A' for Active; 'I' for Inactive)
REMARK    1  A    between atoms: O1_2  and  C2_3 
REMARK    2  A    between atoms: C2_3  and  O2_4 
REMARK    3  A    between atoms: O2_4  and  N1_5 
REMARK    4  A    between atoms: N2_11  and  N3_12 
REMARK    5  A    between atoms: N3_12  and  S3_14 
REMARK    6  A    between atoms: S3_14  and  C4_17 
ROOT
HETATM    1  N3  UNL     1      71.739  -7.763  48.965  1.00  0.00    -0.212 N 
ATOM      2  H3  UNL     1      72.491  -7.120  48.715  1.00  0.00     0.201 HD
ENDROOT
BRANCH   1   3
HETATM    3  N2  UNL     1      72.010  -9.060  49.430  1.00  0.00    -0.191 N 
HETATM    4  C3  UNL     1      72.166  -9.398  50.796  1.00  0.00     0.169 C 
HETATM    5  S1  UNL     1      72.838 -11.054  50.818  1.00  0.00    -0.018 SA
HETATM    6  S2  UNL     1      71.837  -8.516  52.109  1.00  0.00    -0.050 SA
HETATM    7  C2  UNL     1      73.237 -11.109  49.017  1.00  0.00     0.337 C 
HETATM    8  C13 UNL     1      72.176 -10.165  48.552  1.00  0.00     0.322 C 
HETATM    9  O7  UNL     1      71.556 -10.407  47.487  1.00  0.00    -0.264 OA
BRANCH   7  10
HETATM   10  O1  UNL     1      74.498 -10.611  48.881  1.00  0.00    -0.342 OA
HETATM   11  C1  UNL     1      75.339 -10.921  49.946  1.00  0.00     0.207 C 
ENDBRANCH   7  10
BRANCH   7  12
HETATM   12  O2  UNL     1      73.012 -12.403  48.573  1.00  0.00    -0.158 OA
BRANCH  12  13
HETATM   13  N1  UNL     1      73.818 -12.915  47.588  1.00  0.00     0.009 N 
HETATM   14  O3  UNL     1      73.785 -12.545  46.403  1.00  0.00    -0.511 OA
HETATM   15  O4  UNL     1      74.721 -13.898  47.923  1.00  0.00    -0.511 OA
ENDBRANCH  12  13
ENDBRANCH   7  12
ENDBRANCH   1   3
BRANCH   1  16
HETATM   16  S3  UNL     1      70.124  -7.315  48.837  1.00  0.00     0.277 S 
HETATM   17  O5  UNL     1      69.829  -6.396  47.657  1.00  0.00    -0.199 OA
HETATM   18  O6  UNL     1      69.155  -8.496  48.744  1.00  0.00    -0.199 OA
BRANCH  16  19
HETATM   19  C4  UNL     1      69.630  -6.411  50.275  1.00  0.00     0.092 A 
HETATM   20  C5  UNL     1      68.701  -6.877  51.173  1.00  0.00    -0.038 A 
HETATM   21  C6  UNL     1      68.048  -8.199  50.986  1.00  0.00     0.050 C 
HETATM   22  C7  UNL     1      68.378  -6.078  52.273  1.00  0.00     0.015 A 
HETATM   23  C8  UNL     1      68.948  -4.858  52.488  1.00  0.00    -0.061 A 
HETATM   24  C9  UNL     1      68.564  -4.034  53.685  1.00  0.00     0.048 C 
HETATM   25  C10 UNL     1      69.877  -4.408  51.578  1.00  0.00     0.015 A 
HETATM   26  C11 UNL     1      70.224  -5.168  50.477  1.00  0.00    -0.038 A 
HETATM   27  C12 UNL     1      71.246  -4.617  49.559  1.00  0.00     0.050 C 
ENDBRANCH  16  19
ENDBRANCH   1  16
TORSDOF 6
ENDMDL
MODEL 2
REMARK VINA RESULT: -7.508723883      4.285      5.980
REMARK  6 active torsions:
REMARK  status: ('A' for Active; 'I' for Inactive)
REMARK    1  A    between atoms: O1_2  and  C2_3 
REMARK    2  A    between atoms: C2_3  and  O2_4 
REMARK    3  A    between atoms: O2_4  and  N1_5 
REMARK    4  A    between atoms: N2_11  and  N3_12 
REMARK    5  A    between atoms: N3_12  and  S3_14 
REMARK    6  A    between atoms: S3_14  and  C4_17 
ROOT
HETATM    1  N3  UNL     1      70.760  -6.447  48.342  1.00  0.00    -0.212 N 
ATOM      2  H3  UNL     1      70.095  -7.186  48.111  1.00  0.00     0.201 HD
ENDROOT
BRANCH   1   3
HETATM    3  N2  UNL     1      71.643  -5.930  47.380  1.00  0.00    -0.191 N 
HETATM    4  C3  UNL     1      72.998  -6.322  47.253  1.00  0.00     0.169 C 
HETATM    5  S1  UNL     1      73.750  -5.135  46.149  1.00  0.00    -0.018 SA
HETATM    6  S2  UNL     1      73.770  -7.563  47.942  1.00  0.00    -0.050 SA
HETATM    7  C2  UNL     1      72.341  -3.944  46.181  1.00  0.00     0.337 C 
HETATM    8  C13 UNL     1      71.254  -4.933  46.446  1.00  0.00     0.322 C 
HETATM    9  O7  UNL     1      70.149  -4.809  45.861  1.00  0.00    -0.264 OA
BRANCH   7  10
HETATM   10  O1  UNL     1      72.568  -3.098  47.225  1.00  0.00    -0.342 OA
HETATM   11  C1  UNL     1      71.655  -2.050  47.305  1.00  0.00     0.207 C 
ENDBRANCH   7  10
BRANCH   7  12
HETATM   12  O2  UNL     1      72.235  -3.381  44.918  1.00  0.00    -0.158 OA
BRANCH  12  13
HETATM   13  N1  UNL     1      72.612  -4.123  43.827  1.00  0.00     0.009 N 
HETATM   14  O3  UNL     1      71.895  -4.989  43.298  1.00  0.00    -0.511 OA
HETATM   15  O4  UNL     1      73.855  -3.902  43.280  1.00  0.00    -0.511 OA
ENDBRANCH  12  13
ENDBRANCH   7  12
ENDBRANCH   1   3
BRANCH   1  16
HETATM   16  S3  UNL     1      70.846  -5.797  49.890  1.00  0.00     0.277 S 
HETATM   17  O5  UNL     1      72.177  -6.043  50.591  1.00  0.00    -0.199 OA
HETATM   18  O6  UNL     1      70.574  -4.292  49.950  1.00  0.00    -0.199 OA
BRANCH  16  19
HETATM   19  C4  UNL     1      69.621  -6.541  50.928  1.00  0.00     0.092 A 
HETATM   20  C5  UNL     1      69.376  -6.127  52.215  1.00  0.00    -0.038 A 
HETATM   21  C6  UNL     1      70.139  -5.004  52.819  1.00  0.00     0.050 C 
HETATM   22  C7  UNL     1      68.390  -6.789  52.951  1.00  0.00     0.015 A 
HETATM   23  C8  UNL     1      67.665  -7.826  52.442  1.00  0.00    -0.061 A 
HETATM   24  C9  UNL     1      66.617  -8.509  53.276  1.00  0.00     0.048 C 
HETATM   25  C10 UNL     1      67.924  -8.226  51.151  1.00  0.00     0.015 A 
HETATM   26  C11 UNL     1      68.891  -7.597  50.390  1.00  0.00    -0.038 A 
HETATM   27  C12 UNL     1      69.092  -8.078  49.005  1.00  0.00     0.050 C 
ENDBRANCH  16  19
ENDBRANCH   1  16
TORSDOF 6
ENDMDL
MODEL 3
REMARK VINA RESULT: -7.460725180      2.263      3.205
REMARK  6 active torsions:
REMARK  status: ('A' for Active; 'I' for Inactive)
REMARK    1  A    between atoms: O1_2  and  C2_3 
REMARK    2  A    between atoms: C2_3  and  O2_4 
REMARK    3  A    between atoms: O2_4  and  N1_5 
REMARK    4  A    between atoms: N2_11  and  N3_12 
REMARK    5  A    between atoms: N3_12  and  S3_14 
REMARK    6  A    between atoms: S3_14  and  C4_17 
ROOT
HETATM    1  N3  UNL     1      72.338  -6.361  50.387  1.00  0.00    -0.212 N 
ATOM      2  H3  UNL     1      72.654  -5.664  51.062  1.00  0.00     0.201 HD
ENDROOT
BRANCH   1   3
HETATM    3  N2  UNL     1      73.137  -7.465  50.049  1.00  0.00    -0.191 N 
HETATM    4  C3  UNL     1      74.078  -7.471  48.991  1.00  0.00     0.169 C 
HETATM    5  S1  UNL     1      74.546  -9.181  48.761  1.00  0.00    -0.018 SA
HETATM    6  S2  UNL     1      74.644  -6.232  48.122  1.00  0.00    -0.050 SA
HETATM    7  C2  UNL     1      73.208  -9.877  49.824  1.00  0.00     0.337 C 
HETATM    8  C13 UNL     1      73.054  -8.705  50.737  1.00  0.00     0.322 C 
HETATM    9  O7  UNL     1      72.871  -8.898  51.965  1.00  0.00    -0.264 OA
BRANCH   7  10
HETATM   10  O1  UNL     1      72.130 -10.077  49.015  1.00  0.00    -0.342 OA
HETATM   11  C1  UNL     1      72.464 -10.283  47.679  1.00  0.00     0.207 C 
ENDBRANCH   7  10
BRANCH   7  12
HETATM   12  O2  UNL     1      73.724 -10.984  50.481  1.00  0.00    -0.158 OA
BRANCH  12  13
HETATM   13  N1  UNL     1      72.912 -12.070  50.688  1.00  0.00     0.009 N 
HETATM   14  O3  UNL     1      72.131 -12.179  51.648  1.00  0.00    -0.511 OA
HETATM   15  O4  UNL     1      72.955 -13.106  49.783  1.00  0.00    -0.511 OA
ENDBRANCH  12  13
ENDBRANCH   7  12
ENDBRANCH   1   3
BRANCH   1  16
HETATM   16  S3  UNL     1      70.841  -6.237  49.633  1.00  0.00     0.277 S 
HETATM   17  O5  UNL     1      70.348  -4.804  49.470  1.00  0.00    -0.199 OA
HETATM   18  O6  UNL     1      70.783  -6.895  48.252  1.00  0.00    -0.199 OA
BRANCH  16  19
HETATM   19  C4  UNL     1      69.606  -7.055  50.600  1.00  0.00     0.092 A 
HETATM   20  C5  UNL     1      68.713  -7.955  50.070  1.00  0.00    -0.038 A 
HETATM   21  C6  UNL     1      68.738  -8.303  48.626  1.00  0.00     0.050 C 
HETATM   22  C7  UNL     1      67.772  -8.539  50.922  1.00  0.00     0.015 A 
HETATM   23  C8  UNL     1      67.707  -8.251  52.254  1.00  0.00    -0.061 A 
HETATM   24  C9  UNL     1      66.673  -8.904  53.129  1.00  0.00     0.048 C 
HETATM   25  C10 UNL     1      68.610  -7.348  52.766  1.00  0.00     0.015 A 
HETATM   26  C11 UNL     1      69.557  -6.749  51.956  1.00  0.00    -0.038 A 
HETATM   27  C12 UNL     1      70.502  -5.804  52.592  1.00  0.00     0.050 C 
ENDBRANCH  16  19
ENDBRANCH   1  16
TORSDOF 6
ENDMDL
MODEL 4
REMARK VINA RESULT: -7.392101810      0.230      1.686
REMARK  6 active torsions:
REMARK  status: ('A' for Active; 'I' for Inactive)
REMARK    1  A    between atoms: O1_2  and  C2_3 
REMARK    2  A    between atoms: C2_3  and  O2_4 
REMARK    3  A    between atoms: O2_4  and  N1_5 
REMARK    4  A    between atoms: N2_11  and  N3_12 
REMARK    5  A    between atoms: N3_12  and  S3_14 
REMARK    6  A    between atoms: S3_14  and  C4_17 
ROOT
HETATM    1  N3  UNL     1      71.995  -7.706  49.074  1.00  0.00    -0.212 N 
ATOM      2  H3  UNL     1      72.782  -7.077  48.913  1.00  0.00     0.201 HD
ENDROOT
BRANCH   1   3
HETATM    3  N2  UNL     1      72.193  -9.040  49.467  1.00  0.00    -0.191 N 
HETATM    4  C3  UNL     1      72.290  -9.465  50.814  1.00  0.00     0.169 C 
HETATM    5  S1  UNL     1      72.887 -11.149  50.754  1.00  0.00    -0.018 SA
HETATM    6  S2  UNL     1      71.958  -8.649  52.168  1.00  0.00    -0.050 SA
HETATM    7  C2  UNL     1      73.341 -11.114  48.966  1.00  0.00     0.337 C 
HETATM    8  C13 UNL     1      72.338 -10.097  48.529  1.00  0.00     0.322 C 
HETATM    9  O7  UNL     1      71.743 -10.246  47.433  1.00  0.00    -0.264 OA
BRANCH   7  10
HETATM   10  O1  UNL     1      74.627 -10.668  48.898  1.00  0.00    -0.342 OA
HETATM   11  C1  UNL     1      75.392 -10.997  50.013  1.00  0.00     0.207 C 
ENDBRANCH   7  10
BRANCH   7  12
HETATM   12  O2  UNL     1      73.074 -12.368  48.438  1.00  0.00    -0.158 OA
BRANCH  12  13
HETATM   13  N1  UNL     1      73.926 -12.886  47.496  1.00  0.00     0.009 N 
HETATM   14  O3  UNL     1      73.966 -12.507  46.314  1.00  0.00    -0.511 OA
HETATM   15  O4  UNL     1      74.794 -13.885  47.875  1.00  0.00    -0.511 OA
ENDBRANCH  12  13
ENDBRANCH   7  12
ENDBRANCH   1   3
BRANCH   1  16
HETATM   16  S3  UNL     1      70.406  -7.191  48.880  1.00  0.00     0.277 S 
HETATM   17  O5  UNL     1      70.187  -6.312  47.654  1.00  0.00    -0.199 OA
HETATM   18  O6  UNL     1      69.386  -8.330  48.808  1.00  0.00    -0.199 OA
BRANCH  16  19
HETATM   19  C4  UNL     1      69.916  -6.204  50.264  1.00  0.00     0.092 A 
HETATM   20  C5  UNL     1      70.461  -4.973  50.539  1.00  0.00    -0.038 A 
HETATM   21  C6  UNL     1      71.512  -4.386  49.667  1.00  0.00     0.050 C 
HETATM   22  C7  UNL     1      70.006  -4.279  51.663  1.00  0.00     0.015 A 
HETATM   23  C8  UNL     1      69.046  -4.775  52.494  1.00  0.00    -0.061 A 
HETATM   24  C9  UNL     1      68.593  -3.992  53.695  1.00  0.00     0.048 C 
HETATM   25  C10 UNL     1      68.512  -6.010  52.203  1.00  0.00     0.015 A 
HETATM   26  C11 UNL     1      68.934  -6.727  51.100  1.00  0.00    -0.038 A 
HETATM   27  C12 UNL     1      68.293  -8.037  50.849  1.00  0.00     0.050 C 
ENDBRANCH  16  19
ENDBRANCH   1  16
TORSDOF 6
ENDMDL
MODEL 5
REMARK VINA RESULT: -7.369592572      4.282      6.007
REMARK  6 active torsions:
REMARK  status: ('A' for Active; 'I' for Inactive)
REMARK    1  A    between atoms: O1_2  and  C2_3 
REMARK    2  A    between atoms: C2_3  and  O2_4 
REMARK    3  A    between atoms: O2_4  and  N1_5 
REMARK    4  A    between atoms: N2_11  and  N3_12 
REMARK    5  A    between atoms: N3_12  and  S3_14 
REMARK    6  A    between atoms: S3_14  and  C4_17 
ROOT
HETATM    1  N3  UNL     1      70.884  -6.514  48.255  1.00  0.00    -0.212 N 
ATOM      2  H3  UNL     1      70.308  -7.313  47.989  1.00  0.00     0.201 HD
ENDROOT
BRANCH   1   3
HETATM    3  N2  UNL     1      71.730  -5.881  47.331  1.00  0.00    -0.191 N 
HETATM    4  C3  UNL     1      73.113  -6.153  47.203  1.00  0.00     0.169 C 
HETATM    5  S1  UNL     1      73.776  -4.857  46.167  1.00  0.00    -0.018 SA
HETATM    6  S2  UNL     1      73.978  -7.359  47.843  1.00  0.00    -0.050 SA
HETATM    7  C2  UNL     1      72.273  -3.788  46.237  1.00  0.00     0.337 C 
HETATM    8  C13 UNL     1      71.268  -4.874  46.441  1.00  0.00     0.322 C 
HETATM    9  O7  UNL     1      70.163  -4.814  45.847  1.00  0.00    -0.264 OA
BRANCH   7  10
HETATM   10  O1  UNL     1      72.420  -2.978  47.323  1.00  0.00    -0.342 OA
HETATM   11  C1  UNL     1      71.499  -1.935  47.372  1.00  0.00     0.207 C 
ENDBRANCH   7  10
BRANCH   7  12
HETATM   12  O2  UNL     1      72.133  -3.175  45.001  1.00  0.00    -0.158 OA
BRANCH  12  13
HETATM   13  N1  UNL     1      72.720  -3.753  43.904  1.00  0.00     0.009 N 
HETATM   14  O3  UNL     1      73.791  -3.367  43.407  1.00  0.00    -0.511 OA
HETATM   15  O4  UNL     1      72.093  -4.826  43.312  1.00  0.00    -0.511 OA
ENDBRANCH  12  13
ENDBRANCH   7  12
ENDBRANCH   1   3
BRANCH   1  16
HETATM   16  S3  UNL     1      70.859  -5.899  49.820  1.00  0.00     0.277 S 
HETATM   17  O5  UNL     1      72.160  -6.108  50.587  1.00  0.00    -0.199 OA
HETATM   18  O6  UNL     1      70.522  -4.408  49.898  1.00  0.00    -0.199 OA
BRANCH  16  19
HETATM   19  C4  UNL     1      69.612  -6.716  50.773  1.00  0.00     0.092 A 
HETATM   20  C5  UNL     1      68.822  -7.721  50.270  1.00  0.00    -0.038 A 
HETATM   21  C6  UNL     1      68.976  -8.192  48.869  1.00  0.00     0.050 C 
HETATM   22  C7  UNL     1      67.861  -8.295  51.107  1.00  0.00     0.015 A 
HETATM   23  C8  UNL     1      67.679  -7.896  52.399  1.00  0.00    -0.061 A 
HETATM   24  C9  UNL     1      66.629  -8.542  53.259  1.00  0.00     0.048 C 
HETATM   25  C10 UNL     1      68.481  -6.889  52.884  1.00  0.00     0.015 A 
HETATM   26  C11 UNL     1      69.443  -6.296  52.089  1.00  0.00    -0.038 A 
HETATM   27  C12 UNL     1      70.275  -5.234  52.697  1.00  0.00     0.050 C 
ENDBRANCH  16  19
ENDBRANCH   1  16
TORSDOF 6
ENDMDL
