MODEL 1
REMARK VINA RESULT: -7.462482133      0.000      0.000
REMARK  7 active torsions:
REMARK  status: ('A' for Active; 'I' for Inactive)
REMARK    1  A    between atoms: O1_1  and  C1_3 
REMARK    2  A    between atoms: C3_5  and  C4_6 
REMARK    3  A    between atoms: N1_7  and  N2_9 
REMARK    4  A    between atoms: N2_9  and  C5_11 
REMARK    5  A    between atoms: C5_11  and  N3_13 
REMARK    6  A    between atoms: N3_13  and  C6_15 
REMARK    7  A    between atoms: C12_22  and  C13_23 
ROOT
HETATM    1  C1  UNL     1      46.896  40.952  59.750  1.00  0.00     0.087 A 
HETATM    2  C2  UNL     1      46.872  39.891  58.929  1.00  0.00     0.058 A 
HETATM    3  C3  UNL     1      46.345  40.078  57.677  1.00  0.00     0.025 A 
HETATM    4  S2  UNL     1      45.903  41.719  57.687  1.00  0.00    -0.082 SA
HETATM    5  C12 UNL     1      46.393  42.132  59.270  1.00  0.00     0.083 A 
ENDROOT
BRANCH   3   6
HETATM    6  C4  UNL     1      46.209  39.072  56.601  1.00  0.00     0.126 C 
HETATM    7  N1  UNL     1      45.373  38.119  56.705  1.00  0.00    -0.308 N 
ATOM      8  H1  UNL     1      44.802  38.068  57.548  1.00  0.00     0.186 HD
BRANCH   7   9
HETATM    9  N2  UNL     1      45.197  37.145  55.732  1.00  0.00    -0.277 N 
ATOM     10  H2  UNL     1      45.666  36.246  55.842  1.00  0.00     0.189 HD
BRANCH   9  11
HETATM   11  C5  UNL     1      44.372  37.369  54.572  1.00  0.00     0.186 C 
HETATM   12  S1  UNL     1      45.113  37.156  53.120  1.00  0.00    -0.040 SA
BRANCH  11  13
HETATM   13  N3  UNL     1      43.025  37.752  54.709  1.00  0.00    -0.361 N 
ATOM     14  H3  UNL     1      42.750  38.611  54.232  1.00  0.00     0.162 HD
BRANCH  13  15
HETATM   15  C6  UNL     1      41.991  37.076  55.441  1.00  0.00     0.083 C 
HETATM   16  C7  UNL     1      42.012  35.617  55.123  1.00  0.00     0.025 C 
HETATM   17  C8  UNL     1      40.767  34.876  55.574  1.00  0.00     0.002 C 
HETATM   18  C9  UNL     1      39.591  35.518  54.869  1.00  0.00     0.000 C 
HETATM   19  C10 UNL     1      39.471  36.907  55.490  1.00  0.00     0.002 C 
HETATM   20  C11 UNL     1      40.665  37.755  55.204  1.00  0.00     0.025 C 
ENDBRANCH  13  15
ENDBRANCH  11  13
ENDBRANCH   9  11
ENDBRANCH   7   9
ENDBRANCH   3   6
BRANCH   1  21
HETATM   21  O1  UNL     1      47.419  40.882  61.073  1.00  0.00    -0.359 OA
ATOM     22  H1  UNL     1      47.170  40.199  61.683  1.00  0.00     0.217 HD
ENDBRANCH   1  21
BRANCH   5  23
HETATM   23  C13 UNL     1      46.296  43.444  59.952  1.00  0.00     0.126 A 
HETATM   24  N4  UNL     1      47.233  43.879  60.811  1.00  0.00    -0.331 N 
HETATM   25  C14 UNL     1      46.868  45.091  61.263  1.00  0.00     0.120 A 
ATOM     26  H4  UNL     1      48.080  43.373  61.075  1.00  0.00     0.168 HD
HETATM   27 CL1  UNL     1      47.732  46.117  62.408  1.00  0.00    -0.063 Cl
HETATM   28  C15 UNL     1      45.673  45.377  60.647  1.00  0.00     0.132 A 
HETATM   29  N5  UNL     1      45.333  44.329  59.831  1.00  0.00    -0.348 N 
ATOM     30  H5  UNL     1      44.500  44.253  59.247  1.00  0.00     0.167 HD
ENDBRANCH   5  23
TORSDOF 7
ENDMDL
MODEL 2
REMARK VINA RESULT: -7.301916266      0.759      1.063
REMARK  7 active torsions:
REMARK  status: ('A' for Active; 'I' for Inactive)
REMARK    1  A    between atoms: O1_1  and  C1_3 
REMARK    2  A    between atoms: C3_5  and  C4_6 
REMARK    3  A    between atoms: N1_7  and  N2_9 
REMARK    4  A    between atoms: N2_9  and  C5_11 
REMARK    5  A    between atoms: C5_11  and  N3_13 
REMARK    6  A    between atoms: N3_13  and  C6_15 
REMARK    7  A    between atoms: C12_22  and  C13_23 
ROOT
HETATM    1  C1  UNL     1      46.933  40.898  59.738  1.00  0.00     0.087 A 
HETATM    2  C2  UNL     1      46.896  39.851  58.900  1.00  0.00     0.058 A 
HETATM    3  C3  UNL     1      46.360  40.062  57.656  1.00  0.00     0.025 A 
HETATM    4  S2  UNL     1      45.926  41.705  57.697  1.00  0.00    -0.082 SA
HETATM    5  C12 UNL     1      46.433  42.088  59.282  1.00  0.00     0.083 A 
ENDROOT
BRANCH   3   6
HETATM    6  C4  UNL     1      46.210  39.074  56.564  1.00  0.00     0.126 C 
HETATM    7  N1  UNL     1      45.396  38.102  56.676  1.00  0.00    -0.308 N 
ATOM      8  H1  UNL     1      44.854  38.023  57.536  1.00  0.00     0.186 HD
BRANCH   7   9
HETATM    9  N2  UNL     1      45.209  37.144  55.690  1.00  0.00    -0.277 N 
ATOM     10  H2  UNL     1      45.677  36.242  55.780  1.00  0.00     0.189 HD
BRANCH   9  11
HETATM   11  C5  UNL     1      44.372  37.387  54.542  1.00  0.00     0.186 C 
HETATM   12  S1  UNL     1      45.105  37.224  53.079  1.00  0.00    -0.040 SA
BRANCH  11  13
HETATM   13  N3  UNL     1      43.021  37.748  54.699  1.00  0.00    -0.361 N 
ATOM     14  H3  UNL     1      42.726  38.606  54.231  1.00  0.00     0.162 HD
BRANCH  13  15
HETATM   15  C6  UNL     1      42.007  37.051  55.440  1.00  0.00     0.083 C 
HETATM   16  C7  UNL     1      42.030  35.599  55.092  1.00  0.00     0.025 C 
HETATM   17  C8  UNL     1      40.800  34.841  55.555  1.00  0.00     0.002 C 
HETATM   18  C9  UNL     1      39.605  35.489  54.889  1.00  0.00     0.000 C 
HETATM   19  C10 UNL     1      39.490  36.865  55.539  1.00  0.00     0.002 C 
HETATM   20  C11 UNL     1      40.672  37.726  55.245  1.00  0.00     0.025 C 
ENDBRANCH  13  15
ENDBRANCH  11  13
ENDBRANCH   9  11
ENDBRANCH   7   9
ENDBRANCH   3   6
BRANCH   1  21
HETATM   21  O1  UNL     1      47.467  40.804  61.056  1.00  0.00    -0.359 OA
ATOM     22  H1  UNL     1      47.690  41.570  61.571  1.00  0.00     0.217 HD
ENDBRANCH   1  21
BRANCH   5  23
HETATM   23  C13 UNL     1      46.348  43.389  59.987  1.00  0.00     0.126 A 
HETATM   24  N4  UNL     1      45.312  44.229  59.824  1.00  0.00    -0.331 N 
HETATM   25  C14 UNL     1      45.519  45.316  60.587  1.00  0.00     0.120 A 
ATOM     26  H4  UNL     1      44.504  44.068  59.221  1.00  0.00     0.168 HD
HETATM   27 CL1  UNL     1      44.476  46.727  60.754  1.00  0.00    -0.063 Cl
HETATM   28  C15 UNL     1      46.721  45.106  61.220  1.00  0.00     0.132 A 
HETATM   29  N5  UNL     1      47.223  43.892  60.828  1.00  0.00    -0.348 N 
ATOM     30  H5  UNL     1      48.100  43.465  61.129  1.00  0.00     0.167 HD
ENDBRANCH   5  23
TORSDOF 7
ENDMDL
MODEL 3
REMARK VINA RESULT: -7.267268917      1.448      1.659
REMARK  7 active torsions:
REMARK  status: ('A' for Active; 'I' for Inactive)
REMARK    1  A    between atoms: O1_1  and  C1_3 
REMARK    2  A    between atoms: C3_5  and  C4_6 
REMARK    3  A    between atoms: N1_7  and  N2_9 
REMARK    4  A    between atoms: N2_9  and  C5_11 
REMARK    5  A    between atoms: C5_11  and  N3_13 
REMARK    6  A    between atoms: N3_13  and  C6_15 
REMARK    7  A    between atoms: C12_22  and  C13_23 
ROOT
HETATM    1  C1  UNL     1      45.707  42.530  57.376  1.00  0.00     0.087 A 
HETATM    2  C2  UNL     1      45.674  41.367  56.706  1.00  0.00     0.058 A 
HETATM    3  C3  UNL     1      46.044  40.238  57.390  1.00  0.00     0.025 A 
HETATM    4  S2  UNL     1      46.426  40.833  58.937  1.00  0.00    -0.082 SA
HETATM    5  C12 UNL     1      46.108  42.491  58.684  1.00  0.00     0.083 A 
ENDROOT
BRANCH   3   6
HETATM    6  C4  UNL     1      46.090  38.851  56.876  1.00  0.00     0.126 C 
HETATM    7  N1  UNL     1      45.037  38.284  56.444  1.00  0.00    -0.308 N 
ATOM      8  H1  UNL     1      44.163  38.810  56.462  1.00  0.00     0.186 HD
BRANCH   7   9
HETATM    9  N2  UNL     1      45.013  36.988  55.950  1.00  0.00    -0.277 N 
ATOM     10  H2  UNL     1      45.456  36.244  56.489  1.00  0.00     0.189 HD
BRANCH   9  11
HETATM   11  C5  UNL     1      44.382  36.663  54.696  1.00  0.00     0.186 C 
HETATM   12  S1  UNL     1      45.176  37.169  53.347  1.00  0.00    -0.040 SA
BRANCH  11  13
HETATM   13  N3  UNL     1      43.161  35.964  54.663  1.00  0.00    -0.361 N 
ATOM     14  H3  UNL     1      43.128  35.143  54.058  1.00  0.00     0.162 HD
BRANCH  13  15
HETATM   15  C6  UNL     1      41.956  36.270  55.382  1.00  0.00     0.083 C 
HETATM   16  C7  UNL     1      40.941  35.199  55.153  1.00  0.00     0.025 C 
HETATM   17  C8  UNL     1      39.538  35.586  55.585  1.00  0.00     0.002 C 
HETATM   18  C9  UNL     1      39.152  36.812  54.784  1.00  0.00     0.000 C 
HETATM   19  C10 UNL     1      40.050  37.926  55.313  1.00  0.00     0.002 C 
HETATM   20  C11 UNL     1      41.492  37.664  55.038  1.00  0.00     0.025 C 
ENDBRANCH  13  15
ENDBRANCH  11  13
ENDBRANCH   9  11
ENDBRANCH   7   9
ENDBRANCH   3   6
BRANCH   1  21
HETATM   21  O1  UNL     1      45.345  43.769  56.773  1.00  0.00    -0.359 OA
ATOM     22  H1  UNL     1      45.161  44.548  57.283  1.00  0.00     0.217 HD
ENDBRANCH   1  21
BRANCH   5  23
HETATM   23  C13 UNL     1      46.236  43.611  59.647  1.00  0.00     0.126 A 
HETATM   24  N4  UNL     1      47.363  43.832  60.345  1.00  0.00    -0.331 N 
HETATM   25  C14 UNL     1      47.175  44.909  61.128  1.00  0.00     0.120 A 
ATOM     26  H4  UNL     1      48.217  43.276  60.291  1.00  0.00     0.168 HD
HETATM   27 CL1  UNL     1      48.326  45.639  62.247  1.00  0.00    -0.063 Cl
HETATM   28  C15 UNL     1      45.891  45.334  60.880  1.00  0.00     0.132 A 
HETATM   29  N5  UNL     1      45.322  44.505  59.949  1.00  0.00    -0.348 N 
ATOM     30  H5  UNL     1      44.378  44.569  59.567  1.00  0.00     0.167 HD
ENDBRANCH   5  23
TORSDOF 7
ENDMDL
MODEL 4
REMARK VINA RESULT: -7.246211061      1.703      2.115
REMARK  7 active torsions:
REMARK  status: ('A' for Active; 'I' for Inactive)
REMARK    1  A    between atoms: O1_1  and  C1_3 
REMARK    2  A    between atoms: C3_5  and  C4_6 
REMARK    3  A    between atoms: N1_7  and  N2_9 
REMARK    4  A    between atoms: N2_9  and  C5_11 
REMARK    5  A    between atoms: C5_11  and  N3_13 
REMARK    6  A    between atoms: N3_13  and  C6_15 
REMARK    7  A    between atoms: C12_22  and  C13_23 
ROOT
HETATM    1  C1  UNL     1      46.407  42.818  57.941  1.00  0.00     0.087 A 
HETATM    2  C2  UNL     1      46.124  41.608  57.436  1.00  0.00     0.058 A 
HETATM    3  C3  UNL     1      46.362  40.522  58.237  1.00  0.00     0.025 A 
HETATM    4  S2  UNL     1      46.971  41.221  59.662  1.00  0.00    -0.082 SA
HETATM    5  C12 UNL     1      46.909  42.867  59.214  1.00  0.00     0.083 A 
ENDROOT
BRANCH   3   6
HETATM    6  C4  UNL     1      46.135  39.097  57.910  1.00  0.00     0.126 C 
HETATM    7  N1  UNL     1      45.491  38.765  56.863  1.00  0.00    -0.308 N 
ATOM      8  H1  UNL     1      45.138  39.508  56.259  1.00  0.00     0.186 HD
BRANCH   7   9
HETATM    9  N2  UNL     1      45.245  37.449  56.501  1.00  0.00    -0.277 N 
ATOM     10  H2  UNL     1      45.546  36.700  57.123  1.00  0.00     0.189 HD
BRANCH   9  11
HETATM   11  C5  UNL     1      44.576  37.112  55.270  1.00  0.00     0.186 C 
HETATM   12  S1  UNL     1      45.062  37.953  53.942  1.00  0.00    -0.040 SA
BRANCH  11  13
HETATM   13  N3  UNL     1      43.571  36.127  55.241  1.00  0.00    -0.361 N 
ATOM     14  H3  UNL     1      43.854  35.186  55.517  1.00  0.00     0.162 HD
BRANCH  13  15
HETATM   15  C6  UNL     1      42.193  36.291  54.872  1.00  0.00     0.083 C 
HETATM   16  C7  UNL     1      41.610  37.464  55.588  1.00  0.00     0.025 C 
HETATM   17  C8  UNL     1      40.094  37.522  55.531  1.00  0.00     0.002 C 
HETATM   18  C9  UNL     1      39.579  36.249  56.167  1.00  0.00     0.000 C 
HETATM   19  C10 UNL     1      39.969  35.138  55.196  1.00  0.00     0.002 C 
HETATM   20  C11 UNL     1      41.449  34.994  55.073  1.00  0.00     0.025 C 
ENDBRANCH  13  15
ENDBRANCH  11  13
ENDBRANCH   9  11
ENDBRANCH   7   9
ENDBRANCH   3   6
BRANCH   1  21
HETATM   21  O1  UNL     1      46.201  44.021  57.205  1.00  0.00    -0.359 OA
ATOM     22  H1  UNL     1      46.906  44.466  56.751  1.00  0.00     0.217 HD
ENDBRANCH   1  21
BRANCH   5  23
HETATM   23  C13 UNL     1      47.304  44.054  60.009  1.00  0.00     0.126 A 
HETATM   24  N4  UNL     1      47.760  45.182  59.438  1.00  0.00    -0.331 N 
HETATM   25  C14 UNL     1      48.034  46.071  60.409  1.00  0.00     0.120 A 
ATOM     26  H4  UNL     1      47.880  45.337  58.437  1.00  0.00     0.168 HD
HETATM   27 CL1  UNL     1      48.657  47.710  60.222  1.00  0.00    -0.063 Cl
HETATM   28  C15 UNL     1      47.727  45.441  61.592  1.00  0.00     0.132 A 
HETATM   29  N5  UNL     1      47.272  44.177  61.317  1.00  0.00    -0.348 N 
ATOM     30  H5  UNL     1      46.970  43.474  61.992  1.00  0.00     0.167 HD
ENDBRANCH   5  23
TORSDOF 7
ENDMDL
MODEL 5
REMARK VINA RESULT: -7.242701173      3.929     10.332
REMARK  7 active torsions:
REMARK  status: ('A' for Active; 'I' for Inactive)
REMARK    1  A    between atoms: O1_1  and  C1_3 
REMARK    2  A    between atoms: C3_5  and  C4_6 
REMARK    3  A    between atoms: N1_7  and  N2_9 
REMARK    4  A    between atoms: N2_9  and  C5_11 
REMARK    5  A    between atoms: C5_11  and  N3_13 
REMARK    6  A    between atoms: N3_13  and  C6_15 
REMARK    7  A    between atoms: C12_22  and  C13_23 
ROOT
HETATM    1  C1  UNL     1      46.146  39.185  57.712  1.00  0.00     0.087 A 
HETATM    2  C2  UNL     1      46.408  40.353  58.317  1.00  0.00     0.058 A 
HETATM    3  C3  UNL     1      46.136  41.499  57.614  1.00  0.00     0.025 A 
HETATM    4  S2  UNL     1      45.528  40.911  56.140  1.00  0.00    -0.082 SA
HETATM    5  C12 UNL     1      45.630  39.234  56.445  1.00  0.00     0.083 A 
ENDROOT
BRANCH   3   6
HETATM    6  C4  UNL     1      46.337  42.895  58.061  1.00  0.00     0.126 C 
HETATM    7  N1  UNL     1      46.809  43.146  59.216  1.00  0.00    -0.308 N 
ATOM      8  H1  UNL     1      47.044  42.360  59.822  1.00  0.00     0.186 HD
BRANCH   7   9
HETATM    9  N2  UNL     1      47.021  44.431  59.693  1.00  0.00    -0.277 N 
ATOM     10  H2  UNL     1      47.774  44.991  59.292  1.00  0.00     0.189 HD
BRANCH   9  11
HETATM   11  C5  UNL     1      46.208  44.998  60.739  1.00  0.00     0.186 C 
HETATM   12  S1  UNL     1      44.659  45.358  60.321  1.00  0.00    -0.040 SA
BRANCH  11  13
HETATM   13  N3  UNL     1      46.739  45.223  62.023  1.00  0.00    -0.361 N 
ATOM     14  H3  UNL     1      46.448  44.570  62.752  1.00  0.00     0.162 HD
BRANCH  13  15
HETATM   15  C6  UNL     1      47.642  46.263  62.428  1.00  0.00     0.083 C 
HETATM   16  C7  UNL     1      47.170  47.580  61.905  1.00  0.00     0.025 C 
HETATM   17  C8  UNL     1      48.214  48.678  61.987  1.00  0.00     0.002 C 
HETATM   18  C9  UNL     1      49.403  48.220  61.170  1.00  0.00     0.000 C 
HETATM   19  C10 UNL     1      49.995  47.053  61.955  1.00  0.00     0.002 C 
HETATM   20  C11 UNL     1      49.054  45.899  62.040  1.00  0.00     0.025 C 
ENDBRANCH  13  15
ENDBRANCH  11  13
ENDBRANCH   9  11
ENDBRANCH   7   9
ENDBRANCH   3   6
BRANCH   1  21
HETATM   21  O1  UNL     1      46.385  37.929  58.340  1.00  0.00    -0.359 OA
ATOM     22  H1  UNL     1      45.716  37.258  58.408  1.00  0.00     0.217 HD
ENDBRANCH   1  21
BRANCH   5  23
HETATM   23  C13 UNL     1      45.252  38.111  55.554  1.00  0.00     0.126 A 
HETATM   24  N4  UNL     1      44.758  36.954  56.026  1.00  0.00    -0.331 N 
HETATM   25  C14 UNL     1      44.514  36.138  54.985  1.00  0.00     0.120 A 
ATOM     26  H4  UNL     1      44.595  36.732  57.009  1.00  0.00     0.168 HD
HETATM   27 CL1  UNL     1      43.860  34.501  55.033  1.00  0.00    -0.063 Cl
HETATM   28  C15 UNL     1      44.879  36.843  53.863  1.00  0.00     0.132 A 
HETATM   29  N5  UNL     1      45.340  38.076  54.244  1.00  0.00    -0.348 N 
ATOM     30  H5  UNL     1      45.682  38.818  53.632  1.00  0.00     0.167 HD
ENDBRANCH   5  23
TORSDOF 7
ENDMDL
