MODEL 1
REMARK VINA RESULT: -8.487281836      0.000      0.000
REMARK  4 active torsions:
REMARK  status: ('A' for Active; 'I' for Inactive)
REMARK    1  A    between atoms: C2_2  and  S1_4 
REMARK    2  A    between atoms: S1_4  and  C4_5 
REMARK    3  A    between atoms: C6_7  and  C7_8 
REMARK    4  A    between atoms: N4_24  and  C15_25 
ROOT
HETATM    1  C4  UNL     1      44.577  37.390  53.702  1.00  0.00     0.073 A 
HETATM    2  C5  UNL     1      45.500  38.121  54.420  1.00  0.00     0.051 A 
HETATM    3  C6  UNL     1      44.969  38.407  55.645  1.00  0.00    -0.005 A 
HETATM    4  C14 UNL     1      43.716  37.854  55.683  1.00  0.00     0.104 A 
HETATM    5  N4  UNL     1      43.508  37.252  54.506  1.00  0.00    -0.344 N 
ENDROOT
BRANCH   3   6
HETATM    6  C7  UNL     1      45.591  39.160  56.741  1.00  0.00     0.015 A 
HETATM    7  C8  UNL     1      46.199  38.458  57.754  1.00  0.00     0.018 A 
HETATM    8  C9  UNL     1      46.814  39.063  58.827  1.00  0.00     0.033 A 
HETATM    9  C10 UNL     1      46.793  40.457  58.842  1.00  0.00     0.065 A 
HETATM   10  N1  UNL     1      47.291  41.341  59.721  1.00  0.00    -0.298 N 
HETATM   11  C12 UNL     1      46.195  41.177  57.846  1.00  0.00     0.076 A 
HETATM   12  N2  UNL     1      47.021  42.557  59.305  1.00  0.00    -0.285 N 
ATOM     13  H1  UNL     1      47.798  41.106  60.575  1.00  0.00     0.187 HD
HETATM   14  C11 UNL     1      46.335  42.521  58.133  1.00  0.00     0.129 A 
ATOM     15  H2  UNL     1      47.289  43.411  59.795  1.00  0.00     0.188 HD
HETATM   16  N3  UNL     1      45.937  43.560  57.491  1.00  0.00    -0.384 N 
ATOM     17  H32 UNL     1      46.040  44.552  57.703  1.00  0.00     0.157 HD
ATOM     18  H31 UNL     1      45.422  43.533  56.612  1.00  0.00     0.157 HD
HETATM   19  C13 UNL     1      45.587  40.537  56.786  1.00  0.00     0.143 A 
HETATM   20  F1  UNL     1      44.991  41.243  55.796  1.00  0.00    -0.204 F 
ENDBRANCH   3   6
BRANCH   1  21
HETATM   21  S1  UNL     1      44.663  36.717  52.066  1.00  0.00    -0.108 SA
BRANCH  21  22
HETATM   22  C2  UNL     1      45.567  35.182  51.979  1.00  0.00     0.045 C 
HETATM   23  C1  UNL     1      45.721  34.553  53.346  1.00  0.00     0.021 C 
HETATM   24  C3  UNL     1      46.863  35.310  51.238  1.00  0.00     0.021 C 
ENDBRANCH  21  22
ENDBRANCH   1  21
BRANCH   5  25
HETATM   25  C15 UNL     1      42.269  36.533  54.154  1.00  0.00     0.107 C 
HETATM   26  C16 UNL     1      41.095  37.404  54.375  1.00  0.00     0.029 C 
HETATM   27  C17 UNL     1      40.144  36.971  55.434  1.00  0.00     0.021 C 
HETATM   28  C18 UNL     1      39.899  35.473  55.204  1.00  0.00     0.114 C 
HETATM   29  N5  UNL     1      41.126  34.834  55.551  1.00  0.00    -0.419 N 
HETATM   30  C19 UNL     1      42.267  35.206  54.796  1.00  0.00     0.139 C 
ATOM     31  H5  UNL     1      41.181  34.147  56.303  1.00  0.00     0.153 HD
ENDBRANCH   5  25
TORSDOF 4
ENDMDL
MODEL 2
REMARK VINA RESULT: -8.433767976      5.042      9.951
REMARK  4 active torsions:
REMARK  status: ('A' for Active; 'I' for Inactive)
REMARK    1  A    between atoms: C2_2  and  S1_4 
REMARK    2  A    between atoms: S1_4  and  C4_5 
REMARK    3  A    between atoms: C6_7  and  C7_8 
REMARK    4  A    between atoms: N4_24  and  C15_25 
ROOT
HETATM    1  C4  UNL     1      47.429  45.762  59.886  1.00  0.00     0.073 A 
HETATM    2  C5  UNL     1      47.755  44.550  59.316  1.00  0.00     0.051 A 
HETATM    3  C6  UNL     1      46.788  43.642  59.642  1.00  0.00    -0.005 A 
HETATM    4  C14 UNL     1      45.865  44.294  60.415  1.00  0.00     0.104 A 
HETATM    5  N4  UNL     1      46.273  45.562  60.546  1.00  0.00    -0.344 N 
ENDROOT
BRANCH   3   6
HETATM    6  C7  UNL     1      46.715  42.228  59.255  1.00  0.00     0.015 A 
HETATM    7  C8  UNL     1      47.078  41.277  60.179  1.00  0.00     0.018 A 
HETATM    8  C9  UNL     1      47.044  39.925  59.923  1.00  0.00     0.033 A 
HETATM    9  C10 UNL     1      46.614  39.551  58.650  1.00  0.00     0.065 A 
HETATM   10  N1  UNL     1      46.464  38.343  58.086  1.00  0.00    -0.298 N 
HETATM   11  C12 UNL     1      46.248  40.478  57.714  1.00  0.00     0.076 A 
HETATM   12  N2  UNL     1      46.029  38.495  56.856  1.00  0.00    -0.285 N 
ATOM     13  H1  UNL     1      46.658  37.449  58.539  1.00  0.00     0.187 HD
HETATM   14  C11 UNL     1      45.873  39.813  56.564  1.00  0.00     0.129 A 
ATOM     15  H2  UNL     1      45.835  37.730  56.210  1.00  0.00     0.188 HD
HETATM   16  N3  UNL     1      45.459  40.263  55.434  1.00  0.00    -0.384 N 
ATOM     17  H32 UNL     1      45.181  39.772  54.584  1.00  0.00     0.157 HD
ATOM     18  H31 UNL     1      45.342  41.251  55.214  1.00  0.00     0.157 HD
HETATM   19  C13 UNL     1      46.295  41.825  58.006  1.00  0.00     0.143 A 
HETATM   20  F1  UNL     1      45.936  42.750  57.084  1.00  0.00    -0.204 F 
ENDBRANCH   3   6
BRANCH   1  21
HETATM   21  S1  UNL     1      48.266  47.322  59.833  1.00  0.00    -0.108 SA
BRANCH  21  22
HETATM   22  C2  UNL     1      49.384  47.572  61.200  1.00  0.00     0.045 C 
HETATM   23  C1  UNL     1      49.645  46.281  61.944  1.00  0.00     0.021 C 
HETATM   24  C3  UNL     1      48.965  48.698  62.096  1.00  0.00     0.021 C 
ENDBRANCH  21  22
ENDBRANCH   1  21
BRANCH   5  25
HETATM   25  C15 UNL     1      45.544  46.591  61.310  1.00  0.00     0.107 C 
HETATM   26  C16 UNL     1      46.030  46.630  62.705  1.00  0.00     0.029 C 
HETATM   27  C17 UNL     1      45.051  46.240  63.755  1.00  0.00     0.021 C 
HETATM   28  C18 UNL     1      43.748  46.982  63.424  1.00  0.00     0.114 C 
HETATM   29  N5  UNL     1      43.256  46.363  62.236  1.00  0.00    -0.419 N 
HETATM   30  C19 UNL     1      44.094  46.431  61.095  1.00  0.00     0.139 C 
ATOM     31  H5  UNL     1      42.349  45.897  62.210  1.00  0.00     0.153 HD
ENDBRANCH   5  25
TORSDOF 4
ENDMDL
MODEL 3
REMARK VINA RESULT: -8.256665088      1.409      3.600
REMARK  4 active torsions:
REMARK  status: ('A' for Active; 'I' for Inactive)
REMARK    1  A    between atoms: C2_2  and  S1_4 
REMARK    2  A    between atoms: S1_4  and  C4_5 
REMARK    3  A    between atoms: C6_7  and  C7_8 
REMARK    4  A    between atoms: N4_24  and  C15_25 
ROOT
HETATM    1  C4  UNL     1      43.088  37.672  54.292  1.00  0.00     0.073 A 
HETATM    2  C5  UNL     1      43.333  38.433  55.416  1.00  0.00     0.051 A 
HETATM    3  C6  UNL     1      44.684  38.522  55.594  1.00  0.00    -0.005 A 
HETATM    4  C14 UNL     1      45.274  37.814  54.580  1.00  0.00     0.104 A 
HETATM    5  N4  UNL     1      44.294  37.316  53.815  1.00  0.00    -0.344 N 
ENDROOT
BRANCH   3   6
HETATM    6  C7  UNL     1      45.406  39.232  56.656  1.00  0.00     0.015 A 
HETATM    7  C8  UNL     1      46.074  38.491  57.602  1.00  0.00     0.018 A 
HETATM    8  C9  UNL     1      46.785  39.055  58.637  1.00  0.00     0.033 A 
HETATM    9  C10 UNL     1      46.799  40.448  58.687  1.00  0.00     0.065 A 
HETATM   10  N1  UNL     1      47.384  41.298  59.545  1.00  0.00    -0.298 N 
HETATM   11  C12 UNL     1      46.143  41.207  57.758  1.00  0.00     0.076 A 
HETATM   12  N2  UNL     1      47.113  42.530  59.180  1.00  0.00    -0.285 N 
ATOM     13  H1  UNL     1      47.950  41.030  60.351  1.00  0.00     0.187 HD
HETATM   14  C11 UNL     1      46.338  42.539  58.064  1.00  0.00     0.129 A 
ATOM     15  H2  UNL     1      47.439  43.365  59.667  1.00  0.00     0.188 HD
HETATM   16  N3  UNL     1      45.917  43.603  57.480  1.00  0.00    -0.384 N 
ATOM     17  H32 UNL     1      46.061  44.587  57.706  1.00  0.00     0.157 HD
ATOM     18  H31 UNL     1      45.335  43.609  56.642  1.00  0.00     0.157 HD
HETATM   19  C13 UNL     1      45.440  40.607  56.733  1.00  0.00     0.143 A 
HETATM   20  F1  UNL     1      44.786  41.352  55.809  1.00  0.00    -0.204 F 
ENDBRANCH   3   6
BRANCH   1  21
HETATM   21  S1  UNL     1      41.558  37.198  53.534  1.00  0.00    -0.108 SA
BRANCH  21  22
HETATM   22  C2  UNL     1      41.098  35.508  53.867  1.00  0.00     0.045 C 
HETATM   23  C1  UNL     1      39.619  35.282  53.638  1.00  0.00     0.021 C 
HETATM   24  C3  UNL     1      41.569  35.029  55.207  1.00  0.00     0.021 C 
ENDBRANCH  21  22
ENDBRANCH   1  21
BRANCH   5  25
HETATM   25  C15 UNL     1      44.522  36.492  52.614  1.00  0.00     0.107 C 
HETATM   26  C16 UNL     1      44.641  35.067  52.988  1.00  0.00     0.029 C 
HETATM   27  C17 UNL     1      45.964  34.430  52.747  1.00  0.00     0.021 C 
HETATM   28  C18 UNL     1      46.386  34.842  51.329  1.00  0.00     0.114 C 
HETATM   29  N5  UNL     1      46.676  36.236  51.414  1.00  0.00    -0.419 N 
HETATM   30  C19 UNL     1      45.608  37.081  51.809  1.00  0.00     0.139 C 
ATOM     31  H5  UNL     1      47.603  36.606  51.201  1.00  0.00     0.153 HD
ENDBRANCH   5  25
TORSDOF 4
ENDMDL
MODEL 4
REMARK VINA RESULT: -8.206270232      1.105      1.880
REMARK  4 active torsions:
REMARK  status: ('A' for Active; 'I' for Inactive)
REMARK    1  A    between atoms: C2_2  and  S1_4 
REMARK    2  A    between atoms: S1_4  and  C4_5 
REMARK    3  A    between atoms: C6_7  and  C7_8 
REMARK    4  A    between atoms: N4_24  and  C15_25 
ROOT
HETATM    1  C4  UNL     1      44.106  37.216  53.253  1.00  0.00     0.073 A 
HETATM    2  C5  UNL     1      44.962  38.163  53.773  1.00  0.00     0.051 A 
HETATM    3  C6  UNL     1      44.422  38.647  54.931  1.00  0.00    -0.005 A 
HETATM    4  C14 UNL     1      43.231  37.998  55.124  1.00  0.00     0.104 A 
HETATM    5  N4  UNL     1      43.067  37.147  54.104  1.00  0.00    -0.344 N 
ENDROOT
BRANCH   3   6
HETATM    6  C7  UNL     1      44.981  39.666  55.826  1.00  0.00     0.015 A 
HETATM    7  C8  UNL     1      44.718  40.989  55.558  1.00  0.00     0.018 A 
HETATM    8  C9  UNL     1      45.188  42.024  56.334  1.00  0.00     0.033 A 
HETATM    9  C10 UNL     1      45.965  41.663  57.435  1.00  0.00     0.065 A 
HETATM   10  N1  UNL     1      46.565  42.407  58.376  1.00  0.00    -0.298 N 
HETATM   11  C12 UNL     1      46.241  40.356  57.722  1.00  0.00     0.076 A 
HETATM   12  N2  UNL     1      47.190  41.613  59.216  1.00  0.00    -0.285 N 
ATOM     13  H1  UNL     1      46.541  43.426  58.432  1.00  0.00     0.187 HD
HETATM   14  C11 UNL     1      47.023  40.313  58.859  1.00  0.00     0.129 A 
ATOM     15  H2  UNL     1      47.726  41.930  60.024  1.00  0.00     0.188 HD
HETATM   16  N3  UNL     1      47.520  39.315  59.496  1.00  0.00    -0.384 N 
ATOM     17  H32 UNL     1      48.097  39.284  60.337  1.00  0.00     0.157 HD
ATOM     18  H31 UNL     1      47.395  38.339  59.229  1.00  0.00     0.157 HD
HETATM   19  C13 UNL     1      45.751  39.344  56.921  1.00  0.00     0.143 A 
HETATM   20  F1  UNL     1      46.021  38.045  57.199  1.00  0.00    -0.204 F 
ENDBRANCH   3   6
BRANCH   1  21
HETATM   21  S1  UNL     1      44.236  36.228  51.788  1.00  0.00    -0.108 SA
BRANCH  21  22
HETATM   22  C2  UNL     1      45.482  34.956  51.901  1.00  0.00     0.045 C 
HETATM   23  C1  UNL     1      45.689  34.510  53.332  1.00  0.00     0.021 C 
HETATM   24  C3  UNL     1      46.757  35.326  51.206  1.00  0.00     0.021 C 
ENDBRANCH  21  22
ENDBRANCH   1  21
BRANCH   5  25
HETATM   25  C15 UNL     1      41.900  36.258  53.949  1.00  0.00     0.107 C 
HETATM   26  C16 UNL     1      40.655  37.053  53.915  1.00  0.00     0.029 C 
HETATM   27  C17 UNL     1      39.709  36.843  55.044  1.00  0.00     0.021 C 
HETATM   28  C18 UNL     1      39.590  35.322  55.227  1.00  0.00     0.114 C 
HETATM   29  N5  UNL     1      40.854  34.908  55.745  1.00  0.00    -0.419 N 
HETATM   30  C19 UNL     1      41.984  35.158  54.927  1.00  0.00     0.139 C 
ATOM     31  H5  UNL     1      40.939  34.456  56.655  1.00  0.00     0.153 HD
ENDBRANCH   5  25
TORSDOF 4
ENDMDL
MODEL 5
REMARK VINA RESULT: -8.188428164      1.166      2.033
REMARK  4 active torsions:
REMARK  status: ('A' for Active; 'I' for Inactive)
REMARK    1  A    between atoms: C2_2  and  S1_4 
REMARK    2  A    between atoms: S1_4  and  C4_5 
REMARK    3  A    between atoms: C6_7  and  C7_8 
REMARK    4  A    between atoms: N4_24  and  C15_25 
ROOT
HETATM    1  C4  UNL     1      45.125  37.732  53.415  1.00  0.00     0.073 A 
HETATM    2  C5  UNL     1      45.852  38.690  54.091  1.00  0.00     0.051 A 
HETATM    3  C6  UNL     1      45.199  38.991  55.252  1.00  0.00    -0.005 A 
HETATM    4  C14 UNL     1      44.067  38.219  55.292  1.00  0.00     0.104 A 
HETATM    5  N4  UNL     1      44.049  37.475  54.179  1.00  0.00    -0.344 N 
ENDROOT
BRANCH   3   6
HETATM    6  C7  UNL     1      45.600  39.951  56.287  1.00  0.00     0.015 A 
HETATM    7  C8  UNL     1      45.203  41.261  56.154  1.00  0.00     0.018 A 
HETATM    8  C9  UNL     1      45.520  42.241  57.067  1.00  0.00     0.033 A 
HETATM    9  C10 UNL     1      46.284  41.838  58.162  1.00  0.00     0.065 A 
HETATM   10  N1  UNL     1      46.755  42.525  59.214  1.00  0.00    -0.298 N 
HETATM   11  C12 UNL     1      46.691  40.542  58.316  1.00  0.00     0.076 A 
HETATM   12  N2  UNL     1      47.427  41.708  59.993  1.00  0.00    -0.285 N 
ATOM     13  H1  UNL     1      46.614  43.522  59.382  1.00  0.00     0.187 HD
HETATM   14  C11 UNL     1      47.422  40.449  59.483  1.00  0.00     0.129 A 
ATOM     15  H2  UNL     1      47.888  41.982  60.860  1.00  0.00     0.188 HD
HETATM   16  N3  UNL     1      47.999  39.441  60.032  1.00  0.00    -0.384 N 
ATOM     17  H32 UNL     1      48.539  39.372  60.894  1.00  0.00     0.157 HD
ATOM     18  H31 UNL     1      47.995  38.495  59.650  1.00  0.00     0.157 HD
HETATM   19  C13 UNL     1      46.353  39.586  57.380  1.00  0.00     0.143 A 
HETATM   20  F1  UNL     1      46.754  38.299  57.525  1.00  0.00    -0.204 F 
ENDBRANCH   3   6
BRANCH   1  21
HETATM   21  S1  UNL     1      45.439  36.930  51.867  1.00  0.00    -0.108 SA
BRANCH  21  22
HETATM   22  C2  UNL     1      46.497  35.500  52.013  1.00  0.00     0.045 C 
HETATM   23  C1  UNL     1      47.204  35.200  50.710  1.00  0.00     0.021 C 
HETATM   24  C3  UNL     1      45.791  34.311  52.592  1.00  0.00     0.021 C 
ENDBRANCH  21  22
ENDBRANCH   1  21
BRANCH   5  25
HETATM   25  C15 UNL     1      42.987  36.507  53.851  1.00  0.00     0.107 C 
HETATM   26  C16 UNL     1      41.712  37.212  53.603  1.00  0.00     0.029 C 
HETATM   27  C17 UNL     1      40.611  36.941  54.566  1.00  0.00     0.021 C 
HETATM   28  C18 UNL     1      40.568  35.417  54.751  1.00  0.00     0.114 C 
HETATM   29  N5  UNL     1      41.756  35.094  55.473  1.00  0.00    -0.419 N 
HETATM   30  C19 UNL     1      42.984  35.419  54.846  1.00  0.00     0.139 C 
ATOM     31  H5  UNL     1      41.722  34.652  56.392  1.00  0.00     0.153 HD
ENDBRANCH   5  25
TORSDOF 4
ENDMDL
