MODEL 1
REMARK VINA RESULT: -8.028207010      0.000      0.000
REMARK  7 active torsions:
REMARK  status: ('A' for Active; 'I' for Inactive)
REMARK    1  A    between atoms: N1_2  and  C2_5 
REMARK    2  A    between atoms: C2_5  and  C3_6 
REMARK    3  A    between atoms: C3_6  and  N2_7 
REMARK    4  A    between atoms: C4_8  and  O1_9 
REMARK    5  A    between atoms: C7_13  and  O2_14 
REMARK    6  A    between atoms: C8_16  and  C9_17 
REMARK    7  A    between atoms: C13_21  and  O3_22 
ROOT
HETATM    1  N2  UNL     1      45.830  39.628  57.240  1.00  0.00    -0.306 N 
HETATM    2  C4  UNL     1      45.635  40.797  56.607  1.00  0.00     0.151 A 
HETATM    3  C5  UNL     1      44.894  40.563  55.485  1.00  0.00     0.011 A 
HETATM    4  C6  UNL     1      44.633  39.190  55.445  1.00  0.00     0.017 A 
HETATM    5  C7  UNL     1      45.220  38.637  56.537  1.00  0.00     0.152 A 
HETATM    6  C8  UNL     1      43.831  38.769  54.264  1.00  0.00     0.021 C 
HETATM    7  C17 UNL     1      42.551  39.546  54.277  1.00  0.00     0.020 C 
HETATM    8  C18 UNL     1      42.805  41.012  54.421  1.00  0.00     0.013 C 
HETATM    9  C19 UNL     1      44.307  41.329  54.353  1.00  0.00     0.058 C 
HETATM   10  C20 UNL     1      44.758  40.764  53.023  1.00  0.00     0.180 C 
HETATM   11  F1  UNL     1      43.839  41.218  52.068  1.00  0.00    -0.249 F 
HETATM   12  C21 UNL     1      44.635  39.261  53.048  1.00  0.00     0.057 C 
ENDROOT
BRANCH   6  13
HETATM   13  C9  UNL     1      43.660  37.331  54.131  1.00  0.00    -0.043 A 
HETATM   14  C10 UNL     1      42.546  36.731  54.650  1.00  0.00     0.017 A 
HETATM   15  C11 UNL     1      42.385  35.365  54.530  1.00  0.00    -0.028 A 
HETATM   16  C12 UNL     1      41.172  34.709  55.098  1.00  0.00     0.051 C 
HETATM   17  C13 UNL     1      43.320  34.574  53.895  1.00  0.00     0.077 A 
HETATM   18  C14 UNL     1      44.445  35.176  53.371  1.00  0.00    -0.028 A 
HETATM   19  C15 UNL     1      45.460  34.324  52.699  1.00  0.00     0.051 C 
HETATM   20  C16 UNL     1      44.596  36.563  53.501  1.00  0.00     0.017 A 
BRANCH  17  21
HETATM   21  O3  UNL     1      43.105  33.203  53.802  1.00  0.00    -0.360 OA
ATOM     22  H3  UNL     1      43.350  32.745  53.007  1.00  0.00     0.217 HD
ENDBRANCH  17  21
ENDBRANCH   6  13
BRANCH   5  23
HETATM   23  O2  UNL     1      45.184  37.282  56.851  1.00  0.00    -0.345 OA
ATOM     24  H2  UNL     1      45.673  36.582  56.435  1.00  0.00     0.219 HD
ENDBRANCH   5  23
BRANCH   2  25
HETATM   25  O1  UNL     1      46.083  42.054  56.979  1.00  0.00    -0.345 OA
ATOM     26  H1  UNL     1      45.731  42.626  57.651  1.00  0.00     0.219 HD
ENDBRANCH   2  25
BRANCH   1  27
HETATM   27  C3  UNL     1      46.561  39.384  58.470  1.00  0.00     0.160 C 
BRANCH  27  28
HETATM   28  C2  UNL     1      47.897  38.729  58.198  1.00  0.00     0.252 C 
BRANCH  28  29
HETATM   29  N1  UNL     1      48.753  38.796  59.357  1.00  0.00    -0.077 N 
HETATM   30  C1  UNL     1      48.393  39.948  60.154  1.00  0.00     0.267 C 
ATOM     31  H12 UNL     1      49.742  38.794  59.107  1.00  0.00     0.276 HD
ATOM     32  H11 UNL     1      48.738  37.932  59.899  1.00  0.00     0.276 HD
ENDBRANCH  28  29
ENDBRANCH  27  28
ENDBRANCH   1  27
TORSDOF 7
ENDMDL
MODEL 2
REMARK VINA RESULT: -8.014558126      0.076      1.622
REMARK  7 active torsions:
REMARK  status: ('A' for Active; 'I' for Inactive)
REMARK    1  A    between atoms: N1_2  and  C2_5 
REMARK    2  A    between atoms: C2_5  and  C3_6 
REMARK    3  A    between atoms: C3_6  and  N2_7 
REMARK    4  A    between atoms: C4_8  and  O1_9 
REMARK    5  A    between atoms: C7_13  and  O2_14 
REMARK    6  A    between atoms: C8_16  and  C9_17 
REMARK    7  A    between atoms: C13_21  and  O3_22 
ROOT
HETATM    1  N2  UNL     1      45.879  39.691  57.228  1.00  0.00    -0.306 N 
HETATM    2  C4  UNL     1      45.670  40.849  56.579  1.00  0.00     0.151 A 
HETATM    3  C5  UNL     1      44.908  40.595  55.476  1.00  0.00     0.011 A 
HETATM    4  C6  UNL     1      44.648  39.221  55.464  1.00  0.00     0.017 A 
HETATM    5  C7  UNL     1      45.257  38.687  56.554  1.00  0.00     0.152 A 
HETATM    6  C8  UNL     1      43.823  38.780  54.307  1.00  0.00     0.021 C 
HETATM    7  C17 UNL     1      42.543  39.556  54.332  1.00  0.00     0.020 C 
HETATM    8  C18 UNL     1      42.798  41.024  54.445  1.00  0.00     0.013 C 
HETATM    9  C19 UNL     1      44.299  41.341  54.342  1.00  0.00     0.058 C 
HETATM   10  C20 UNL     1      44.724  40.753  53.014  1.00  0.00     0.180 C 
HETATM   11  F1  UNL     1      43.786  41.191  52.069  1.00  0.00    -0.249 F 
HETATM   12  C21 UNL     1      44.603  39.251  53.067  1.00  0.00     0.057 C 
ENDROOT
BRANCH   6  13
HETATM   13  C9  UNL     1      43.651  37.339  54.202  1.00  0.00    -0.043 A 
HETATM   14  C10 UNL     1      44.610  36.587  53.581  1.00  0.00     0.017 A 
HETATM   15  C11 UNL     1      44.446  35.220  53.474  1.00  0.00    -0.028 A 
HETATM   16  C12 UNL     1      45.489  34.399  52.795  1.00  0.00     0.051 C 
HETATM   17  C13 UNL     1      43.334  34.578  53.980  1.00  0.00     0.077 A 
HETATM   18  C14 UNL     1      42.365  35.334  54.606  1.00  0.00    -0.028 A 
HETATM   19  C15 UNL     1      41.160  34.646  55.139  1.00  0.00     0.051 C 
HETATM   20  C16 UNL     1      42.544  36.720  54.707  1.00  0.00     0.017 A 
BRANCH  17  21
HETATM   21  O3  UNL     1      43.222  33.198  53.845  1.00  0.00    -0.360 OA
ATOM     22  H3  UNL     1      43.154  32.658  54.623  1.00  0.00     0.217 HD
ENDBRANCH  17  21
ENDBRANCH   6  13
BRANCH   5  23
HETATM   23  O2  UNL     1      45.228  37.339  56.892  1.00  0.00    -0.345 OA
ATOM     24  H2  UNL     1      44.537  36.876  57.352  1.00  0.00     0.219 HD
ENDBRANCH   5  23
BRANCH   2  25
HETATM   25  O1  UNL     1      46.124  42.112  56.920  1.00  0.00    -0.345 OA
ATOM     26  H1  UNL     1      45.724  42.951  56.725  1.00  0.00     0.219 HD
ENDBRANCH   2  25
BRANCH   1  27
HETATM   27  C3  UNL     1      46.634  39.468  58.447  1.00  0.00     0.160 C 
BRANCH  27  28
HETATM   28  C2  UNL     1      47.910  38.703  58.175  1.00  0.00     0.252 C 
BRANCH  28  29
HETATM   29  N1  UNL     1      48.791  38.740  59.317  1.00  0.00    -0.077 N 
HETATM   30  C1  UNL     1      48.456  39.877  60.145  1.00  0.00     0.267 C 
ATOM     31  H12 UNL     1      49.774  38.736  59.046  1.00  0.00     0.276 HD
ATOM     32  H11 UNL     1      48.780  37.865  59.841  1.00  0.00     0.276 HD
ENDBRANCH  28  29
ENDBRANCH  27  28
ENDBRANCH   1  27
TORSDOF 7
ENDMDL
MODEL 3
REMARK VINA RESULT: -7.872556372      0.940      1.922
REMARK  7 active torsions:
REMARK  status: ('A' for Active; 'I' for Inactive)
REMARK    1  A    between atoms: N1_2  and  C2_5 
REMARK    2  A    between atoms: C2_5  and  C3_6 
REMARK    3  A    between atoms: C3_6  and  N2_7 
REMARK    4  A    between atoms: C4_8  and  O1_9 
REMARK    5  A    between atoms: C7_13  and  O2_14 
REMARK    6  A    between atoms: C8_16  and  C9_17 
REMARK    7  A    between atoms: C13_21  and  O3_22 
ROOT
HETATM    1  N2  UNL     1      46.022  39.958  57.253  1.00  0.00    -0.306 N 
HETATM    2  C4  UNL     1      45.723  41.105  56.621  1.00  0.00     0.151 A 
HETATM    3  C5  UNL     1      44.901  40.818  55.570  1.00  0.00     0.011 A 
HETATM    4  C6  UNL     1      44.698  39.435  55.573  1.00  0.00     0.017 A 
HETATM    5  C7  UNL     1      45.399  38.929  56.619  1.00  0.00     0.152 A 
HETATM    6  C8  UNL     1      43.818  38.959  54.472  1.00  0.00     0.021 C 
HETATM    7  C17 UNL     1      42.511  39.681  54.581  1.00  0.00     0.020 C 
HETATM    8  C18 UNL     1      42.712  41.158  54.681  1.00  0.00     0.013 C 
HETATM    9  C19 UNL     1      44.188  41.538  54.480  1.00  0.00     0.058 C 
HETATM   10  C20 UNL     1      44.550  40.966  53.125  1.00  0.00     0.180 C 
HETATM   11  F1  UNL     1      43.534  41.364  52.245  1.00  0.00    -0.249 F 
HETATM   12  C21 UNL     1      44.495  39.461  53.184  1.00  0.00     0.057 C 
ENDROOT
BRANCH   6  13
HETATM   13  C9  UNL     1      43.700  37.512  54.376  1.00  0.00    -0.043 A 
HETATM   14  C10 UNL     1      44.695  36.790  53.776  1.00  0.00     0.017 A 
HETATM   15  C11 UNL     1      44.582  35.418  53.679  1.00  0.00    -0.028 A 
HETATM   16  C12 UNL     1      45.665  34.629  53.023  1.00  0.00     0.051 C 
HETATM   17  C13 UNL     1      43.486  34.740  54.172  1.00  0.00     0.077 A 
HETATM   18  C14 UNL     1      42.480  35.465  54.775  1.00  0.00    -0.028 A 
HETATM   19  C15 UNL     1      41.292  34.738  55.294  1.00  0.00     0.051 C 
HETATM   20  C16 UNL     1      42.608  36.857  54.867  1.00  0.00     0.017 A 
BRANCH  17  21
HETATM   21  O3  UNL     1      43.426  33.356  54.046  1.00  0.00    -0.360 OA
ATOM     22  H3  UNL     1      43.280  32.972  53.189  1.00  0.00     0.217 HD
ENDBRANCH  17  21
ENDBRANCH   6  13
BRANCH   5  23
HETATM   23  O2  UNL     1      45.448  37.580  56.957  1.00  0.00    -0.345 OA
ATOM     24  H2  UNL     1      45.618  36.848  56.375  1.00  0.00     0.219 HD
ENDBRANCH   5  23
BRANCH   2  25
HETATM   25  O1  UNL     1      46.145  42.386  56.934  1.00  0.00    -0.345 OA
ATOM     26  H1  UNL     1      45.641  43.191  56.913  1.00  0.00     0.219 HD
ENDBRANCH   2  25
BRANCH   1  27
HETATM   27  C3  UNL     1      46.863  39.768  58.420  1.00  0.00     0.160 C 
BRANCH  27  28
HETATM   28  C2  UNL     1      46.230  40.360  59.659  1.00  0.00     0.252 C 
BRANCH  28  29
HETATM   29  N1  UNL     1      47.177  41.165  60.392  1.00  0.00    -0.077 N 
HETATM   30  C1  UNL     1      46.824  42.561  60.260  1.00  0.00     0.267 C 
ATOM     31  H12 UNL     1      48.140  40.982  60.110  1.00  0.00     0.276 HD
ATOM     32  H11 UNL     1      47.254  40.877  61.368  1.00  0.00     0.276 HD
ENDBRANCH  28  29
ENDBRANCH  27  28
ENDBRANCH   1  27
TORSDOF 7
ENDMDL
MODEL 4
REMARK VINA RESULT: -7.818287825      3.277      6.918
REMARK  7 active torsions:
REMARK  status: ('A' for Active; 'I' for Inactive)
REMARK    1  A    between atoms: N1_2  and  C2_5 
REMARK    2  A    between atoms: C2_5  and  C3_6 
REMARK    3  A    between atoms: C3_6  and  N2_7 
REMARK    4  A    between atoms: C4_8  and  O1_9 
REMARK    5  A    between atoms: C7_13  and  O2_14 
REMARK    6  A    between atoms: C8_16  and  C9_17 
REMARK    7  A    between atoms: C13_21  and  O3_22 
ROOT
HETATM    1  N2  UNL     1      45.791  35.801  51.719  1.00  0.00    -0.306 N 
HETATM    2  C4  UNL     1      44.733  34.975  51.776  1.00  0.00     0.151 A 
HETATM    3  C5  UNL     1      43.892  35.417  52.756  1.00  0.00     0.011 A 
HETATM    4  C6  UNL     1      44.474  36.560  53.312  1.00  0.00     0.017 A 
HETATM    5  C7  UNL     1      45.642  36.776  52.655  1.00  0.00     0.152 A 
HETATM    6  C8  UNL     1      43.673  37.164  54.411  1.00  0.00     0.021 C 
HETATM    7  C17 UNL     1      42.312  37.477  53.870  1.00  0.00     0.020 C 
HETATM    8  C18 UNL     1      41.713  36.293  53.183  1.00  0.00     0.013 C 
HETATM    9  C19 UNL     1      42.586  35.040  53.362  1.00  0.00     0.058 C 
HETATM   10  C20 UNL     1      42.711  34.872  54.861  1.00  0.00     0.180 C 
HETATM   11  F1  UNL     1      41.414  34.977  55.380  1.00  0.00    -0.249 F 
HETATM   12  C21 UNL     1      43.492  36.028  55.434  1.00  0.00     0.057 C 
ENDROOT
BRANCH   6  13
HETATM   13  C9  UNL     1      44.320  38.274  55.091  1.00  0.00    -0.043 A 
HETATM   14  C10 UNL     1      44.067  39.556  54.685  1.00  0.00     0.017 A 
HETATM   15  C11 UNL     1      44.685  40.612  55.325  1.00  0.00    -0.028 A 
HETATM   16  C12 UNL     1      44.413  42.010  54.883  1.00  0.00     0.051 C 
HETATM   17  C13 UNL     1      45.559  40.416  56.375  1.00  0.00     0.077 A 
HETATM   18  C14 UNL     1      45.816  39.125  56.787  1.00  0.00    -0.028 A 
HETATM   19  C15 UNL     1      46.768  38.912  57.908  1.00  0.00     0.051 C 
HETATM   20  C16 UNL     1      45.183  38.064  56.127  1.00  0.00     0.017 A 
BRANCH  17  21
HETATM   21  O3  UNL     1      46.152  41.517  56.984  1.00  0.00    -0.360 OA
ATOM     22  H3  UNL     1      47.088  41.652  56.893  1.00  0.00     0.217 HD
ENDBRANCH  17  21
ENDBRANCH   6  13
BRANCH   5  23
HETATM   23  O2  UNL     1      46.514  37.826  52.922  1.00  0.00    -0.345 OA
ATOM     24  H2  UNL     1      46.911  38.417  52.292  1.00  0.00     0.219 HD
ENDBRANCH   5  23
BRANCH   2  25
HETATM   25  O1  UNL     1      44.483  33.854  51.002  1.00  0.00    -0.345 OA
ATOM     26  H1  UNL     1      44.034  33.808  50.166  1.00  0.00     0.219 HD
ENDBRANCH   2  25
BRANCH   1  27
HETATM   27  C3  UNL     1      46.940  35.728  50.836  1.00  0.00     0.160 C 
BRANCH  27  28
HETATM   28  C2  UNL     1      46.589  36.178  49.435  1.00  0.00     0.252 C 
BRANCH  28  29
HETATM   29  N1  UNL     1      46.307  35.049  48.583  1.00  0.00    -0.077 N 
HETATM   30  C1  UNL     1      45.111  35.315  47.813  1.00  0.00     0.267 C 
ATOM     31  H12 UNL     1      46.242  34.176  49.107  1.00  0.00     0.276 HD
ATOM     32  H11 UNL     1      47.100  34.804  47.990  1.00  0.00     0.276 HD
ENDBRANCH  28  29
ENDBRANCH  27  28
ENDBRANCH   1  27
TORSDOF 7
ENDMDL
MODEL 5
REMARK VINA RESULT: -7.811506347      3.272      6.943
REMARK  7 active torsions:
REMARK  status: ('A' for Active; 'I' for Inactive)
REMARK    1  A    between atoms: N1_2  and  C2_5 
REMARK    2  A    between atoms: C2_5  and  C3_6 
REMARK    3  A    between atoms: C3_6  and  N2_7 
REMARK    4  A    between atoms: C4_8  and  O1_9 
REMARK    5  A    between atoms: C7_13  and  O2_14 
REMARK    6  A    between atoms: C8_16  and  C9_17 
REMARK    7  A    between atoms: C13_21  and  O3_22 
ROOT
HETATM    1  N2  UNL     1      45.804  35.799  51.736  1.00  0.00    -0.306 N 
HETATM    2  C4  UNL     1      44.748  34.971  51.801  1.00  0.00     0.151 A 
HETATM    3  C5  UNL     1      43.905  35.421  52.776  1.00  0.00     0.011 A 
HETATM    4  C6  UNL     1      44.484  36.571  53.320  1.00  0.00     0.017 A 
HETATM    5  C7  UNL     1      45.652  36.783  52.662  1.00  0.00     0.152 A 
HETATM    6  C8  UNL     1      43.680  37.184  54.413  1.00  0.00     0.021 C 
HETATM    7  C17 UNL     1      42.319  37.488  53.868  1.00  0.00     0.020 C 
HETATM    8  C18 UNL     1      41.724  36.295  53.192  1.00  0.00     0.013 C 
HETATM    9  C19 UNL     1      42.600  35.047  53.385  1.00  0.00     0.058 C 
HETATM   10  C20 UNL     1      42.724  34.894  54.886  1.00  0.00     0.180 C 
HETATM   11  F1  UNL     1      41.426  35.001  55.403  1.00  0.00    -0.249 F 
HETATM   12  C21 UNL     1      43.502  36.058  55.447  1.00  0.00     0.057 C 
ENDROOT
BRANCH   6  13
HETATM   13  C9  UNL     1      44.324  38.303  55.082  1.00  0.00    -0.043 A 
HETATM   14  C10 UNL     1      45.174  38.068  56.128  1.00  0.00     0.017 A 
HETATM   15  C11 UNL     1      45.781  39.129  56.769  1.00  0.00    -0.028 A 
HETATM   16  C12 UNL     1      46.706  38.875  57.911  1.00  0.00     0.051 C 
HETATM   17  C13 UNL     1      45.559  40.436  56.385  1.00  0.00     0.077 A 
HETATM   18  C14 UNL     1      44.703  40.676  55.331  1.00  0.00    -0.028 A 
HETATM   19  C15 UNL     1      44.451  42.084  54.926  1.00  0.00     0.051 C 
HETATM   20  C16 UNL     1      44.092  39.590  54.691  1.00  0.00     0.017 A 
BRANCH  17  21
HETATM   21  O3  UNL     1      46.199  41.466  57.066  1.00  0.00    -0.360 OA
ATOM     22  H3  UNL     1      45.884  42.356  56.968  1.00  0.00     0.217 HD
ENDBRANCH  17  21
ENDBRANCH   6  13
BRANCH   5  23
HETATM   23  O2  UNL     1      46.521  37.838  52.918  1.00  0.00    -0.345 OA
ATOM     24  H2  UNL     1      46.458  38.479  53.617  1.00  0.00     0.219 HD
ENDBRANCH   5  23
BRANCH   2  25
HETATM   25  O1  UNL     1      44.501  33.842  51.038  1.00  0.00    -0.345 OA
ATOM     26  H1  UNL     1      43.673  33.394  50.906  1.00  0.00     0.219 HD
ENDBRANCH   2  25
BRANCH   1  27
HETATM   27  C3  UNL     1      46.953  35.720  50.855  1.00  0.00     0.160 C 
BRANCH  27  28
HETATM   28  C2  UNL     1      46.608  36.176  49.454  1.00  0.00     0.252 C 
BRANCH  28  29
HETATM   29  N1  UNL     1      46.330  35.050  48.596  1.00  0.00    -0.077 N 
HETATM   30  C1  UNL     1      45.142  35.322  47.817  1.00  0.00     0.267 C 
ATOM     31  H12 UNL     1      46.258  34.176  49.117  1.00  0.00     0.276 HD
ATOM     32  H11 UNL     1      47.128  34.805  48.010  1.00  0.00     0.276 HD
ENDBRANCH  28  29
ENDBRANCH  27  28
ENDBRANCH   1  27
TORSDOF 7
ENDMDL
