MODEL 1
REMARK VINA RESULT: -6.806853242      0.000      0.000
REMARK  6 active torsions:
REMARK  status: ('A' for Active; 'I' for Inactive)
REMARK    1  A    between atoms: C2_2  and  C4_4 
REMARK    2  A    between atoms: N3_9  and  C5_10 
REMARK    3  A    between atoms: C5_10  and  C8_13 
REMARK    4  A    between atoms: C8_13  and  N4_14 
REMARK    5  A    between atoms: C16_22  and  C17_23 
REMARK    6  A    between atoms: C17_23  and  N5_26 
ROOT
HETATM    1  C4  UNL     1       8.499  23.003  49.333  1.00  0.00     0.057 A 
HETATM    2  N1  UNL     1       8.160  22.777  50.644  1.00  0.00    -0.288 N 
ATOM      3  H1  UNL     1       8.026  23.481  51.370  1.00  0.00     0.188 HD
HETATM    4  N2  UNL     1       8.045  21.492  50.778  1.00  0.00    -0.239 N 
ATOM      5  H2  UNL     1       7.799  21.026  51.651  1.00  0.00     0.208 HD
HETATM    6  N3  UNL     1       8.293  20.845  49.607  1.00  0.00    -0.263 N 
HETATM    7  C16 UNL     1       8.583  21.757  48.680  1.00  0.00     0.093 A 
ENDROOT
BRANCH   6   8
HETATM    8  C5  UNL     1       8.234  19.403  49.489  1.00  0.00     0.079 C 
HETATM    9  C6  UNL     1       7.036  18.864  48.821  1.00  0.00     0.046 C 
HETATM   10  C7  UNL     1       7.785  19.000  50.983  1.00  0.00     0.046 C 
BRANCH   8  11
HETATM   11  C8  UNL     1       9.524  18.720  49.488  1.00  0.00     0.091 C 
BRANCH  11  12
HETATM   12  N4  UNL     1      10.772  19.237  49.693  1.00  0.00    -0.382 N 
HETATM   13  C9  UNL     1      11.859  18.403  49.151  1.00  0.00     0.080 C 
HETATM   14  C10 UNL     1      11.387  17.511  48.036  1.00  0.00     0.032 C 
HETATM   15  C11 UNL     1      12.929  19.310  48.646  1.00  0.00     0.025 C 
HETATM   16  C12 UNL     1      13.368  20.362  49.602  1.00  0.00     0.004 C 
HETATM   17  C13 UNL     1      12.286  20.978  50.412  1.00  0.00     0.025 C 
HETATM   18  C14 UNL     1      11.290  19.876  50.820  1.00  0.00     0.080 C 
HETATM   19  C15 UNL     1      12.050  18.920  51.758  1.00  0.00     0.032 C 
ENDBRANCH  11  12
ENDBRANCH   8  11
ENDBRANCH   6   8
BRANCH   7  20
HETATM   20  C17 UNL     1       8.988  21.735  47.308  1.00  0.00     0.198 C 
HETATM   21  C18 UNL     1      10.505  22.071  47.293  1.00  0.00     0.056 C 
HETATM   22  C19 UNL     1       8.945  20.604  46.406  1.00  0.00     0.056 C 
BRANCH  20  23
HETATM   23  N5  UNL     1       8.380  22.822  46.524  1.00  0.00     0.107 N 
HETATM   24  C20 UNL     1       7.069  22.513  46.058  1.00  0.00     0.300 C 
HETATM   25  C21 UNL     1       6.451  23.756  45.456  1.00  0.00     0.198 C 
HETATM   26  O1  UNL     1       7.204  24.381  44.495  1.00  0.00    -0.388 OA
HETATM   27  C22 UNL     1       8.307  23.631  44.218  1.00  0.00     0.198 C 
HETATM   28  C23 UNL     1       9.138  23.383  45.501  1.00  0.00     0.300 C 
ENDBRANCH  20  23
ENDBRANCH   7  20
BRANCH   1  29
HETATM   29  C2  UNL     1       8.607  24.408  48.904  1.00  0.00     0.031 C 
HETATM   30  C1  UNL     1      10.015  24.966  49.201  1.00  0.00     0.016 C 
HETATM   31  C3  UNL     1       7.736  25.298  49.840  1.00  0.00     0.016 C 
ENDBRANCH   1  29
TORSDOF 6
ENDMDL
MODEL 2
REMARK VINA RESULT: -6.792135841      3.081      6.021
REMARK  6 active torsions:
REMARK  status: ('A' for Active; 'I' for Inactive)
REMARK    1  A    between atoms: C2_2  and  C4_4 
REMARK    2  A    between atoms: N3_9  and  C5_10 
REMARK    3  A    between atoms: C5_10  and  C8_13 
REMARK    4  A    between atoms: C8_13  and  N4_14 
REMARK    5  A    between atoms: C16_22  and  C17_23 
REMARK    6  A    between atoms: C17_23  and  N5_26 
ROOT
HETATM    1  C4  UNL     1      10.903  20.160  45.076  1.00  0.00     0.057 A 
HETATM    2  N1  UNL     1       9.723  20.856  44.979  1.00  0.00    -0.288 N 
ATOM      3  H1  UNL     1       9.403  21.408  44.184  1.00  0.00     0.188 HD
HETATM    4  N2  UNL     1       9.096  20.674  46.100  1.00  0.00    -0.239 N 
ATOM      5  H2  UNL     1       8.184  21.074  46.319  1.00  0.00     0.208 HD
HETATM    6  N3  UNL     1       9.809  19.882  46.946  1.00  0.00    -0.263 N 
HETATM    7  C16 UNL     1      10.946  19.543  46.341  1.00  0.00     0.093 A 
ENDROOT
BRANCH   6   8
HETATM    8  C5  UNL     1       9.331  19.529  48.267  1.00  0.00     0.079 C 
HETATM    9  C6  UNL     1       8.971  18.113  48.459  1.00  0.00     0.046 C 
HETATM   10  C7  UNL     1       7.817  20.075  48.192  1.00  0.00     0.046 C 
BRANCH   8  11
HETATM   11  C8  UNL     1       9.790  20.390  49.352  1.00  0.00     0.091 C 
BRANCH  11  12
HETATM   12  N4  UNL     1       9.192  20.653  50.552  1.00  0.00    -0.382 N 
HETATM   13  C9  UNL     1       9.607  21.931  51.158  1.00  0.00     0.080 C 
HETATM   14  C10 UNL     1      10.115  22.905  50.132  1.00  0.00     0.032 C 
HETATM   15  C11 UNL     1       8.428  22.514  51.860  1.00  0.00     0.025 C 
HETATM   16  C12 UNL     1       7.723  21.586  52.785  1.00  0.00     0.004 C 
HETATM   17  C13 UNL     1       7.601  20.184  52.310  1.00  0.00     0.025 C 
HETATM   18  C14 UNL     1       8.915  19.787  51.611  1.00  0.00     0.080 C 
HETATM   19  C15 UNL     1      10.010  19.790  52.694  1.00  0.00     0.032 C 
ENDBRANCH  11  12
ENDBRANCH   8  11
ENDBRANCH   6   8
BRANCH   7  20
HETATM   20  C17 UNL     1      12.121  18.808  46.698  1.00  0.00     0.198 C 
HETATM   21  C18 UNL     1      12.004  17.426  45.996  1.00  0.00     0.056 C 
HETATM   22  C19 UNL     1      13.492  19.158  46.394  1.00  0.00     0.056 C 
BRANCH  20  23
HETATM   23  N5  UNL     1      12.162  18.472  48.130  1.00  0.00     0.107 N 
HETATM   24  C20 UNL     1      13.058  19.293  48.874  1.00  0.00     0.300 C 
HETATM   25  C21 UNL     1      12.872  19.019  50.351  1.00  0.00     0.198 C 
HETATM   26  O1  UNL     1      12.957  17.701  50.719  1.00  0.00    -0.388 OA
HETATM   27  C22 UNL     1      13.327  16.947  49.646  1.00  0.00     0.198 C 
HETATM   28  C23 UNL     1      12.331  17.134  48.475  1.00  0.00     0.300 C 
ENDBRANCH  20  23
ENDBRANCH   7  20
BRANCH   1  29
HETATM   29  C2  UNL     1      11.766  20.142  43.882  1.00  0.00     0.031 C 
HETATM   30  C1  UNL     1      11.405  21.298  42.924  1.00  0.00     0.016 C 
HETATM   31  C3  UNL     1      11.399  18.909  43.003  1.00  0.00     0.016 C 
ENDBRANCH   1  29
TORSDOF 6
ENDMDL
MODEL 3
REMARK VINA RESULT: -6.713449593      2.586      4.632
REMARK  6 active torsions:
REMARK  status: ('A' for Active; 'I' for Inactive)
REMARK    1  A    between atoms: C2_2  and  C4_4 
REMARK    2  A    between atoms: N3_9  and  C5_10 
REMARK    3  A    between atoms: C5_10  and  C8_13 
REMARK    4  A    between atoms: C8_13  and  N4_14 
REMARK    5  A    between atoms: C16_22  and  C17_23 
REMARK    6  A    between atoms: C17_23  and  N5_26 
ROOT
HETATM    1  C4  UNL     1       9.987  22.010  50.049  1.00  0.00     0.057 A 
HETATM    2  N1  UNL     1      11.063  22.423  50.797  1.00  0.00    -0.288 N 
ATOM      3  H1  UNL     1      11.118  23.259  51.377  1.00  0.00     0.188 HD
HETATM    4  N2  UNL     1      11.995  21.539  50.618  1.00  0.00    -0.239 N 
ATOM      5  H2  UNL     1      12.917  21.582  51.051  1.00  0.00     0.208 HD
HETATM    6  N3  UNL     1      11.588  20.548  49.779  1.00  0.00    -0.263 N 
HETATM    7  C16 UNL     1      10.338  20.810  49.401  1.00  0.00     0.093 A 
ENDROOT
BRANCH   6   8
HETATM    8  C5  UNL     1      12.444  19.440  49.412  1.00  0.00     0.079 C 
HETATM    9  C6  UNL     1      12.561  18.363  50.411  1.00  0.00     0.046 C 
HETATM   10  C7  UNL     1      13.896  20.081  49.692  1.00  0.00     0.046 C 
BRANCH   8  11
HETATM   11  C8  UNL     1      12.608  19.220  47.979  1.00  0.00     0.091 C 
BRANCH  11  12
HETATM   12  N4  UNL     1      12.885  18.059  47.313  1.00  0.00    -0.382 N 
HETATM   13  C9  UNL     1      12.457  18.064  45.903  1.00  0.00     0.080 C 
HETATM   14  C10 UNL     1      12.348  19.458  45.349  1.00  0.00     0.032 C 
HETATM   15  C11 UNL     1      13.459  17.290  45.114  1.00  0.00     0.025 C 
HETATM   16  C12 UNL     1      13.789  15.946  45.660  1.00  0.00     0.004 C 
HETATM   17  C13 UNL     1      13.887  15.867  47.140  1.00  0.00     0.025 C 
HETATM   18  C14 UNL     1      12.776  16.739  47.753  1.00  0.00     0.080 C 
HETATM   19  C15 UNL     1      11.437  16.084  47.366  1.00  0.00     0.032 C 
ENDBRANCH  11  12
ENDBRANCH   8  11
ENDBRANCH   6   8
BRANCH   7  20
HETATM   20  C17 UNL     1       9.389  20.219  48.508  1.00  0.00     0.198 C 
HETATM   21  C18 UNL     1       8.851  21.370  47.613  1.00  0.00     0.056 C 
HETATM   22  C19 UNL     1       9.647  19.196  47.516  1.00  0.00     0.056 C 
BRANCH  20  23
HETATM   23  N5  UNL     1       8.189  19.727  49.204  1.00  0.00     0.107 N 
HETATM   24  C20 UNL     1       8.489  18.865  50.299  1.00  0.00     0.300 C 
HETATM   25  C21 UNL     1       7.220  18.588  51.075  1.00  0.00     0.198 C 
HETATM   26  O1  UNL     1       6.165  18.125  50.331  1.00  0.00    -0.388 OA
HETATM   27  C22 UNL     1       6.571  17.900  49.050  1.00  0.00     0.198 C 
HETATM   28  C23 UNL     1       7.167  19.188  48.429  1.00  0.00     0.300 C 
ENDBRANCH  20  23
ENDBRANCH   7  20
BRANCH   1  29
HETATM   29  C2  UNL     1       8.756  22.813  50.152  1.00  0.00     0.031 C 
HETATM   30  C1  UNL     1       9.089  24.315  50.279  1.00  0.00     0.016 C 
HETATM   31  C3  UNL     1       8.082  22.545  51.531  1.00  0.00     0.016 C 
ENDBRANCH   1  29
TORSDOF 6
ENDMDL
MODEL 4
REMARK VINA RESULT: -6.608036650      2.760      6.521
REMARK  6 active torsions:
REMARK  status: ('A' for Active; 'I' for Inactive)
REMARK    1  A    between atoms: C2_2  and  C4_4 
REMARK    2  A    between atoms: N3_9  and  C5_10 
REMARK    3  A    between atoms: C5_10  and  C8_13 
REMARK    4  A    between atoms: C8_13  and  N4_14 
REMARK    5  A    between atoms: C16_22  and  C17_23 
REMARK    6  A    between atoms: C17_23  and  N5_26 
ROOT
HETATM    1  C4  UNL     1      11.655  18.673  45.607  1.00  0.00     0.057 A 
HETATM    2  N1  UNL     1      11.570  19.501  44.515  1.00  0.00    -0.288 N 
ATOM      3  H1  UNL     1      12.024  19.369  43.612  1.00  0.00     0.188 HD
HETATM    4  N2  UNL     1      10.799  20.486  44.859  1.00  0.00    -0.239 N 
ATOM      5  H2  UNL     1      10.552  21.263  44.246  1.00  0.00     0.208 HD
HETATM    6  N3  UNL     1      10.362  20.352  46.140  1.00  0.00    -0.263 N 
HETATM    7  C16 UNL     1      10.879  19.232  46.642  1.00  0.00     0.093 A 
ENDROOT
BRANCH   6   8
HETATM    8  C5  UNL     1       9.490  21.322  46.769  1.00  0.00     0.079 C 
HETATM    9  C6  UNL     1       8.092  20.898  46.958  1.00  0.00     0.046 C 
HETATM   10  C7  UNL     1       9.197  22.307  45.527  1.00  0.00     0.046 C 
BRANCH   8  11
HETATM   11  C8  UNL     1      10.152  22.297  47.631  1.00  0.00     0.091 C 
BRANCH  11  12
HETATM   12  N4  UNL     1       9.612  23.092  48.602  1.00  0.00    -0.382 N 
HETATM   13  C9  UNL     1      10.206  24.440  48.666  1.00  0.00     0.080 C 
HETATM   14  C10 UNL     1      10.827  24.848  47.360  1.00  0.00     0.032 C 
HETATM   15  C11 UNL     1       9.127  25.403  49.030  1.00  0.00     0.025 C 
HETATM   16  C12 UNL     1       8.315  25.022  50.217  1.00  0.00     0.004 C 
HETATM   17  C13 UNL     1       7.998  23.576  50.333  1.00  0.00     0.025 C 
HETATM   18  C14 UNL     1       9.235  22.765  49.905  1.00  0.00     0.080 C 
HETATM   19  C15 UNL     1      10.335  23.058  50.942  1.00  0.00     0.032 C 
ENDBRANCH  11  12
ENDBRANCH   8  11
ENDBRANCH   6   8
BRANCH   7  20
HETATM   20  C17 UNL     1      10.865  18.572  47.911  1.00  0.00     0.198 C 
HETATM   21  C18 UNL     1       9.370  18.351  48.275  1.00  0.00     0.056 C 
HETATM   22  C19 UNL     1      11.420  17.271  48.222  1.00  0.00     0.056 C 
BRANCH  20  23
HETATM   23  N5  UNL     1      11.368  19.428  48.998  1.00  0.00     0.107 N 
HETATM   24  C20 UNL     1      12.780  19.350  49.166  1.00  0.00     0.300 C 
HETATM   25  C21 UNL     1      13.222  20.414  50.148  1.00  0.00     0.198 C 
HETATM   26  O1  UNL     1      12.562  20.416  51.349  1.00  0.00    -0.388 OA
HETATM   27  C22 UNL     1      11.726  19.342  51.415  1.00  0.00     0.198 C 
HETATM   28  C23 UNL     1      10.727  19.350  50.231  1.00  0.00     0.300 C 
ENDBRANCH  20  23
ENDBRANCH   7  20
BRANCH   1  29
HETATM   29  C2  UNL     1      12.417  17.423  45.440  1.00  0.00     0.031 C 
HETATM   30  C1  UNL     1      13.905  17.636  45.791  1.00  0.00     0.016 C 
HETATM   31  C3  UNL     1      12.520  17.085  43.923  1.00  0.00     0.016 C 
ENDBRANCH   1  29
TORSDOF 6
ENDMDL
MODEL 5
REMARK VINA RESULT: -6.555688717      2.952      5.842
REMARK  6 active torsions:
REMARK  status: ('A' for Active; 'I' for Inactive)
REMARK    1  A    between atoms: C2_2  and  C4_4 
REMARK    2  A    between atoms: N3_9  and  C5_10 
REMARK    3  A    between atoms: C5_10  and  C8_13 
REMARK    4  A    between atoms: C8_13  and  N4_14 
REMARK    5  A    between atoms: C16_22  and  C17_23 
REMARK    6  A    between atoms: C17_23  and  N5_26 
ROOT
HETATM    1  C4  UNL     1      10.644  19.962  46.234  1.00  0.00     0.057 A 
HETATM    2  N1  UNL     1       9.479  20.346  45.618  1.00  0.00    -0.288 N 
ATOM      3  H1  UNL     1       9.380  20.709  44.671  1.00  0.00     0.188 HD
HETATM    4  N2  UNL     1       8.528  20.156  46.480  1.00  0.00    -0.239 N 
ATOM      5  H2  UNL     1       7.543  20.354  46.302  1.00  0.00     0.208 HD
HETATM    6  N3  UNL     1       9.009  19.659  47.652  1.00  0.00    -0.263 N 
HETATM    7  C16 UNL     1      10.330  19.527  47.537  1.00  0.00     0.093 A 
ENDROOT
BRANCH   6   8
HETATM    8  C5  UNL     1       8.153  19.362  48.780  1.00  0.00     0.079 C 
HETATM    9  C6  UNL     1       7.961  17.933  49.080  1.00  0.00     0.046 C 
HETATM   10  C7  UNL     1       6.700  19.588  48.118  1.00  0.00     0.046 C 
BRANCH   8  11
HETATM   11  C8  UNL     1       8.063  20.409  49.793  1.00  0.00     0.091 C 
BRANCH  11  12
HETATM   12  N4  UNL     1       8.756  21.583  49.881  1.00  0.00    -0.382 N 
HETATM   13  C9  UNL     1       9.195  21.915  51.248  1.00  0.00     0.080 C 
HETATM   14  C10 UNL     1       9.307  20.695  52.119  1.00  0.00     0.032 C 
HETATM   15  C11 UNL     1      10.524  22.587  51.156  1.00  0.00     0.025 C 
HETATM   16  C12 UNL     1      10.594  23.714  50.187  1.00  0.00     0.004 C 
HETATM   17  C13 UNL     1       9.850  23.510  48.918  1.00  0.00     0.025 C 
HETATM   18  C14 UNL     1       8.522  22.798  49.236  1.00  0.00     0.080 C 
HETATM   19  C15 UNL     1       7.688  23.778  50.083  1.00  0.00     0.032 C 
ENDBRANCH  11  12
ENDBRANCH   8  11
ENDBRANCH   6   8
BRANCH   7  20
HETATM   20  C17 UNL     1      11.403  19.135  48.399  1.00  0.00     0.198 C 
HETATM   21  C18 UNL     1      12.361  20.355  48.490  1.00  0.00     0.056 C 
HETATM   22  C19 UNL     1      11.305  18.754  49.792  1.00  0.00     0.056 C 
BRANCH  20  23
HETATM   23  N5  UNL     1      12.239  18.075  47.812  1.00  0.00     0.107 N 
HETATM   24  C20 UNL     1      11.604  16.800  47.801  1.00  0.00     0.300 C 
HETATM   25  C21 UNL     1      12.443  15.834  46.993  1.00  0.00     0.198 C 
HETATM   26  O1  UNL     1      13.761  15.748  47.363  1.00  0.00    -0.388 OA
HETATM   27  C22 UNL     1      13.969  16.486  48.490  1.00  0.00     0.198 C 
HETATM   28  C23 UNL     1      13.549  17.960  48.266  1.00  0.00     0.300 C 
ENDBRANCH  20  23
ENDBRANCH   7  20
BRANCH   1  29
HETATM   29  C2  UNL     1      11.874  20.005  45.423  1.00  0.00     0.031 C 
HETATM   30  C1  UNL     1      11.770  21.086  44.326  1.00  0.00     0.016 C 
HETATM   31  C3  UNL     1      11.960  18.715  44.555  1.00  0.00     0.016 C 
ENDBRANCH   1  29
TORSDOF 6
ENDMDL
