MODEL 1
REMARK VINA RESULT: -7.452796922      0.000      0.000
REMARK  5 active torsions:
REMARK  status: ('A' for Active; 'I' for Inactive)
REMARK    1  A    between atoms: C2_2  and  C3_3 
REMARK    2  A    between atoms: C3_3  and  C4_4 
REMARK    3  A    between atoms: C4_4  and  N1_5 
REMARK    4  A    between atoms: C8_11  and  C10_14 
REMARK    5  A    between atoms: C13_17  and  S1_18 
ROOT
HETATM    1  N1  UNL     1      10.368  19.452  47.871  1.00  0.00    -0.291 N 
HETATM    2  C5  UNL     1       9.500  20.360  47.149  1.00  0.00     0.330 C 
HETATM    3  O1  UNL     1       9.538  20.317  45.876  1.00  0.00    -0.246 OA
HETATM    4  N2  UNL     1       8.618  21.285  47.739  1.00  0.00    -0.296 N 
HETATM    5  C6  UNL     1       7.761  22.126  46.896  1.00  0.00     0.162 C 
HETATM    6  C7  UNL     1       8.452  21.456  49.132  1.00  0.00     0.103 C 
HETATM    7  C8  UNL     1       8.193  22.501  49.814  1.00  0.00     0.089 C 
HETATM    8  C9  UNL     1       8.081  22.298  51.282  1.00  0.00     0.103 C 
HETATM    9  N3  UNL     1       7.990  22.119  52.419  1.00  0.00    -0.191 NA
HETATM   10  S2  UNL     1       8.751  19.852  50.017  1.00  0.00    -0.050 SA
HETATM   11  C17 UNL     1      10.400  19.437  49.282  1.00  0.00     0.114 C 
HETATM   12  C18 UNL     1      11.379  19.273  50.087  1.00  0.00     0.158 C 
HETATM   13  C19 UNL     1      12.772  19.059  49.850  1.00  0.00     0.113 C 
HETATM   14  N4  UNL     1      13.910  18.899  49.689  1.00  0.00    -0.191 NA
HETATM   15  C20 UNL     1      11.014  19.281  51.518  1.00  0.00     0.113 C 
HETATM   16  N5  UNL     1      10.716  19.271  52.626  1.00  0.00    -0.191 NA
ENDROOT
BRANCH   7  17
HETATM   17  C10 UNL     1       8.051  23.883  49.456  1.00  0.00    -0.013 A 
HETATM   18  C11 UNL     1       6.834  24.477  49.443  1.00  0.00     0.014 A 
HETATM   19  C12 UNL     1       6.696  25.801  49.106  1.00  0.00     0.019 A 
HETATM   20  C13 UNL     1       7.784  26.564  48.770  1.00  0.00    -0.000 A 
HETATM   21  C15 UNL     1       9.027  25.972  48.778  1.00  0.00     0.019 A 
HETATM   22  C16 UNL     1       9.156  24.620  49.125  1.00  0.00     0.014 A 
BRANCH  20  23
HETATM   23  S1  UNL     1       7.577  28.296  48.331  1.00  0.00    -0.134 SA
HETATM   24  C14 UNL     1       7.571  29.328  49.821  1.00  0.00     0.095 C 
ENDBRANCH  20  23
ENDBRANCH   7  17
BRANCH   1  25
HETATM   25  C4  UNL     1      11.162  18.561  47.102  1.00  0.00     0.134 C 
BRANCH  25  26
HETATM   26  C3  UNL     1      10.957  17.111  47.432  1.00  0.00     0.020 C 
BRANCH  26  27
HETATM   27  C2  UNL     1      12.119  16.215  47.436  1.00  0.00    -0.003 C 
HETATM   28  C1  UNL     1      12.918  16.204  46.177  1.00  0.00     0.005 C 
ENDBRANCH  26  27
ENDBRANCH  25  26
ENDBRANCH   1  25
TORSDOF 5
ENDMDL
MODEL 2
REMARK VINA RESULT: -7.314232608      2.840      8.112
REMARK  5 active torsions:
REMARK  status: ('A' for Active; 'I' for Inactive)
REMARK    1  A    between atoms: C2_2  and  C3_3 
REMARK    2  A    between atoms: C3_3  and  C4_4 
REMARK    3  A    between atoms: C4_4  and  N1_5 
REMARK    4  A    between atoms: C8_11  and  C10_14 
REMARK    5  A    between atoms: C13_17  and  S1_18 
ROOT
HETATM    1  N1  UNL     1       9.527  20.843  48.346  1.00  0.00    -0.291 N 
HETATM    2  C5  UNL     1      10.044  20.796  46.993  1.00  0.00     0.330 C 
HETATM    3  O1  UNL     1       9.351  21.359  46.083  1.00  0.00    -0.246 OA
HETATM    4  N2  UNL     1      11.248  20.179  46.601  1.00  0.00    -0.296 N 
HETATM    5  C6  UNL     1      11.681  20.233  45.201  1.00  0.00     0.162 C 
HETATM    6  C7  UNL     1      12.130  19.517  47.483  1.00  0.00     0.103 C 
HETATM    7  C8  UNL     1      12.878  18.501  47.300  1.00  0.00     0.089 C 
HETATM    8  C9  UNL     1      13.690  18.082  48.472  1.00  0.00     0.103 C 
HETATM    9  N3  UNL     1      14.319  17.777  49.392  1.00  0.00    -0.191 NA
HETATM   10  S2  UNL     1      12.057  20.291  49.169  1.00  0.00    -0.050 SA
HETATM   11  C17 UNL     1      10.221  20.237  49.415  1.00  0.00     0.114 C 
HETATM   12  C18 UNL     1       9.782  19.607  50.437  1.00  0.00     0.158 C 
HETATM   13  C19 UNL     1       8.452  19.288  50.851  1.00  0.00     0.113 C 
HETATM   14  N4  UNL     1       7.385  19.002  51.206  1.00  0.00    -0.191 NA
HETATM   15  C20 UNL     1      10.824  19.143  51.375  1.00  0.00     0.113 C 
HETATM   16  N5  UNL     1      11.641  18.803  52.105  1.00  0.00    -0.191 NA
ENDROOT
BRANCH   7  17
HETATM   17  C10 UNL     1      13.052  17.612  46.188  1.00  0.00    -0.013 A 
HETATM   18  C11 UNL     1      12.183  17.620  45.148  1.00  0.00     0.014 A 
HETATM   19  C12 UNL     1      12.350  16.774  44.080  1.00  0.00     0.019 A 
HETATM   20  C13 UNL     1      13.399  15.892  44.031  1.00  0.00    -0.000 A 
HETATM   21  C15 UNL     1      14.289  15.874  45.081  1.00  0.00     0.019 A 
HETATM   22  C16 UNL     1      14.108  16.743  46.166  1.00  0.00     0.014 A 
BRANCH  20  23
HETATM   23  S1  UNL     1      13.595  14.793  42.621  1.00  0.00    -0.134 SA
HETATM   24  C14 UNL     1      15.196  13.946  42.701  1.00  0.00     0.095 C 
ENDBRANCH  20  23
ENDBRANCH   7  17
BRANCH   1  25
HETATM   25  C4  UNL     1       8.312  21.546  48.555  1.00  0.00     0.134 C 
BRANCH  25  26
HETATM   26  C3  UNL     1       8.487  22.929  49.112  1.00  0.00     0.020 C 
BRANCH  26  27
HETATM   27  C2  UNL     1       8.189  23.164  50.530  1.00  0.00    -0.003 C 
HETATM   28  C1  UNL     1       9.381  23.256  51.422  1.00  0.00     0.005 C 
ENDBRANCH  26  27
ENDBRANCH  25  26
ENDBRANCH   1  25
TORSDOF 5
ENDMDL
MODEL 3
REMARK VINA RESULT: -7.303688074      0.932      1.364
REMARK  5 active torsions:
REMARK  status: ('A' for Active; 'I' for Inactive)
REMARK    1  A    between atoms: C2_2  and  C3_3 
REMARK    2  A    between atoms: C3_3  and  C4_4 
REMARK    3  A    between atoms: C4_4  and  N1_5 
REMARK    4  A    between atoms: C8_11  and  C10_14 
REMARK    5  A    between atoms: C13_17  and  S1_18 
ROOT
HETATM    1  N1  UNL     1      10.972  20.479  47.461  1.00  0.00    -0.291 N 
HETATM    2  C5  UNL     1      10.068  21.426  46.840  1.00  0.00     0.330 C 
HETATM    3  O1  UNL     1      10.233  21.660  45.597  1.00  0.00    -0.246 OA
HETATM    4  N2  UNL     1       9.024  22.106  47.495  1.00  0.00    -0.296 N 
HETATM    5  C6  UNL     1       8.152  23.015  46.743  1.00  0.00     0.162 C 
HETATM    6  C7  UNL     1       8.708  21.957  48.864  1.00  0.00     0.103 C 
HETATM    7  C8  UNL     1       8.255  22.798  49.707  1.00  0.00     0.089 C 
HETATM    8  C9  UNL     1       8.031  22.275  51.080  1.00  0.00     0.103 C 
HETATM    9  N3  UNL     1       7.856  21.848  52.138  1.00  0.00    -0.191 NA
HETATM   10  S2  UNL     1       9.121  20.240  49.436  1.00  0.00    -0.050 SA
HETATM   11  C17 UNL     1      10.872  20.165  48.834  1.00  0.00     0.114 C 
HETATM   12  C18 UNL     1      11.783  19.936  49.700  1.00  0.00     0.158 C 
HETATM   13  C19 UNL     1      13.208  19.923  49.592  1.00  0.00     0.113 C 
HETATM   14  N4  UNL     1      14.368  19.920  49.539  1.00  0.00    -0.191 NA
HETATM   15  C20 UNL     1      11.287  19.599  51.049  1.00  0.00     0.113 C 
HETATM   16  N5  UNL     1      10.889  19.320  52.089  1.00  0.00    -0.191 NA
ENDROOT
BRANCH   7  17
HETATM   17  C10 UNL     1       7.974  24.203  49.621  1.00  0.00    -0.013 A 
HETATM   18  C11 UNL     1       8.967  25.119  49.726  1.00  0.00     0.014 A 
HETATM   19  C12 UNL     1       8.702  26.463  49.640  1.00  0.00     0.019 A 
HETATM   20  C13 UNL     1       7.425  26.923  49.445  1.00  0.00    -0.000 A 
HETATM   21  C15 UNL     1       6.407  26.002  49.336  1.00  0.00     0.019 A 
HETATM   22  C16 UNL     1       6.690  24.632  49.425  1.00  0.00     0.014 A 
BRANCH  20  23
HETATM   23  S1  UNL     1       7.103  28.689  49.335  1.00  0.00    -0.134 SA
HETATM   24  C14 UNL     1       7.799  29.547  50.773  1.00  0.00     0.095 C 
ENDBRANCH  20  23
ENDBRANCH   7  17
BRANCH   1  25
HETATM   25  C4  UNL     1      11.941  19.860  46.629  1.00  0.00     0.134 C 
BRANCH  25  26
HETATM   26  C3  UNL     1      11.592  18.462  46.209  1.00  0.00     0.020 C 
BRANCH  26  27
HETATM   27  C2  UNL     1      12.302  17.338  46.831  1.00  0.00    -0.003 C 
HETATM   28  C1  UNL     1      11.457  16.440  47.670  1.00  0.00     0.005 C 
ENDBRANCH  26  27
ENDBRANCH  25  26
ENDBRANCH   1  25
TORSDOF 5
ENDMDL
MODEL 4
REMARK VINA RESULT: -7.256951071      1.075      1.199
REMARK  5 active torsions:
REMARK  status: ('A' for Active; 'I' for Inactive)
REMARK    1  A    between atoms: C2_2  and  C3_3 
REMARK    2  A    between atoms: C3_3  and  C4_4 
REMARK    3  A    between atoms: C4_4  and  N1_5 
REMARK    4  A    between atoms: C8_11  and  C10_14 
REMARK    5  A    between atoms: C13_17  and  S1_18 
ROOT
HETATM    1  N1  UNL     1      10.926  20.525  47.520  1.00  0.00    -0.291 N 
HETATM    2  C5  UNL     1       9.979  21.445  46.921  1.00  0.00     0.330 C 
HETATM    3  O1  UNL     1      10.107  21.685  45.676  1.00  0.00    -0.246 OA
HETATM    4  N2  UNL     1       8.931  22.093  47.602  1.00  0.00    -0.296 N 
HETATM    5  C6  UNL     1       8.014  22.974  46.872  1.00  0.00     0.162 C 
HETATM    6  C7  UNL     1       8.652  21.933  48.978  1.00  0.00     0.103 C 
HETATM    7  C8  UNL     1       8.194  22.759  49.832  1.00  0.00     0.089 C 
HETATM    8  C9  UNL     1       8.018  22.229  51.210  1.00  0.00     0.103 C 
HETATM    9  N3  UNL     1       7.882  21.796  52.272  1.00  0.00    -0.191 NA
HETATM   10  S2  UNL     1       9.131  20.229  49.538  1.00  0.00    -0.050 SA
HETATM   11  C17 UNL     1      10.869  20.208  48.894  1.00  0.00     0.114 C 
HETATM   12  C18 UNL     1      11.807  20.006  49.738  1.00  0.00     0.158 C 
HETATM   13  C19 UNL     1      13.229  20.037  49.596  1.00  0.00     0.113 C 
HETATM   14  N4  UNL     1      14.386  20.069  49.515  1.00  0.00    -0.191 NA
HETATM   15  C20 UNL     1      11.353  19.653  51.098  1.00  0.00     0.113 C 
HETATM   16  N5  UNL     1      10.989  19.362  52.146  1.00  0.00    -0.191 NA
ENDROOT
BRANCH   7  17
HETATM   17  C10 UNL     1       7.868  24.155  49.755  1.00  0.00    -0.013 A 
HETATM   18  C11 UNL     1       6.639  24.561  49.357  1.00  0.00     0.014 A 
HETATM   19  C12 UNL     1       6.323  25.895  49.287  1.00  0.00     0.019 A 
HETATM   20  C13 UNL     1       7.240  26.860  49.615  1.00  0.00    -0.000 A 
HETATM   21  C15 UNL     1       8.494  26.460  50.021  1.00  0.00     0.019 A 
HETATM   22  C16 UNL     1       8.805  25.094  50.089  1.00  0.00     0.014 A 
BRANCH  20  23
HETATM   23  S1  UNL     1       6.803  28.601  49.514  1.00  0.00    -0.134 SA
HETATM   24  C14 UNL     1       5.111  28.861  50.110  1.00  0.00     0.095 C 
ENDBRANCH  20  23
ENDBRANCH   7  17
BRANCH   1  25
HETATM   25  C4  UNL     1      11.894  19.938  46.664  1.00  0.00     0.134 C 
BRANCH  25  26
HETATM   26  C3  UNL     1      11.546  18.553  46.198  1.00  0.00     0.020 C 
BRANCH  26  27
HETATM   27  C2  UNL     1      12.175  17.405  46.862  1.00  0.00    -0.003 C 
HETATM   28  C1  UNL     1      11.276  16.615  47.752  1.00  0.00     0.005 C 
ENDBRANCH  26  27
ENDBRANCH  25  26
ENDBRANCH   1  25
TORSDOF 5
ENDMDL
MODEL 5
REMARK VINA RESULT: -6.926109523      2.890      8.237
REMARK  5 active torsions:
REMARK  status: ('A' for Active; 'I' for Inactive)
REMARK    1  A    between atoms: C2_2  and  C3_3 
REMARK    2  A    between atoms: C3_3  and  C4_4 
REMARK    3  A    between atoms: C4_4  and  N1_5 
REMARK    4  A    between atoms: C8_11  and  C10_14 
REMARK    5  A    between atoms: C13_17  and  S1_18 
ROOT
HETATM    1  N1  UNL     1       9.333  20.623  47.417  1.00  0.00    -0.291 N 
HETATM    2  C5  UNL     1      10.034  20.539  46.152  1.00  0.00     0.330 C 
HETATM    3  O1  UNL     1       9.453  21.032  45.129  1.00  0.00    -0.246 OA
HETATM    4  N2  UNL     1      11.302  19.958  45.960  1.00  0.00    -0.296 N 
HETATM    5  C6  UNL     1      11.922  19.969  44.631  1.00  0.00     0.162 C 
HETATM    6  C7  UNL     1      12.077  19.373  46.986  1.00  0.00     0.103 C 
HETATM    7  C8  UNL     1      12.879  18.384  46.957  1.00  0.00     0.089 C 
HETATM    8  C9  UNL     1      13.536  18.052  48.249  1.00  0.00     0.103 C 
HETATM    9  N3  UNL     1      14.041  17.814  49.260  1.00  0.00    -0.191 NA
HETATM   10  S2  UNL     1      11.742  20.217  48.605  1.00  0.00    -0.050 SA
HETATM   11  C17 UNL     1       9.893  20.095  48.600  1.00  0.00     0.114 C 
HETATM   12  C18 UNL     1       9.340  19.492  49.582  1.00  0.00     0.158 C 
HETATM   13  C19 UNL     1       7.978  19.135  49.825  1.00  0.00     0.113 C 
HETATM   14  N4  UNL     1       6.883  18.819  50.044  1.00  0.00    -0.191 NA
HETATM   15  C20 UNL     1      10.258  19.115  50.675  1.00  0.00     0.113 C 
HETATM   16  N5  UNL     1      10.977  18.842  51.527  1.00  0.00    -0.191 NA
ENDROOT
BRANCH   7  17
HETATM   17  C10 UNL     1      13.238  17.455  45.924  1.00  0.00    -0.013 A 
HETATM   18  C11 UNL     1      12.376  17.163  44.921  1.00  0.00     0.014 A 
HETATM   19  C12 UNL     1      12.718  16.279  43.929  1.00  0.00     0.019 A 
HETATM   20  C13 UNL     1      13.943  15.661  43.921  1.00  0.00    -0.000 A 
HETATM   21  C15 UNL     1      14.828  15.949  44.935  1.00  0.00     0.019 A 
HETATM   22  C16 UNL     1      14.467  16.854  45.943  1.00  0.00     0.014 A 
BRANCH  20  23
HETATM   23  S1  UNL     1      14.368  14.505  42.610  1.00  0.00    -0.134 SA
HETATM   24  C14 UNL     1      12.979  13.388  42.279  1.00  0.00     0.095 C 
ENDBRANCH  20  23
ENDBRANCH   7  17
BRANCH   1  25
HETATM   25  C4  UNL     1       8.075  21.282  47.423  1.00  0.00     0.134 C 
BRANCH  25  26
HETATM   26  C3  UNL     1       8.061  22.577  48.181  1.00  0.00     0.020 C 
BRANCH  26  27
HETATM   27  C2  UNL     1       8.956  23.658  47.750  1.00  0.00    -0.003 C 
HETATM   28  C1  UNL     1      10.081  23.960  48.681  1.00  0.00     0.005 C 
ENDBRANCH  26  27
ENDBRANCH  25  26
ENDBRANCH   1  25
TORSDOF 5
ENDMDL
