MODEL 1
REMARK VINA RESULT: -7.990066635      0.000      0.000
REMARK  5 active torsions:
REMARK  status: ('A' for Active; 'I' for Inactive)
REMARK    1  A    between atoms: C2_2  and  O2_4 
REMARK    2  A    between atoms: O2_4  and  C3_5 
REMARK    3  A    between atoms: C4_6  and  C5_7 
REMARK    4  A    between atoms: C5_7  and  C6_8 
REMARK    5  A    between atoms: C10_14  and  C11_15 
ROOT
HETATM    1  C3  UNL     1      10.811  18.646  47.134  1.00  0.00     0.196 C 
HETATM    2  C4  UNL     1      10.088  19.457  48.212  1.00  0.00     0.166 C 
HETATM    3  O3  UNL     1      10.121  18.897  49.478  1.00  0.00    -0.339 OA
HETATM    4  C10 UNL     1      10.678  19.397  50.667  1.00  0.00     0.114 C 
HETATM    5  C13 UNL     1      11.883  19.934  50.724  1.00  0.00     0.040 C 
HETATM    6  C14 UNL     1      12.867  20.141  49.695  1.00  0.00     0.002 C 
HETATM    7  C15 UNL     1      13.440  19.318  48.863  1.00  0.00     0.010 C 
HETATM    8  C16 UNL     1      13.230  17.856  48.729  1.00  0.00     0.077 C 
HETATM    9  C17 UNL     1      14.093  17.129  49.755  1.00  0.00     0.050 C 
HETATM   10  C18 UNL     1      13.671  17.372  47.362  1.00  0.00     0.049 C 
HETATM   11  C19 UNL     1      12.431  16.681  46.862  1.00  0.00     0.022 C 
HETATM   12  C20 UNL     1      12.315  16.516  45.414  1.00  0.00     0.013 C 
HETATM   13  C21 UNL     1      11.342  17.351  47.625  1.00  0.00     0.091 C 
HETATM   14  C22 UNL     1      10.271  16.291  47.844  1.00  0.00     0.049 C 
HETATM   15  O5  UNL     1      11.947  17.426  48.890  1.00  0.00    -0.363 OA
ENDROOT
BRANCH   2  16
HETATM   16  C5  UNL     1       8.705  19.887  47.826  1.00  0.00     0.074 C 
BRANCH  16  17
HETATM   17  C6  UNL     1       8.418  21.368  47.836  1.00  0.00    -0.049 A 
HETATM   18  C7  UNL     1       8.971  22.187  48.768  1.00  0.00     0.015 A 
HETATM   19  C8  UNL     1       8.703  23.520  48.698  1.00  0.00     0.050 A 
HETATM   20  S1  UNL     1       7.687  23.633  47.343  1.00  0.00    -0.113 SA
HETATM   21  C9  UNL     1       7.633  21.992  46.906  1.00  0.00     0.056 A 
ENDBRANCH  16  17
ENDBRANCH   2  16
BRANCH   1  22
HETATM   22  O2  UNL     1      11.669  19.420  46.382  1.00  0.00    -0.311 OA
BRANCH  22  23
HETATM   23  C2  UNL     1      11.397  20.166  45.292  1.00  0.00     0.255 C 
HETATM   24  C1  UNL     1      11.371  19.681  43.888  1.00  0.00     0.126 C 
HETATM   25  O1  UNL     1      11.156  21.346  45.535  1.00  0.00    -0.266 OA
ENDBRANCH  22  23
ENDBRANCH   1  22
BRANCH   4  26
HETATM   26  C11 UNL     1       9.831  19.283  51.883  1.00  0.00     0.178 C 
HETATM   27  C12 UNL     1       8.488  19.964  51.802  1.00  0.00     0.099 C 
HETATM   28  O4  UNL     1      10.183  18.678  52.896  1.00  0.00    -0.291 OA
ENDBRANCH   4  26
TORSDOF 5
ENDMDL
MODEL 2
REMARK VINA RESULT: -7.425252912      1.584      2.056
REMARK  5 active torsions:
REMARK  status: ('A' for Active; 'I' for Inactive)
REMARK    1  A    between atoms: C2_2  and  O2_4 
REMARK    2  A    between atoms: O2_4  and  C3_5 
REMARK    3  A    between atoms: C4_6  and  C5_7 
REMARK    4  A    between atoms: C5_7  and  C6_8 
REMARK    5  A    between atoms: C10_14  and  C11_15 
ROOT
HETATM    1  C3  UNL     1      10.735  18.962  47.396  1.00  0.00     0.196 C 
HETATM    2  C4  UNL     1      10.142  19.727  48.582  1.00  0.00     0.166 C 
HETATM    3  O3  UNL     1      10.296  19.103  49.809  1.00  0.00    -0.339 OA
HETATM    4  C10 UNL     1      10.983  19.535  50.957  1.00  0.00     0.114 C 
HETATM    5  C13 UNL     1      12.196  20.053  50.913  1.00  0.00     0.040 C 
HETATM    6  C14 UNL     1      13.072  20.298  49.798  1.00  0.00     0.002 C 
HETATM    7  C15 UNL     1      13.541  19.512  48.872  1.00  0.00     0.010 C 
HETATM    8  C16 UNL     1      13.291  18.061  48.690  1.00  0.00     0.077 C 
HETATM    9  C17 UNL     1      14.244  17.272  49.582  1.00  0.00     0.050 C 
HETATM   10  C18 UNL     1      13.580  17.641  47.261  1.00  0.00     0.049 C 
HETATM   11  C19 UNL     1      12.282  16.993  46.860  1.00  0.00     0.022 C 
HETATM   12  C20 UNL     1      12.013  16.903  45.426  1.00  0.00     0.013 C 
HETATM   13  C21 UNL     1      11.290  17.637  47.765  1.00  0.00     0.091 C 
HETATM   14  C22 UNL     1      10.230  16.581  48.043  1.00  0.00     0.049 C 
HETATM   15  O5  UNL     1      12.025  17.640  48.962  1.00  0.00    -0.363 OA
ENDROOT
BRANCH   2  16
HETATM   16  C5  UNL     1       8.735  20.193  48.365  1.00  0.00     0.074 C 
BRANCH  16  17
HETATM   17  C6  UNL     1       7.631  19.223  48.705  1.00  0.00    -0.049 A 
HETATM   18  C7  UNL     1       7.581  18.608  49.915  1.00  0.00     0.015 A 
HETATM   19  C8  UNL     1       6.536  17.774  50.174  1.00  0.00     0.050 A 
HETATM   20  S1  UNL     1       5.628  17.846  48.741  1.00  0.00    -0.113 SA
HETATM   21  C9  UNL     1       6.596  18.928  47.860  1.00  0.00     0.056 A 
ENDBRANCH  16  17
ENDBRANCH   2  16
BRANCH   1  22
HETATM   22  O2  UNL     1      11.524  19.763  46.598  1.00  0.00    -0.311 OA
BRANCH  22  23
HETATM   23  C2  UNL     1      11.158  20.547  45.564  1.00  0.00     0.255 C 
HETATM   24  C1  UNL     1      11.086  20.133  44.139  1.00  0.00     0.126 C 
HETATM   25  O1  UNL     1      10.867  21.697  45.881  1.00  0.00    -0.266 OA
ENDBRANCH  22  23
ENDBRANCH   1  22
BRANCH   4  26
HETATM   26  C11 UNL     1      10.265  19.370  52.247  1.00  0.00     0.178 C 
HETATM   27  C12 UNL     1       9.269  20.454  52.576  1.00  0.00     0.099 C 
HETATM   28  O4  UNL     1      10.455  18.422  53.009  1.00  0.00    -0.291 OA
ENDBRANCH   4  26
TORSDOF 5
ENDMDL
MODEL 3
REMARK VINA RESULT: -7.307179611      1.019      1.058
REMARK  5 active torsions:
REMARK  status: ('A' for Active; 'I' for Inactive)
REMARK    1  A    between atoms: C2_2  and  O2_4 
REMARK    2  A    between atoms: O2_4  and  C3_5 
REMARK    3  A    between atoms: C4_6  and  C5_7 
REMARK    4  A    between atoms: C5_7  and  C6_8 
REMARK    5  A    between atoms: C10_14  and  C11_15 
ROOT
HETATM    1  C3  UNL     1      10.621  19.520  47.516  1.00  0.00     0.196 C 
HETATM    2  C4  UNL     1      10.001  20.142  48.770  1.00  0.00     0.166 C 
HETATM    3  O3  UNL     1      10.156  19.393  49.925  1.00  0.00    -0.339 OA
HETATM    4  C10 UNL     1      10.822  19.712  51.120  1.00  0.00     0.114 C 
HETATM    5  C13 UNL     1      12.025  20.255  51.147  1.00  0.00     0.040 C 
HETATM    6  C14 UNL     1      12.907  20.635  50.076  1.00  0.00     0.002 C 
HETATM    7  C15 UNL     1      13.400  19.962  49.076  1.00  0.00     0.010 C 
HETATM    8  C16 UNL     1      13.182  18.534  48.736  1.00  0.00     0.077 C 
HETATM    9  C17 UNL     1      14.141  17.672  49.551  1.00  0.00     0.050 C 
HETATM   10  C18 UNL     1      13.493  18.276  47.275  1.00  0.00     0.049 C 
HETATM   11  C19 UNL     1      12.213  17.650  46.791  1.00  0.00     0.022 C 
HETATM   12  C20 UNL     1      11.960  17.709  45.353  1.00  0.00     0.013 C 
HETATM   13  C21 UNL     1      11.199  18.174  47.748  1.00  0.00     0.091 C 
HETATM   14  C22 UNL     1      10.158  17.074  47.898  1.00  0.00     0.049 C 
HETATM   15  O5  UNL     1      11.922  18.062  48.947  1.00  0.00    -0.363 OA
ENDROOT
BRANCH   2  16
HETATM   16  C5  UNL     1       8.587  20.601  48.587  1.00  0.00     0.074 C 
BRANCH  16  17
HETATM   17  C6  UNL     1       8.294  22.052  48.878  1.00  0.00    -0.049 A 
HETATM   18  C7  UNL     1       8.522  22.586  50.105  1.00  0.00     0.015 A 
HETATM   19  C8  UNL     1       8.273  23.911  50.291  1.00  0.00     0.050 A 
HETATM   20  S1  UNL     1       7.724  24.413  48.765  1.00  0.00    -0.113 SA
HETATM   21  C9  UNL     1       7.827  22.932  47.939  1.00  0.00     0.056 A 
ENDBRANCH  16  17
ENDBRANCH   2  16
BRANCH   1  22
HETATM   22  O2  UNL     1      11.402  20.416  46.818  1.00  0.00    -0.311 OA
BRANCH  22  23
HETATM   23  C2  UNL     1      11.024  21.326  45.896  1.00  0.00     0.255 C 
HETATM   24  C1  UNL     1      10.771  21.057  44.458  1.00  0.00     0.126 C 
HETATM   25  O1  UNL     1      10.890  22.465  46.337  1.00  0.00    -0.266 OA
ENDBRANCH  22  23
ENDBRANCH   1  22
BRANCH   4  26
HETATM   26  C11 UNL     1      10.095  19.396  52.377  1.00  0.00     0.178 C 
HETATM   27  C12 UNL     1       8.990  20.355  52.743  1.00  0.00     0.099 C 
HETATM   28  O4  UNL     1      10.360  18.424  53.084  1.00  0.00    -0.291 OA
ENDBRANCH   4  26
TORSDOF 5
ENDMDL
MODEL 4
REMARK VINA RESULT: -6.921931145      2.269      3.572
REMARK  5 active torsions:
REMARK  status: ('A' for Active; 'I' for Inactive)
REMARK    1  A    between atoms: C2_2  and  O2_4 
REMARK    2  A    between atoms: O2_4  and  C3_5 
REMARK    3  A    between atoms: C4_6  and  C5_7 
REMARK    4  A    between atoms: C5_7  and  C6_8 
REMARK    5  A    between atoms: C10_14  and  C11_15 
ROOT
HETATM    1  C3  UNL     1       9.010  21.862  48.314  1.00  0.00     0.196 C 
HETATM    2  C4  UNL     1       8.728  22.204  49.779  1.00  0.00     0.166 C 
HETATM    3  O3  UNL     1       8.780  21.126  50.646  1.00  0.00    -0.339 OA
HETATM    4  C10 UNL     1       9.629  20.892  51.741  1.00  0.00     0.114 C 
HETATM    5  C13 UNL     1      10.934  21.090  51.690  1.00  0.00     0.040 C 
HETATM    6  C14 UNL     1      11.772  21.551  50.615  1.00  0.00     0.002 C 
HETATM    7  C15 UNL     1      11.945  21.115  49.400  1.00  0.00     0.010 C 
HETATM    8  C16 UNL     1      11.293  19.958  48.741  1.00  0.00     0.077 C 
HETATM    9  C17 UNL     1      12.043  18.682  49.108  1.00  0.00     0.050 C 
HETATM   10  C18 UNL     1      11.364  20.089  47.231  1.00  0.00     0.049 C 
HETATM   11  C19 UNL     1       9.915  19.973  46.842  1.00  0.00     0.022 C 
HETATM   12  C20 UNL     1       9.542  20.527  45.541  1.00  0.00     0.013 C 
HETATM   13  C21 UNL     1       9.199  20.411  48.072  1.00  0.00     0.091 C 
HETATM   14  C22 UNL     1       7.907  19.608  48.113  1.00  0.00     0.049 C 
HETATM   15  O5  UNL     1       9.978  19.767  49.045  1.00  0.00    -0.363 OA
ENDROOT
BRANCH   2  16
HETATM   16  C5  UNL     1       7.494  23.029  49.986  1.00  0.00     0.074 C 
BRANCH  16  17
HETATM   17  C6  UNL     1       7.632  24.523  49.823  1.00  0.00    -0.049 A 
HETATM   18  C7  UNL     1       6.661  25.259  49.223  1.00  0.00     0.015 A 
HETATM   19  C8  UNL     1       6.829  26.607  49.143  1.00  0.00     0.050 A 
HETATM   20  S1  UNL     1       8.329  26.850  49.899  1.00  0.00    -0.113 SA
HETATM   21  C9  UNL     1       8.698  25.239  50.293  1.00  0.00     0.056 A 
ENDBRANCH  16  17
ENDBRANCH   2  16
BRANCH   1  22
HETATM   22  O2  UNL     1       9.938  22.710  47.747  1.00  0.00    -0.311 OA
BRANCH  22  23
HETATM   23  C2  UNL     1       9.731  23.856  47.069  1.00  0.00     0.255 C 
HETATM   24  C1  UNL     1      10.655  25.018  47.018  1.00  0.00     0.126 C 
HETATM   25  O1  UNL     1       8.669  23.894  46.453  1.00  0.00    -0.266 OA
ENDBRANCH  22  23
ENDBRANCH   1  22
BRANCH   4  26
HETATM   26  C11 UNL     1       8.976  20.396  52.980  1.00  0.00     0.178 C 
HETATM   27  C12 UNL     1       7.607  20.962  53.259  1.00  0.00     0.099 C 
HETATM   28  O4  UNL     1       9.500  19.580  53.739  1.00  0.00    -0.291 OA
ENDBRANCH   4  26
TORSDOF 5
ENDMDL
MODEL 5
REMARK VINA RESULT: -6.889604112      2.378      5.646
REMARK  5 active torsions:
REMARK  status: ('A' for Active; 'I' for Inactive)
REMARK    1  A    between atoms: C2_2  and  O2_4 
REMARK    2  A    between atoms: O2_4  and  C3_5 
REMARK    3  A    between atoms: C4_6  and  C5_7 
REMARK    4  A    between atoms: C5_7  and  C6_8 
REMARK    5  A    between atoms: C10_14  and  C11_15 
ROOT
HETATM    1  C3  UNL     1       8.983  19.797  48.160  1.00  0.00     0.196 C 
HETATM    2  C4  UNL     1      10.129  18.937  48.698  1.00  0.00     0.166 C 
HETATM    3  O3  UNL     1      11.367  19.558  48.703  1.00  0.00    -0.339 OA
HETATM    4  C10 UNL     1      12.213  19.868  49.781  1.00  0.00     0.114 C 
HETATM    5  C13 UNL     1      11.778  20.422  50.897  1.00  0.00     0.040 C 
HETATM    6  C14 UNL     1      10.454  20.826  51.290  1.00  0.00     0.002 C 
HETATM    7  C15 UNL     1       9.590  21.628  50.735  1.00  0.00     0.010 C 
HETATM    8  C16 UNL     1       9.730  22.393  49.473  1.00  0.00     0.077 C 
HETATM    9  C17 UNL     1      10.478  23.692  49.753  1.00  0.00     0.050 C 
HETATM   10  C18 UNL     1       8.369  22.780  48.925  1.00  0.00     0.049 C 
HETATM   11  C19 UNL     1       8.425  22.216  47.531  1.00  0.00     0.022 C 
HETATM   12  C20 UNL     1       7.142  21.969  46.875  1.00  0.00     0.013 C 
HETATM   13  C21 UNL     1       9.424  21.118  47.650  1.00  0.00     0.091 C 
HETATM   14  C22 UNL     1      10.137  21.053  46.307  1.00  0.00     0.049 C 
HETATM   15  O5  UNL     1      10.379  21.752  48.461  1.00  0.00    -0.363 OA
ENDROOT
BRANCH   2  16
HETATM   16  C5  UNL     1      10.194  17.565  48.100  1.00  0.00     0.074 C 
BRANCH  16  17
HETATM   17  C6  UNL     1      11.433  17.218  47.312  1.00  0.00    -0.049 A 
HETATM   18  C7  UNL     1      12.130  16.079  47.560  1.00  0.00     0.015 A 
HETATM   19  C8  UNL     1      13.217  15.805  46.788  1.00  0.00     0.050 A 
HETATM   20  S1  UNL     1      13.270  17.125  45.722  1.00  0.00    -0.113 SA
HETATM   21  C9  UNL     1      11.916  17.983  46.286  1.00  0.00     0.056 A 
ENDBRANCH  16  17
ENDBRANCH   2  16
BRANCH   1  22
HETATM   22  O2  UNL     1       7.886  19.792  48.995  1.00  0.00    -0.311 OA
BRANCH  22  23
HETATM   23  C2  UNL     1       7.316  18.749  49.633  1.00  0.00     0.255 C 
HETATM   24  C1  UNL     1       6.557  17.645  48.993  1.00  0.00     0.126 C 
HETATM   25  O1  UNL     1       7.465  18.761  50.852  1.00  0.00    -0.266 OA
ENDBRANCH  22  23
ENDBRANCH   1  22
BRANCH   4  26
HETATM   26  C11 UNL     1      13.651  19.540  49.596  1.00  0.00     0.178 C 
HETATM   27  C12 UNL     1      14.611  20.670  49.870  1.00  0.00     0.099 C 
HETATM   28  O4  UNL     1      14.050  18.430  49.246  1.00  0.00    -0.291 OA
ENDBRANCH   4  26
TORSDOF 5
ENDMDL
