MODEL 1
REMARK VINA RESULT: -7.807232692      0.000      0.000
REMARK  6 active torsions:
REMARK  status: ('A' for Active; 'I' for Inactive)
REMARK    1  A    between atoms: C2_2  and  C4_4 
REMARK    2  A    between atoms: C6_8  and  O3_9 
REMARK    3  A    between atoms: O3_9  and  C7_10 
REMARK    4  A    between atoms: C7_10  and  C8_12 
REMARK    5  A    between atoms: C17_21  and  O5_22 
REMARK    6  A    between atoms: O5_22  and  C18_23 
ROOT
HETATM    1  C4  UNL     1      11.591  17.482  46.408  1.00  0.00     0.122 C 
HETATM    2  C5  UNL     1      11.391  16.830  47.751  1.00  0.00     0.270 C 
HETATM    3  O1  UNL     1      10.985  15.639  47.778  1.00  0.00    -0.264 OA
HETATM    4  O2  UNL     1      11.661  17.572  48.886  1.00  0.00    -0.288 OA
HETATM    5  C6  UNL     1      11.076  18.902  49.042  1.00  0.00     0.284 C 
HETATM    6  C10 UNL     1      10.467  19.206  47.735  1.00  0.00     0.064 C 
HETATM    7  C11 UNL     1       9.874  20.557  47.527  1.00  0.00    -0.006 C 
HETATM    8  C12 UNL     1       9.993  20.729  46.002  1.00  0.00     0.015 C 
HETATM    9  C13 UNL     1      10.886  19.687  45.470  1.00  0.00     0.012 C 
HETATM   10  C14 UNL     1      11.493  18.977  46.649  1.00  0.00    -0.018 C 
HETATM   11  C15 UNL     1      12.850  19.504  46.947  1.00  0.00     0.017 C 
HETATM   12  C16 UNL     1      10.631  21.677  48.121  1.00  0.00     0.047 C 
HETATM   13  C17 UNL     1       9.840  22.883  48.552  1.00  0.00     0.136 C 
HETATM   14  C20 UNL     1       8.618  23.086  47.714  1.00  0.00     0.060 C 
HETATM   15  C21 UNL     1       7.854  21.817  47.895  1.00  0.00    -0.021 C 
HETATM   16  C22 UNL     1       8.421  20.619  47.812  1.00  0.00    -0.078 C 
HETATM   17  C23 UNL     1       7.576  19.393  47.996  1.00  0.00     0.044 C 
ENDROOT
BRANCH   5  18
HETATM   18  O3  UNL     1      10.233  18.899  50.155  1.00  0.00    -0.289 OA
BRANCH  18  19
HETATM   19  C7  UNL     1      10.475  19.509  51.360  1.00  0.00     0.260 C 
HETATM   20  O4  UNL     1      11.135  18.846  52.216  1.00  0.00    -0.265 OA
BRANCH  19  21
HETATM   21  C8  UNL     1       9.996  20.893  51.676  1.00  0.00     0.107 C 
HETATM   22  C9  UNL     1       8.493  20.881  51.507  1.00  0.00     0.015 C 
ENDBRANCH  19  21
ENDBRANCH  18  19
ENDBRANCH   5  18
BRANCH  13  23
HETATM   23  O5  UNL     1      10.665  24.007  48.664  1.00  0.00    -0.316 OA
BRANCH  23  24
HETATM   24  C18 UNL     1      10.658  25.059  47.758  1.00  0.00     0.255 C 
HETATM   25  C19 UNL     1      11.362  25.031  46.460  1.00  0.00     0.126 C 
HETATM   26  O6  UNL     1      10.009  26.066  48.094  1.00  0.00    -0.266 OA
ENDBRANCH  23  24
ENDBRANCH  13  23
BRANCH   1  27
HETATM   27  C2  UNL     1      12.831  17.043  45.772  1.00  0.00    -0.079 C 
HETATM   28  C1  UNL     1      12.943  17.080  44.457  1.00  0.00     0.015 C 
HETATM   29  C3  UNL     1      13.963  16.558  46.594  1.00  0.00     0.043 C 
ENDBRANCH   1  27
TORSDOF 6
ENDMDL
MODEL 2
REMARK VINA RESULT: -7.100799882      1.976      2.506
REMARK  6 active torsions:
REMARK  status: ('A' for Active; 'I' for Inactive)
REMARK    1  A    between atoms: C2_2  and  C4_4 
REMARK    2  A    between atoms: C6_8  and  O3_9 
REMARK    3  A    between atoms: O3_9  and  C7_10 
REMARK    4  A    between atoms: C7_10  and  C8_12 
REMARK    5  A    between atoms: C17_21  and  O5_22 
REMARK    6  A    between atoms: O5_22  and  C18_23 
ROOT
HETATM    1  C4  UNL     1      11.316  18.582  47.156  1.00  0.00     0.122 C 
HETATM    2  C5  UNL     1      10.450  17.816  48.122  1.00  0.00     0.270 C 
HETATM    3  O1  UNL     1      10.168  16.620  47.846  1.00  0.00    -0.264 OA
HETATM    4  O2  UNL     1      10.008  18.462  49.261  1.00  0.00    -0.288 OA
HETATM    5  C6  UNL     1       9.355  19.765  49.150  1.00  0.00     0.284 C 
HETATM    6  C10 UNL     1       9.547  20.170  47.747  1.00  0.00     0.064 C 
HETATM    7  C11 UNL     1       9.086  21.524  47.330  1.00  0.00    -0.006 C 
HETATM    8  C12 UNL     1      10.013  21.827  46.139  1.00  0.00     0.015 C 
HETATM    9  C13 UNL     1      11.111  20.847  46.125  1.00  0.00     0.012 C 
HETATM   10  C14 UNL     1      11.012  20.049  47.396  1.00  0.00    -0.018 C 
HETATM   11  C15 UNL     1      11.948  20.570  48.426  1.00  0.00     0.017 C 
HETATM   12  C16 UNL     1       9.324  22.601  48.312  1.00  0.00     0.047 C 
HETATM   13  C17 UNL     1       8.357  23.754  48.309  1.00  0.00     0.136 C 
HETATM   14  C20 UNL     1       7.786  24.009  46.949  1.00  0.00     0.060 C 
HETATM   15  C21 UNL     1       7.126  22.717  46.599  1.00  0.00    -0.021 C 
HETATM   16  C22 UNL     1       7.715  21.539  46.769  1.00  0.00    -0.078 C 
HETATM   17  C23 UNL     1       6.983  20.289  46.379  1.00  0.00     0.044 C 
ENDROOT
BRANCH   5  18
HETATM   18  O3  UNL     1       8.042  19.655  49.610  1.00  0.00    -0.289 OA
BRANCH  18  19
HETATM   19  C7  UNL     1       7.604  18.859  50.639  1.00  0.00     0.260 C 
HETATM   20  O4  UNL     1       8.074  19.102  51.792  1.00  0.00    -0.265 OA
BRANCH  19  21
HETATM   21  C8  UNL     1       6.618  17.749  50.439  1.00  0.00     0.107 C 
HETATM   22  C9  UNL     1       6.100  17.878  49.025  1.00  0.00     0.015 C 
ENDBRANCH  19  21
ENDBRANCH  18  19
ENDBRANCH   5  18
BRANCH  13  23
HETATM   23  O5  UNL     1       8.916  24.877  48.927  1.00  0.00    -0.316 OA
BRANCH  23  24
HETATM   24  C18 UNL     1       8.439  25.418  50.114  1.00  0.00     0.255 C 
HETATM   25  C19 UNL     1       8.013  26.824  50.264  1.00  0.00     0.126 C 
HETATM   26  O6  UNL     1       8.382  24.642  51.086  1.00  0.00    -0.266 OA
ENDBRANCH  23  24
ENDBRANCH  13  23
BRANCH   1  27
HETATM   27  C2  UNL     1      12.724  18.217  47.285  1.00  0.00    -0.079 C 
HETATM   28  C1  UNL     1      13.513  18.261  46.227  1.00  0.00     0.015 C 
HETATM   29  C3  UNL     1      13.274  17.801  48.595  1.00  0.00     0.043 C 
ENDBRANCH   1  27
TORSDOF 6
ENDMDL
MODEL 3
REMARK VINA RESULT: -7.055805583      2.736      6.052
REMARK  6 active torsions:
REMARK  status: ('A' for Active; 'I' for Inactive)
REMARK    1  A    between atoms: C2_2  and  C4_4 
REMARK    2  A    between atoms: C6_8  and  O3_9 
REMARK    3  A    between atoms: O3_9  and  C7_10 
REMARK    4  A    between atoms: C7_10  and  C8_12 
REMARK    5  A    between atoms: C17_21  and  O5_22 
REMARK    6  A    between atoms: O5_22  and  C18_23 
ROOT
HETATM    1  C4  UNL     1      10.606  23.697  45.605  1.00  0.00     0.122 C 
HETATM    2  C5  UNL     1      10.593  24.605  46.807  1.00  0.00     0.270 C 
HETATM    3  O1  UNL     1      11.554  25.405  46.956  1.00  0.00    -0.264 OA
HETATM    4  O2  UNL     1       9.531  24.514  47.686  1.00  0.00    -0.288 OA
HETATM    5  C6  UNL     1       9.136  23.211  48.217  1.00  0.00     0.284 C 
HETATM    6  C10 UNL     1       9.916  22.231  47.441  1.00  0.00     0.064 C 
HETATM    7  C11 UNL     1       9.658  20.781  47.667  1.00  0.00    -0.006 C 
HETATM    8  C12 UNL     1      10.072  20.166  46.318  1.00  0.00     0.015 C 
HETATM    9  C13 UNL     1      10.230  21.244  45.328  1.00  0.00     0.012 C 
HETATM   10  C14 UNL     1       9.732  22.511  45.967  1.00  0.00    -0.018 C 
HETATM   11  C15 UNL     1       8.334  22.802  45.555  1.00  0.00     0.017 C 
HETATM   12  C16 UNL     1       8.241  20.415  47.860  1.00  0.00     0.047 C 
HETATM   13  C17 UNL     1       7.957  19.215  48.723  1.00  0.00     0.136 C 
HETATM   14  C20 UNL     1       9.054  18.199  48.657  1.00  0.00     0.060 C 
HETATM   15  C21 UNL     1      10.256  18.953  49.117  1.00  0.00    -0.021 C 
HETATM   16  C22 UNL     1      10.561  20.165  48.668  1.00  0.00    -0.078 C 
HETATM   17  C23 UNL     1      11.797  20.848  49.176  1.00  0.00     0.044 C 
ENDROOT
BRANCH   5  18
HETATM   18  O3  UNL     1       9.310  23.214  49.602  1.00  0.00    -0.289 OA
BRANCH  18  19
HETATM   19  C7  UNL     1       8.319  23.111  50.546  1.00  0.00     0.260 C 
HETATM   20  O4  UNL     1       7.590  24.132  50.726  1.00  0.00    -0.265 OA
BRANCH  19  21
HETATM   21  C8  UNL     1       8.087  21.862  51.341  1.00  0.00     0.107 C 
HETATM   22  C9  UNL     1       9.433  21.432  51.878  1.00  0.00     0.015 C 
ENDBRANCH  19  21
ENDBRANCH  18  19
ENDBRANCH   5  18
BRANCH  13  23
HETATM   23  O5  UNL     1       6.678  18.709  48.470  1.00  0.00    -0.316 OA
BRANCH  23  24
HETATM   24  C18 UNL     1       6.107  17.667  49.189  1.00  0.00     0.255 C 
HETATM   25  C19 UNL     1       5.525  16.461  48.567  1.00  0.00     0.126 C 
HETATM   26  O6  UNL     1       6.105  17.793  50.427  1.00  0.00    -0.266 OA
ENDBRANCH  23  24
ENDBRANCH  13  23
BRANCH   1  27
HETATM   27  C2  UNL     1      10.209  24.404  44.389  1.00  0.00    -0.079 C 
HETATM   28  C1  UNL     1       9.388  25.435  44.468  1.00  0.00     0.015 C 
HETATM   29  C3  UNL     1      10.724  23.973  43.070  1.00  0.00     0.043 C 
ENDBRANCH   1  27
TORSDOF 6
ENDMDL
MODEL 4
REMARK VINA RESULT: -7.054213680      1.802      5.930
REMARK  6 active torsions:
REMARK  status: ('A' for Active; 'I' for Inactive)
REMARK    1  A    between atoms: C2_2  and  C4_4 
REMARK    2  A    between atoms: C6_8  and  O3_9 
REMARK    3  A    between atoms: O3_9  and  C7_10 
REMARK    4  A    between atoms: C7_10  and  C8_12 
REMARK    5  A    between atoms: C17_21  and  O5_22 
REMARK    6  A    between atoms: O5_22  and  C18_23 
ROOT
HETATM    1  C4  UNL     1       9.260  22.345  47.813  1.00  0.00     0.122 C 
HETATM    2  C5  UNL     1       8.413  22.039  49.021  1.00  0.00     0.270 C 
HETATM    3  O1  UNL     1       8.080  22.995  49.769  1.00  0.00    -0.264 OA
HETATM    4  O2  UNL     1       8.046  20.727  49.249  1.00  0.00    -0.288 OA
HETATM    5  C6  UNL     1       9.063  19.677  49.249  1.00  0.00     0.284 C 
HETATM    6  C10 UNL     1      10.287  20.332  48.756  1.00  0.00     0.064 C 
HETATM    7  C11 UNL     1      11.498  19.493  48.531  1.00  0.00    -0.006 C 
HETATM    8  C12 UNL     1      12.245  20.292  47.448  1.00  0.00     0.015 C 
HETATM    9  C13 UNL     1      11.341  21.314  46.896  1.00  0.00     0.012 C 
HETATM   10  C14 UNL     1       9.974  21.052  47.465  1.00  0.00    -0.018 C 
HETATM   11  C15 UNL     1       9.137  20.285  46.506  1.00  0.00     0.017 C 
HETATM   12  C16 UNL     1      11.243  18.161  47.946  1.00  0.00     0.047 C 
HETATM   13  C17 UNL     1      12.206  17.062  48.304  1.00  0.00     0.136 C 
HETATM   14  C20 UNL     1      13.586  17.583  48.562  1.00  0.00     0.060 C 
HETATM   15  C21 UNL     1      13.391  18.549  49.683  1.00  0.00    -0.021 C 
HETATM   16  C22 UNL     1      12.419  19.454  49.691  1.00  0.00    -0.078 C 
HETATM   17  C23 UNL     1      12.302  20.396  50.853  1.00  0.00     0.044 C 
ENDROOT
BRANCH   5  18
HETATM   18  O3  UNL     1       9.114  19.095  50.517  1.00  0.00    -0.289 OA
BRANCH  18  19
HETATM   19  C7  UNL     1       8.406  19.492  51.623  1.00  0.00     0.260 C 
HETATM   20  O4  UNL     1       7.253  18.985  51.779  1.00  0.00    -0.265 OA
BRANCH  19  21
HETATM   21  C8  UNL     1       8.943  20.475  52.618  1.00  0.00     0.107 C 
HETATM   22  C9  UNL     1       7.766  21.290  53.103  1.00  0.00     0.015 C 
ENDBRANCH  19  21
ENDBRANCH  18  19
ENDBRANCH   5  18
BRANCH  13  23
HETATM   23  O5  UNL     1      12.141  16.018  47.376  1.00  0.00    -0.316 OA
BRANCH  23  24
HETATM   24  C18 UNL     1      13.138  15.753  46.446  1.00  0.00     0.255 C 
HETATM   25  C19 UNL     1      13.203  16.377  45.109  1.00  0.00     0.126 C 
HETATM   26  O6  UNL     1      14.010  14.937  46.795  1.00  0.00    -0.266 OA
ENDBRANCH  23  24
ENDBRANCH  13  23
BRANCH   1  27
HETATM   27  C2  UNL     1       8.468  22.921  46.729  1.00  0.00    -0.079 C 
HETATM   28  C1  UNL     1       9.038  23.740  45.865  1.00  0.00     0.015 C 
HETATM   29  C3  UNL     1       7.032  22.589  46.592  1.00  0.00     0.043 C 
ENDBRANCH   1  27
TORSDOF 6
ENDMDL
MODEL 5
REMARK VINA RESULT: -7.011661266      1.948      6.060
REMARK  6 active torsions:
REMARK  status: ('A' for Active; 'I' for Inactive)
REMARK    1  A    between atoms: C2_2  and  C4_4 
REMARK    2  A    between atoms: C6_8  and  O3_9 
REMARK    3  A    between atoms: O3_9  and  C7_10 
REMARK    4  A    between atoms: C7_10  and  C8_12 
REMARK    5  A    between atoms: C17_21  and  O5_22 
REMARK    6  A    between atoms: O5_22  and  C18_23 
ROOT
HETATM    1  C4  UNL     1       9.591  22.161  48.028  1.00  0.00     0.122 C 
HETATM    2  C5  UNL     1       8.473  21.740  48.946  1.00  0.00     0.270 C 
HETATM    3  O1  UNL     1       8.009  22.594  49.746  1.00  0.00    -0.264 OA
HETATM    4  O2  UNL     1       8.014  20.439  48.865  1.00  0.00    -0.288 OA
HETATM    5  C6  UNL     1       8.961  19.329  48.922  1.00  0.00     0.284 C 
HETATM    6  C10 UNL     1      10.291  19.957  48.834  1.00  0.00     0.064 C 
HETATM    7  C11 UNL     1      11.488  19.074  48.754  1.00  0.00    -0.006 C 
HETATM    8  C12 UNL     1      12.499  19.969  48.015  1.00  0.00     0.015 C 
HETATM    9  C13 UNL     1      11.790  21.128  47.449  1.00  0.00     0.012 C 
HETATM   10  C14 UNL     1      10.318  20.886  47.643  1.00  0.00    -0.018 C 
HETATM   11  C15 UNL     1       9.702  20.338  46.406  1.00  0.00     0.017 C 
HETATM   12  C16 UNL     1      11.328  17.868  47.915  1.00  0.00     0.047 C 
HETATM   13  C17 UNL     1      12.139  16.660  48.296  1.00  0.00     0.136 C 
HETATM   14  C20 UNL     1      13.437  17.030  48.942  1.00  0.00     0.060 C 
HETATM   15  C21 UNL     1      13.020  17.828  50.133  1.00  0.00    -0.021 C 
HETATM   16  C22 UNL     1      12.108  18.791  50.070  1.00  0.00    -0.078 C 
HETATM   17  C23 UNL     1      11.756  19.552  51.314  1.00  0.00     0.044 C 
ENDROOT
BRANCH   5  18
HETATM   18  O3  UNL     1       8.691  18.560  50.056  1.00  0.00    -0.289 OA
BRANCH  18  19
HETATM   19  C7  UNL     1       7.484  18.459  50.701  1.00  0.00     0.260 C 
HETATM   20  O4  UNL     1       7.259  19.293  51.629  1.00  0.00    -0.265 OA
BRANCH  19  21
HETATM   21  C8  UNL     1       6.462  17.423  50.346  1.00  0.00     0.107 C 
HETATM   22  C9  UNL     1       5.881  17.826  49.010  1.00  0.00     0.015 C 
ENDBRANCH  19  21
ENDBRANCH  18  19
ENDBRANCH   5  18
BRANCH  13  23
HETATM   23  O5  UNL     1      12.255  15.776  47.218  1.00  0.00    -0.316 OA
BRANCH  23  24
HETATM   24  C18 UNL     1      13.356  15.736  46.373  1.00  0.00     0.255 C 
HETATM   25  C19 UNL     1      13.496  16.574  45.164  1.00  0.00     0.126 C 
HETATM   26  O6  UNL     1      14.256  14.935  46.683  1.00  0.00    -0.266 OA
ENDBRANCH  23  24
ENDBRANCH  13  23
BRANCH   1  27
HETATM   27  C2  UNL     1       9.099  22.952  46.903  1.00  0.00    -0.079 C 
HETATM   28  C1  UNL     1       9.884  23.852  46.341  1.00  0.00     0.015 C 
HETATM   29  C3  UNL     1       7.726  22.749  46.387  1.00  0.00     0.043 C 
ENDBRANCH   1  27
TORSDOF 6
ENDMDL
