MODEL 1
REMARK VINA RESULT: -7.716985000      0.000      0.000
REMARK  6 active torsions:
REMARK  status: ('A' for Active; 'I' for Inactive)
REMARK    1  A    between atoms: C2_2  and  C3_3 
REMARK    2  A    between atoms: C3_3  and  C4_4 
REMARK    3  A    between atoms: C4_4  and  C5_5 
REMARK    4  A    between atoms: C5_5  and  C6_6 
REMARK    5  A    between atoms: C6_6  and  O2_8 
REMARK    6  A    between atoms: O2_8  and  C7_9 
ROOT
HETATM    1  C7  UNL     1      11.135  19.154  48.088  1.00  0.00     0.233 C 
HETATM    2  O3  UNL     1      11.015  17.738  48.221  1.00  0.00    -0.339 OA
HETATM    3  C8  UNL     1      11.983  17.289  47.369  1.00  0.00     0.189 C 
HETATM    4  C9  UNL     1      11.981  15.883  46.962  1.00  0.00     0.064 C 
HETATM    5  C10 UNL     1      13.484  15.585  46.857  1.00  0.00     0.174 C 
HETATM    6  O4  UNL     1      14.142  16.762  47.257  1.00  0.00    -0.353 OA
HETATM    7  C11 UNL     1      13.288  17.363  48.180  1.00  0.00     0.187 C 
HETATM    8  C12 UNL     1      13.225  16.428  49.370  1.00  0.00     0.082 C 
HETATM    9  O5  UNL     1      13.505  18.645  48.478  1.00  0.00    -0.340 OA
HETATM   10  C13 UNL     1      12.550  19.589  48.343  1.00  0.00     0.219 C 
HETATM   11  C14 UNL     1      12.629  20.482  49.591  1.00  0.00     0.155 C 
HETATM   12  C15 UNL     1      14.128  20.571  49.916  1.00  0.00     0.042 C 
HETATM   13  O6  UNL     1      12.025  19.923  50.686  1.00  0.00    -0.351 OA
HETATM   14  C16 UNL     1      10.831  19.313  50.485  1.00  0.00     0.298 C 
HETATM   15  O7  UNL     1       9.794  19.685  51.294  1.00  0.00    -0.323 OA
HETATM   16  C17 UNL     1       8.639  19.755  50.515  1.00  0.00     0.161 C 
HETATM   17  C18 UNL     1       8.259  21.230  50.439  1.00  0.00     0.078 C 
HETATM   18  C19 UNL     1       7.485  19.001  51.087  1.00  0.00     0.078 C 
HETATM   19  O8  UNL     1       9.000  19.285  49.229  1.00  0.00    -0.340 OA
HETATM   20  C20 UNL     1      10.276  19.769  49.126  1.00  0.00     0.245 C 
ENDROOT
BRANCH   1  21
HETATM   21  O2  UNL     1      10.701  19.368  46.763  1.00  0.00    -0.277 OA
BRANCH  21  22
HETATM   22  C6  UNL     1      11.097  20.428  45.991  1.00  0.00     0.261 C 
HETATM   23  O1  UNL     1      10.622  21.556  46.252  1.00  0.00    -0.265 OA
BRANCH  22  24
HETATM   24  C5  UNL     1      12.077  20.199  44.871  1.00  0.00     0.111 C 
BRANCH  24  25
HETATM   25  C4  UNL     1      11.540  19.148  43.953  1.00  0.00     0.010 C 
BRANCH  25  26
HETATM   26  C3  UNL     1      12.303  17.903  43.814  1.00  0.00     0.000 C 
BRANCH  26  27
HETATM   27  C2  UNL     1      12.452  17.251  42.495  1.00  0.00    -0.005 C 
HETATM   28  C1  UNL     1      13.467  16.176  42.387  1.00  0.00     0.005 C 
ENDBRANCH  26  27
ENDBRANCH  25  26
ENDBRANCH  24  25
ENDBRANCH  22  24
ENDBRANCH  21  22
ENDBRANCH   1  21
TORSDOF 6
ENDMDL
MODEL 2
REMARK VINA RESULT: -7.589851649      1.912      5.294
REMARK  6 active torsions:
REMARK  status: ('A' for Active; 'I' for Inactive)
REMARK    1  A    between atoms: C2_2  and  C3_3 
REMARK    2  A    between atoms: C3_3  and  C4_4 
REMARK    3  A    between atoms: C4_4  and  C5_5 
REMARK    4  A    between atoms: C5_5  and  C6_6 
REMARK    5  A    between atoms: C6_6  and  O2_8 
REMARK    6  A    between atoms: O2_8  and  C7_9 
ROOT
HETATM    1  C7  UNL     1      10.013  21.185  48.600  1.00  0.00     0.233 C 
HETATM    2  O3  UNL     1      10.424  22.296  49.397  1.00  0.00    -0.339 OA
HETATM    3  C8  UNL     1       9.325  23.105  49.346  1.00  0.00     0.189 C 
HETATM    4  C9  UNL     1       9.445  24.500  49.769  1.00  0.00     0.064 C 
HETATM    5  C10 UNL     1       8.073  24.752  50.410  1.00  0.00     0.174 C 
HETATM    6  O4  UNL     1       7.384  23.527  50.348  1.00  0.00    -0.353 OA
HETATM    7  C11 UNL     1       8.374  22.548  50.418  1.00  0.00     0.187 C 
HETATM    8  C12 UNL     1       8.996  22.672  51.794  1.00  0.00     0.082 C 
HETATM    9  O5  UNL     1       8.041  21.308  50.057  1.00  0.00    -0.340 OA
HETATM   10  C13 UNL     1       8.710  20.631  49.101  1.00  0.00     0.219 C 
HETATM   11  C14 UNL     1       8.890  19.195  49.617  1.00  0.00     0.155 C 
HETATM   12  C15 UNL     1       7.595  18.887  50.384  1.00  0.00     0.042 C 
HETATM   13  O6  UNL     1       9.914  19.078  50.519  1.00  0.00    -0.351 OA
HETATM   14  C16 UNL     1      11.063  19.740  50.236  1.00  0.00     0.298 C 
HETATM   15  O7  UNL     1      12.226  19.021  50.269  1.00  0.00    -0.323 OA
HETATM   16  C17 UNL     1      13.022  19.435  49.202  1.00  0.00     0.161 C 
HETATM   17  C18 UNL     1      13.083  18.262  48.229  1.00  0.00     0.078 C 
HETATM   18  C19 UNL     1      14.417  19.789  49.600  1.00  0.00     0.078 C 
HETATM   19  O8  UNL     1      12.345  20.523  48.601  1.00  0.00    -0.340 OA
HETATM   20  C20 UNL     1      11.042  20.131  48.749  1.00  0.00     0.245 C 
ENDROOT
BRANCH   1  21
HETATM   21  O2  UNL     1       9.936  21.754  47.312  1.00  0.00    -0.277 OA
BRANCH  21  22
HETATM   22  C6  UNL     1       9.914  21.023  46.154  1.00  0.00     0.261 C 
HETATM   23  O1  UNL     1       8.867  20.400  45.871  1.00  0.00    -0.265 OA
BRANCH  22  24
HETATM   24  C5  UNL     1      11.136  20.999  45.274  1.00  0.00     0.111 C 
BRANCH  24  25
HETATM   25  C4  UNL     1      11.567  19.583  45.067  1.00  0.00     0.010 C 
BRANCH  25  26
HETATM   26  C3  UNL     1      11.551  19.054  43.699  1.00  0.00     0.000 C 
BRANCH  26  27
HETATM   27  C2  UNL     1      12.261  17.801  43.364  1.00  0.00    -0.005 C 
HETATM   28  C1  UNL     1      12.837  17.032  44.493  1.00  0.00     0.005 C 
ENDBRANCH  26  27
ENDBRANCH  25  26
ENDBRANCH  24  25
ENDBRANCH  22  24
ENDBRANCH  21  22
ENDBRANCH   1  21
TORSDOF 6
ENDMDL
MODEL 3
REMARK VINA RESULT: -7.535191237      1.603      2.299
REMARK  6 active torsions:
REMARK  status: ('A' for Active; 'I' for Inactive)
REMARK    1  A    between atoms: C2_2  and  C3_3 
REMARK    2  A    between atoms: C3_3  and  C4_4 
REMARK    3  A    between atoms: C4_4  and  C5_5 
REMARK    4  A    between atoms: C5_5  and  C6_6 
REMARK    5  A    between atoms: C6_6  and  O2_8 
REMARK    6  A    between atoms: O2_8  and  C7_9 
ROOT
HETATM    1  C7  UNL     1      10.366  18.987  48.388  1.00  0.00     0.233 C 
HETATM    2  O3  UNL     1      10.893  17.896  49.142  1.00  0.00    -0.339 OA
HETATM    3  C8  UNL     1      12.237  18.037  48.947  1.00  0.00     0.189 C 
HETATM    4  C9  UNL     1      13.129  16.928  49.287  1.00  0.00     0.064 C 
HETATM    5  C10 UNL     1      14.374  17.671  49.795  1.00  0.00     0.174 C 
HETATM    6  O4  UNL     1      14.052  19.040  49.755  1.00  0.00    -0.353 OA
HETATM    7  C11 UNL     1      12.676  19.099  49.971  1.00  0.00     0.187 C 
HETATM    8  C12 UNL     1      12.447  18.599  51.382  1.00  0.00     0.082 C 
HETATM    9  O5  UNL     1      12.051  20.236  49.664  1.00  0.00    -0.340 OA
HETATM   10  C13 UNL     1      11.006  20.279  48.813  1.00  0.00     0.219 C 
HETATM   11  C14 UNL     1       9.965  21.222  49.435  1.00  0.00     0.155 C 
HETATM   12  C15 UNL     1      10.791  22.329  50.109  1.00  0.00     0.042 C 
HETATM   13  O6  UNL     1       9.229  20.627  50.425  1.00  0.00    -0.351 OA
HETATM   14  C16 UNL     1       8.799  19.362  50.195  1.00  0.00     0.298 C 
HETATM   15  O7  UNL     1       7.467  19.111  50.372  1.00  0.00    -0.323 OA
HETATM   16  C17 UNL     1       7.047  18.259  49.350  1.00  0.00     0.161 C 
HETATM   17  C18 UNL     1       6.113  19.077  48.464  1.00  0.00     0.078 C 
HETATM   18  C19 UNL     1       6.301  17.062  49.839  1.00  0.00     0.078 C 
HETATM   19  O8  UNL     1       8.210  17.906  48.625  1.00  0.00    -0.340 OA
HETATM   20  C20 UNL     1       8.920  19.074  48.690  1.00  0.00     0.245 C 
ENDROOT
BRANCH   1  21
HETATM   21  O2  UNL     1      10.669  18.608  47.064  1.00  0.00    -0.277 OA
BRANCH  21  22
HETATM   22  C6  UNL     1      10.986  19.495  46.068  1.00  0.00     0.261 C 
HETATM   23  O1  UNL     1      10.099  20.289  45.684  1.00  0.00    -0.265 OA
BRANCH  22  24
HETATM   24  C5  UNL     1      12.373  19.479  45.480  1.00  0.00     0.111 C 
BRANCH  24  25
HETATM   25  C4  UNL     1      12.726  18.081  45.088  1.00  0.00     0.010 C 
BRANCH  25  26
HETATM   26  C3  UNL     1      12.364  17.634  43.738  1.00  0.00     0.000 C 
BRANCH  26  27
HETATM   27  C2  UNL     1      13.142  16.579  43.056  1.00  0.00    -0.005 C 
HETATM   28  C1  UNL     1      14.093  15.802  43.886  1.00  0.00     0.005 C 
ENDBRANCH  26  27
ENDBRANCH  25  26
ENDBRANCH  24  25
ENDBRANCH  22  24
ENDBRANCH  21  22
ENDBRANCH   1  21
TORSDOF 6
ENDMDL
MODEL 4
REMARK VINA RESULT: -7.353087253      1.960      5.202
REMARK  6 active torsions:
REMARK  status: ('A' for Active; 'I' for Inactive)
REMARK    1  A    between atoms: C2_2  and  C3_3 
REMARK    2  A    between atoms: C3_3  and  C4_4 
REMARK    3  A    between atoms: C4_4  and  C5_5 
REMARK    4  A    between atoms: C5_5  and  C6_6 
REMARK    5  A    between atoms: C6_6  and  O2_8 
REMARK    6  A    between atoms: O2_8  and  C7_9 
ROOT
HETATM    1  C7  UNL     1      12.792  18.171  46.836  1.00  0.00     0.233 C 
HETATM    2  O3  UNL     1      13.727  18.530  47.853  1.00  0.00    -0.339 OA
HETATM    3  C8  UNL     1      13.003  19.406  48.610  1.00  0.00     0.189 C 
HETATM    4  C9  UNL     1      13.696  20.258  49.576  1.00  0.00     0.064 C 
HETATM    5  C10 UNL     1      12.669  20.341  50.715  1.00  0.00     0.174 C 
HETATM    6  O4  UNL     1      11.593  19.522  50.328  1.00  0.00    -0.353 OA
HETATM    7  C11 UNL     1      12.161  18.519  49.544  1.00  0.00     0.187 C 
HETATM    8  C12 UNL     1      13.059  17.719  50.465  1.00  0.00     0.082 C 
HETATM    9  O5  UNL     1      11.342  17.794  48.781  1.00  0.00    -0.340 OA
HETATM   10  C13 UNL     1      11.512  17.678  47.447  1.00  0.00     0.219 C 
HETATM   11  C14 UNL     1      11.274  16.202  47.096  1.00  0.00     0.155 C 
HETATM   12  C15 UNL     1      10.143  15.752  48.034  1.00  0.00     0.042 C 
HETATM   13  O6  UNL     1      12.353  15.406  47.376  1.00  0.00    -0.351 OA
HETATM   14  C16 UNL     1      13.575  15.890  47.046  1.00  0.00     0.298 C 
HETATM   15  O7  UNL     1      14.386  15.085  46.295  1.00  0.00    -0.323 OA
HETATM   16  C17 UNL     1      15.037  15.882  45.354  1.00  0.00     0.161 C 
HETATM   17  C18 UNL     1      14.474  15.490  43.992  1.00  0.00     0.078 C 
HETATM   18  C19 UNL     1      16.517  15.685  45.325  1.00  0.00     0.078 C 
HETATM   19  O8  UNL     1      14.682  17.219  45.653  1.00  0.00    -0.340 OA
HETATM   20  C20 UNL     1      13.386  17.057  46.064  1.00  0.00     0.245 C 
ENDROOT
BRANCH   1  21
HETATM   21  O2  UNL     1      12.655  19.378  46.118  1.00  0.00    -0.277 OA
BRANCH  21  22
HETATM   22  C6  UNL     1      11.601  19.659  45.290  1.00  0.00     0.261 C 
HETATM   23  O1  UNL     1      10.514  19.991  45.814  1.00  0.00    -0.265 OA
BRANCH  22  24
HETATM   24  C5  UNL     1      11.788  19.561  43.799  1.00  0.00     0.111 C 
BRANCH  24  25
HETATM   25  C4  UNL     1      11.689  18.129  43.383  1.00  0.00     0.010 C 
BRANCH  25  26
HETATM   26  C3  UNL     1      12.221  17.757  42.068  1.00  0.00     0.000 C 
BRANCH  26  27
HETATM   27  C2  UNL     1      11.343  17.163  41.037  1.00  0.00    -0.005 C 
HETATM   28  C1  UNL     1      11.310  17.832  39.715  1.00  0.00     0.005 C 
ENDBRANCH  26  27
ENDBRANCH  25  26
ENDBRANCH  24  25
ENDBRANCH  22  24
ENDBRANCH  21  22
ENDBRANCH   1  21
TORSDOF 6
ENDMDL
MODEL 5
REMARK VINA RESULT: -7.258590441      3.958      6.777
REMARK  6 active torsions:
REMARK  status: ('A' for Active; 'I' for Inactive)
REMARK    1  A    between atoms: C2_2  and  C3_3 
REMARK    2  A    between atoms: C3_3  and  C4_4 
REMARK    3  A    between atoms: C4_4  and  C5_5 
REMARK    4  A    between atoms: C5_5  and  C6_6 
REMARK    5  A    between atoms: C6_6  and  O2_8 
REMARK    6  A    between atoms: O2_8  and  C7_9 
ROOT
HETATM    1  C7  UNL     1       9.131  21.310  49.638  1.00  0.00     0.233 C 
HETATM    2  O3  UNL     1       9.578  22.585  49.178  1.00  0.00    -0.339 OA
HETATM    3  C8  UNL     1       8.400  23.208  48.878  1.00  0.00     0.189 C 
HETATM    4  C9  UNL     1       8.423  24.427  48.069  1.00  0.00     0.064 C 
HETATM    5  C10 UNL     1       7.267  25.231  48.682  1.00  0.00     0.174 C 
HETATM    6  O4  UNL     1       6.782  24.459  49.754  1.00  0.00    -0.353 OA
HETATM    7  C11 UNL     1       7.887  23.751  50.223  1.00  0.00     0.187 C 
HETATM    8  C12 UNL     1       8.846  24.783  50.778  1.00  0.00     0.082 C 
HETATM    9  O5  UNL     1       7.657  22.706  51.018  1.00  0.00    -0.340 OA
HETATM   10  C13 UNL     1       8.122  21.470  50.739  1.00  0.00     0.219 C 
HETATM   11  C14 UNL     1       8.656  20.888  52.056  1.00  0.00     0.155 C 
HETATM   12  C15 UNL     1       7.693  21.407  53.135  1.00  0.00     0.042 C 
HETATM   13  O6  UNL     1       9.899  21.362  52.383  1.00  0.00    -0.351 OA
HETATM   14  C16 UNL     1      10.806  21.452  51.380  1.00  0.00     0.298 C 
HETATM   15  O7  UNL     1      12.026  20.867  51.584  1.00  0.00    -0.323 OA
HETATM   16  C17 UNL     1      12.416  20.253  50.394  1.00  0.00     0.161 C 
HETATM   17  C18 UNL     1      12.376  18.750  50.651  1.00  0.00     0.078 C 
HETATM   18  C19 UNL     1      13.796  20.618  49.957  1.00  0.00     0.078 C 
HETATM   19  O8  UNL     1      11.440  20.601  49.430  1.00  0.00    -0.340 OA
HETATM   20  C20 UNL     1      10.307  20.606  50.197  1.00  0.00     0.245 C 
ENDROOT
BRANCH   1  21
HETATM   21  O2  UNL     1       8.607  20.735  48.461  1.00  0.00    -0.277 OA
BRANCH  21  22
HETATM   22  C6  UNL     1       7.739  19.676  48.448  1.00  0.00     0.261 C 
HETATM   23  O1  UNL     1       6.667  19.801  47.816  1.00  0.00    -0.265 OA
BRANCH  22  24
HETATM   24  C5  UNL     1       8.103  18.415  49.188  1.00  0.00     0.111 C 
BRANCH  24  25
HETATM   25  C4  UNL     1       7.142  18.208  50.313  1.00  0.00     0.010 C 
BRANCH  25  26
HETATM   26  C3  UNL     1       6.109  17.179  50.154  1.00  0.00     0.000 C 
BRANCH  26  27
HETATM   27  C2  UNL     1       5.978  16.428  48.887  1.00  0.00    -0.005 C 
HETATM   28  C1  UNL     1       4.710  16.591  48.137  1.00  0.00     0.005 C 
ENDBRANCH  26  27
ENDBRANCH  25  26
ENDBRANCH  24  25
ENDBRANCH  22  24
ENDBRANCH  21  22
ENDBRANCH   1  21
TORSDOF 6
ENDMDL
