MODEL 1
REMARK VINA RESULT: -8.812441703      0.000      0.000
REMARK  8 active torsions:
REMARK  status: ('A' for Active; 'I' for Inactive)
REMARK    1  A    between atoms: C2_2  and  O2_4 
REMARK    2  A    between atoms: O2_4  and  C3_5 
REMARK    3  A    between atoms: C5_8  and  S1_9 
REMARK    4  A    between atoms: S1_9  and  C6_10 
REMARK    5  A    between atoms: C15_19  and  O4_20 
REMARK    6  A    between atoms: O4_20  and  C16_21 
REMARK    7  A    between atoms: C18_24  and  O6_25 
REMARK    8  A    between atoms: O6_25  and  C19_26 
ROOT
HETATM    1  C3  UNL     1       8.836  19.643  49.835  1.00  0.00     0.188 C 
HETATM    2  C4  UNL     1       8.455  19.711  48.411  1.00  0.00     0.204 C 
HETATM    3  O3  UNL     1       9.416  19.626  47.471  1.00  0.00    -0.370 OA
HETATM    4  C5  UNL     1      10.515  18.876  47.671  1.00  0.00     0.220 C 
HETATM    5  C15 UNL     1      10.961  18.687  49.093  1.00  0.00     0.203 C 
HETATM    6  C18 UNL     1      10.356  19.659  50.053  1.00  0.00     0.196 C 
ENDROOT
BRANCH   4   7
HETATM    7  S1  UNL     1      11.898  19.669  46.753  1.00  0.00    -0.095 SA
BRANCH   7   8
HETATM    8  C6  UNL     1      12.519  18.462  45.591  1.00  0.00     0.004 A 
HETATM    9  C7  UNL     1      12.037  18.435  44.293  1.00  0.00     0.026 A 
HETATM   10  C8  UNL     1      12.484  17.528  43.362  1.00  0.00    -0.054 A 
HETATM   11  C9  UNL     1      11.935  17.538  41.979  1.00  0.00     0.049 C 
HETATM   12  C10 UNL     1      13.449  16.595  43.697  1.00  0.00    -0.050 A 
HETATM   13  C11 UNL     1      13.920  15.624  42.676  1.00  0.00     0.049 C 
HETATM   14  C12 UNL     1      13.939  16.608  44.982  1.00  0.00    -0.054 A 
HETATM   15  C13 UNL     1      14.973  15.639  45.408  1.00  0.00     0.049 C 
HETATM   16  C14 UNL     1      13.478  17.524  45.897  1.00  0.00     0.026 A 
ENDBRANCH   7   8
ENDBRANCH   4   7
BRANCH   5  17
HETATM   17  O4  UNL     1      12.366  18.583  49.231  1.00  0.00    -0.310 OA
BRANCH  17  18
HETATM   18  C16 UNL     1      13.012  17.637  49.990  1.00  0.00     0.255 C 
HETATM   19  C17 UNL     1      13.929  16.605  49.437  1.00  0.00     0.126 C 
HETATM   20  O5  UNL     1      12.782  17.681  51.247  1.00  0.00    -0.266 OA
ENDBRANCH  17  18
ENDBRANCH   5  17
BRANCH   6  21
HETATM   21  O6  UNL     1      10.895  20.904  50.161  1.00  0.00    -0.311 OA
BRANCH  21  22
HETATM   22  C19 UNL     1      11.323  21.554  51.283  1.00  0.00     0.255 C 
HETATM   23  C20 UNL     1      11.744  20.921  52.537  1.00  0.00     0.126 C 
HETATM   24  O7  UNL     1      11.317  22.790  51.120  1.00  0.00    -0.266 OA
ENDBRANCH  21  22
ENDBRANCH   6  21
BRANCH   1  25
HETATM   25  O2  UNL     1       8.232  20.687  50.577  1.00  0.00    -0.311 OA
BRANCH  25  26
HETATM   26  C2  UNL     1       7.759  20.508  51.876  1.00  0.00     0.255 C 
HETATM   27  C1  UNL     1       7.935  21.556  52.918  1.00  0.00     0.126 C 
HETATM   28  O1  UNL     1       7.175  19.406  52.105  1.00  0.00    -0.266 OA
ENDBRANCH  25  26
ENDBRANCH   1  25
TORSDOF 8
ENDMDL
MODEL 2
REMARK VINA RESULT: -8.808054757      0.105      1.599
REMARK  8 active torsions:
REMARK  status: ('A' for Active; 'I' for Inactive)
REMARK    1  A    between atoms: C2_2  and  O2_4 
REMARK    2  A    between atoms: O2_4  and  C3_5 
REMARK    3  A    between atoms: C5_8  and  S1_9 
REMARK    4  A    between atoms: S1_9  and  C6_10 
REMARK    5  A    between atoms: C15_19  and  O4_20 
REMARK    6  A    between atoms: O4_20  and  C16_21 
REMARK    7  A    between atoms: C18_24  and  O6_25 
REMARK    8  A    between atoms: O6_25  and  C19_26 
ROOT
HETATM    1  C3  UNL     1       8.853  19.599  49.839  1.00  0.00     0.188 C 
HETATM    2  C4  UNL     1       8.460  19.675  48.419  1.00  0.00     0.204 C 
HETATM    3  O3  UNL     1       9.413  19.591  47.469  1.00  0.00    -0.370 OA
HETATM    4  C5  UNL     1      10.510  18.835  47.656  1.00  0.00     0.220 C 
HETATM    5  C15 UNL     1      10.967  18.638  49.073  1.00  0.00     0.203 C 
HETATM    6  C18 UNL     1      10.375  19.607  50.043  1.00  0.00     0.196 C 
ENDROOT
BRANCH   4   7
HETATM    7  S1  UNL     1      11.888  19.628  46.730  1.00  0.00    -0.095 SA
BRANCH   7   8
HETATM    8  C6  UNL     1      12.498  18.422  45.562  1.00  0.00     0.004 A 
HETATM    9  C7  UNL     1      13.470  17.512  45.944  1.00  0.00     0.026 A 
HETATM   10  C8  UNL     1      13.970  16.565  45.084  1.00  0.00    -0.054 A 
HETATM   11  C9  UNL     1      15.015  15.609  45.543  1.00  0.00     0.049 C 
HETATM   12  C10 UNL     1      13.510  16.485  43.782  1.00  0.00    -0.050 A 
HETATM   13  C11 UNL     1      14.062  15.454  42.867  1.00  0.00     0.049 C 
HETATM   14  C12 UNL     1      12.545  17.381  43.385  1.00  0.00    -0.054 A 
HETATM   15  C13 UNL     1      12.006  17.353  42.006  1.00  0.00     0.049 C 
HETATM   16  C14 UNL     1      12.058  18.321  44.261  1.00  0.00     0.026 A 
ENDBRANCH   7   8
ENDBRANCH   4   7
BRANCH   5  17
HETATM   17  O4  UNL     1      12.373  18.527  49.198  1.00  0.00    -0.310 OA
BRANCH  17  18
HETATM   18  C16 UNL     1      13.020  17.626  50.010  1.00  0.00     0.255 C 
HETATM   19  C17 UNL     1      13.970  16.592  49.520  1.00  0.00     0.126 C 
HETATM   20  O5  UNL     1      12.760  17.717  51.259  1.00  0.00    -0.266 OA
ENDBRANCH  17  18
ENDBRANCH   5  17
BRANCH   6  21
HETATM   21  O6  UNL     1      10.920  20.849  50.153  1.00  0.00    -0.311 OA
BRANCH  21  22
HETATM   22  C19 UNL     1      11.275  21.528  51.284  1.00  0.00     0.255 C 
HETATM   23  C20 UNL     1      11.635  20.928  52.572  1.00  0.00     0.126 C 
HETATM   24  O7  UNL     1      11.260  22.760  51.094  1.00  0.00    -0.266 OA
ENDBRANCH  21  22
ENDBRANCH   6  21
BRANCH   1  25
HETATM   25  O2  UNL     1       8.260  20.641  50.591  1.00  0.00    -0.311 OA
BRANCH  25  26
HETATM   26  C2  UNL     1       7.737  20.442  51.867  1.00  0.00     0.255 C 
HETATM   27  C1  UNL     1       7.885  21.467  52.936  1.00  0.00     0.126 C 
HETATM   28  O1  UNL     1       7.133  19.342  52.052  1.00  0.00    -0.266 OA
ENDBRANCH  25  26
ENDBRANCH   1  25
TORSDOF 8
ENDMDL
MODEL 3
REMARK VINA RESULT: -8.622113230      1.356      1.569
REMARK  8 active torsions:
REMARK  status: ('A' for Active; 'I' for Inactive)
REMARK    1  A    between atoms: C2_2  and  O2_4 
REMARK    2  A    between atoms: O2_4  and  C3_5 
REMARK    3  A    between atoms: C5_8  and  S1_9 
REMARK    4  A    between atoms: S1_9  and  C6_10 
REMARK    5  A    between atoms: C15_19  and  O4_20 
REMARK    6  A    between atoms: O4_20  and  C16_21 
REMARK    7  A    between atoms: C18_24  and  O6_25 
REMARK    8  A    between atoms: O6_25  and  C19_26 
ROOT
HETATM    1  C3  UNL     1       9.330  19.753  50.246  1.00  0.00     0.188 C 
HETATM    2  C4  UNL     1       8.873  18.961  49.089  1.00  0.00     0.204 C 
HETATM    3  O3  UNL     1       9.670  18.859  48.007  1.00  0.00    -0.370 OA
HETATM    4  C5  UNL     1      11.010  18.850  48.135  1.00  0.00     0.220 C 
HETATM    5  C15 UNL     1      11.585  19.576  49.317  1.00  0.00     0.203 C 
HETATM    6  C18 UNL     1      10.632  20.520  49.973  1.00  0.00     0.196 C 
ENDROOT
BRANCH   4   7
HETATM    7  S1  UNL     1      11.711  19.612  46.615  1.00  0.00    -0.095 SA
BRANCH   7   8
HETATM    8  C6  UNL     1      12.529  18.312  45.703  1.00  0.00     0.004 A 
HETATM    9  C7  UNL     1      12.278  18.146  44.351  1.00  0.00     0.026 A 
HETATM   10  C8  UNL     1      12.883  17.163  43.606  1.00  0.00    -0.054 A 
HETATM   11  C9  UNL     1      12.581  17.025  42.155  1.00  0.00     0.049 C 
HETATM   12  C10 UNL     1      13.781  16.289  44.193  1.00  0.00    -0.050 A 
HETATM   13  C11 UNL     1      14.425  15.233  43.370  1.00  0.00     0.049 C 
HETATM   14  C12 UNL     1      14.042  16.439  45.534  1.00  0.00    -0.054 A 
HETATM   15  C13 UNL     1      14.993  15.540  46.227  1.00  0.00     0.049 C 
HETATM   16  C14 UNL     1      13.426  17.429  46.261  1.00  0.00     0.026 A 
ENDBRANCH   7   8
ENDBRANCH   4   7
BRANCH   5  17
HETATM   17  O4  UNL     1      12.846  20.165  49.053  1.00  0.00    -0.310 OA
BRANCH  17  18
HETATM   18  C16 UNL     1      14.044  19.707  49.546  1.00  0.00     0.255 C 
HETATM   19  C17 UNL     1      15.150  20.588  50.007  1.00  0.00     0.126 C 
HETATM   20  O5  UNL     1      14.176  18.436  49.594  1.00  0.00    -0.266 OA
ENDBRANCH  17  18
ENDBRANCH   5  17
BRANCH   6  21
HETATM   21  O6  UNL     1      10.451  21.758  49.435  1.00  0.00    -0.311 OA
BRANCH  21  22
HETATM   22  C19 UNL     1      10.594  22.977  50.034  1.00  0.00     0.255 C 
HETATM   23  C20 UNL     1      10.194  24.268  49.465  1.00  0.00     0.126 C 
HETATM   24  O7  UNL     1      11.121  22.870  51.158  1.00  0.00    -0.266 OA
ENDBRANCH  21  22
ENDBRANCH   6  21
BRANCH   1  25
HETATM   25  O2  UNL     1       8.325  20.648  50.684  1.00  0.00    -0.311 OA
BRANCH  25  26
HETATM   26  C2  UNL     1       7.804  20.619  51.976  1.00  0.00     0.255 C 
HETATM   27  C1  UNL     1       8.021  21.743  52.927  1.00  0.00     0.126 C 
HETATM   28  O1  UNL     1       7.141  19.582  52.282  1.00  0.00    -0.266 OA
ENDBRANCH  25  26
ENDBRANCH   1  25
TORSDOF 8
ENDMDL
MODEL 4
REMARK VINA RESULT: -8.620228619      1.194      2.120
REMARK  8 active torsions:
REMARK  status: ('A' for Active; 'I' for Inactive)
REMARK    1  A    between atoms: C2_2  and  O2_4 
REMARK    2  A    between atoms: O2_4  and  C3_5 
REMARK    3  A    between atoms: C5_8  and  S1_9 
REMARK    4  A    between atoms: S1_9  and  C6_10 
REMARK    5  A    between atoms: C15_19  and  O4_20 
REMARK    6  A    between atoms: O4_20  and  C16_21 
REMARK    7  A    between atoms: C18_24  and  O6_25 
REMARK    8  A    between atoms: O6_25  and  C19_26 
ROOT
HETATM    1  C3  UNL     1       9.169  19.755  50.049  1.00  0.00     0.188 C 
HETATM    2  C4  UNL     1       8.707  19.068  48.828  1.00  0.00     0.204 C 
HETATM    3  O3  UNL     1       9.526  19.007  47.759  1.00  0.00    -0.370 OA
HETATM    4  C5  UNL     1      10.860  18.931  47.915  1.00  0.00     0.220 C 
HETATM    5  C15 UNL     1      11.437  19.546  49.158  1.00  0.00     0.203 C 
HETATM    6  C18 UNL     1      10.508  20.482  49.860  1.00  0.00     0.196 C 
ENDROOT
BRANCH   4   7
HETATM    7  S1  UNL     1      11.630  19.768  46.469  1.00  0.00    -0.095 SA
BRANCH   7   8
HETATM    8  C6  UNL     1      12.364  18.494  45.453  1.00  0.00     0.004 A 
HETATM    9  C7  UNL     1      13.295  17.623  45.995  1.00  0.00     0.026 A 
HETATM   10  C8  UNL     1      13.885  16.626  45.256  1.00  0.00    -0.054 A 
HETATM   11  C9  UNL     1      14.881  15.714  45.883  1.00  0.00     0.049 C 
HETATM   12  C10 UNL     1      13.563  16.455  43.922  1.00  0.00    -0.050 A 
HETATM   13  C11 UNL     1      14.212  15.371  43.141  1.00  0.00     0.049 C 
HETATM   14  C12 UNL     1      12.640  17.311  43.368  1.00  0.00    -0.054 A 
HETATM   15  C13 UNL     1      12.248  17.185  41.946  1.00  0.00     0.049 C 
HETATM   16  C14 UNL     1      12.062  18.302  44.124  1.00  0.00     0.026 A 
ENDBRANCH   7   8
ENDBRANCH   4   7
BRANCH   5  17
HETATM   17  O4  UNL     1      12.727  20.096  48.965  1.00  0.00    -0.310 OA
BRANCH  17  18
HETATM   18  C16 UNL     1      13.897  19.526  49.408  1.00  0.00     0.255 C 
HETATM   19  C17 UNL     1      14.100  18.063  49.584  1.00  0.00     0.126 C 
HETATM   20  O5  UNL     1      14.845  20.341  49.676  1.00  0.00    -0.266 OA
ENDBRANCH  17  18
ENDBRANCH   5  17
BRANCH   6  21
HETATM   21  O6  UNL     1      10.393  21.761  49.409  1.00  0.00    -0.311 OA
BRANCH  21  22
HETATM   22  C19 UNL     1      10.547  22.928  50.102  1.00  0.00     0.255 C 
HETATM   23  C20 UNL     1      10.006  24.236  49.718  1.00  0.00     0.126 C 
HETATM   24  O7  UNL     1      11.220  22.753  51.136  1.00  0.00    -0.266 OA
ENDBRANCH  21  22
ENDBRANCH   6  21
BRANCH   1  25
HETATM   25  O2  UNL     1       8.192  20.660  50.528  1.00  0.00    -0.311 OA
BRANCH  25  26
HETATM   26  C2  UNL     1       7.811  20.714  51.868  1.00  0.00     0.255 C 
HETATM   27  C1  UNL     1       8.090  21.911  52.707  1.00  0.00     0.126 C 
HETATM   28  O1  UNL     1       7.218  19.687  52.317  1.00  0.00    -0.266 OA
ENDBRANCH  25  26
ENDBRANCH   1  25
TORSDOF 8
ENDMDL
MODEL 5
REMARK VINA RESULT: -8.364710436      2.002      3.558
REMARK  8 active torsions:
REMARK  status: ('A' for Active; 'I' for Inactive)
REMARK    1  A    between atoms: C2_2  and  O2_4 
REMARK    2  A    between atoms: O2_4  and  C3_5 
REMARK    3  A    between atoms: C5_8  and  S1_9 
REMARK    4  A    between atoms: S1_9  and  C6_10 
REMARK    5  A    between atoms: C15_19  and  O4_20 
REMARK    6  A    between atoms: O4_20  and  C16_21 
REMARK    7  A    between atoms: C18_24  and  O6_25 
REMARK    8  A    between atoms: O6_25  and  C19_26 
ROOT
HETATM    1  C3  UNL     1      10.155  21.557  48.921  1.00  0.00     0.188 C 
HETATM    2  C4  UNL     1      11.296  21.159  48.074  1.00  0.00     0.204 C 
HETATM    3  O3  UNL     1      11.473  19.856  47.783  1.00  0.00    -0.370 OA
HETATM    4  C5  UNL     1      10.421  19.029  47.643  1.00  0.00     0.220 C 
HETATM    5  C15 UNL     1       9.178  19.373  48.414  1.00  0.00     0.203 C 
HETATM    6  C18 UNL     1       9.399  20.359  49.514  1.00  0.00     0.196 C 
ENDROOT
BRANCH   4   7
HETATM    7  S1  UNL     1      10.962  17.354  48.175  1.00  0.00    -0.095 SA
BRANCH   7   8
HETATM    8  C6  UNL     1      12.218  16.817  47.023  1.00  0.00     0.004 A 
HETATM    9  C7  UNL     1      12.043  17.010  45.663  1.00  0.00     0.026 A 
HETATM   10  C8  UNL     1      12.980  16.617  44.738  1.00  0.00    -0.054 A 
HETATM   11  C9  UNL     1      12.746  16.846  43.286  1.00  0.00     0.049 C 
HETATM   12  C10 UNL     1      14.152  16.004  45.142  1.00  0.00    -0.050 A 
HETATM   13  C11 UNL     1      15.153  15.587  44.127  1.00  0.00     0.049 C 
HETATM   14  C12 UNL     1      14.343  15.805  46.489  1.00  0.00    -0.054 A 
HETATM   15  C13 UNL     1      15.575  15.156  46.992  1.00  0.00     0.049 C 
HETATM   16  C14 UNL     1      13.393  16.205  47.398  1.00  0.00     0.026 A 
ENDBRANCH   7   8
ENDBRANCH   4   7
BRANCH   5  17
HETATM   17  O4  UNL     1       8.447  18.236  48.834  1.00  0.00    -0.310 OA
BRANCH  17  18
HETATM   18  C16 UNL     1       7.105  18.231  49.128  1.00  0.00     0.255 C 
HETATM   19  C17 UNL     1       6.508  17.533  50.299  1.00  0.00     0.126 C 
HETATM   20  O5  UNL     1       6.356  18.877  48.319  1.00  0.00    -0.266 OA
ENDBRANCH  17  18
ENDBRANCH   5  17
BRANCH   6  21
HETATM   21  O6  UNL     1       9.889  19.921  50.706  1.00  0.00    -0.311 OA
BRANCH  21  22
HETATM   22  C19 UNL     1       9.239  19.793  51.900  1.00  0.00     0.255 C 
HETATM   23  C20 UNL     1       8.138  20.636  52.376  1.00  0.00     0.126 C 
HETATM   24  O7  UNL     1       9.700  18.846  52.566  1.00  0.00    -0.266 OA
ENDBRANCH  21  22
ENDBRANCH   6  21
BRANCH   1  25
HETATM   25  O2  UNL     1      10.565  22.429  49.958  1.00  0.00    -0.311 OA
BRANCH  25  26
HETATM   26  C2  UNL     1      10.051  23.716  50.103  1.00  0.00     0.255 C 
HETATM   27  C1  UNL     1       8.760  23.963  50.802  1.00  0.00     0.126 C 
HETATM   28  O1  UNL     1      10.749  24.651  49.605  1.00  0.00    -0.266 OA
ENDBRANCH  25  26
ENDBRANCH   1  25
TORSDOF 8
ENDMDL
