MODEL 1
REMARK VINA RESULT: -8.059332543      0.000      0.000
REMARK  5 active torsions:
REMARK  status: ('A' for Active; 'I' for Inactive)
REMARK    1  A    between atoms: C2_2  and  C3_3 
REMARK    2  A    between atoms: C3_3  and  C4_4 
REMARK    3  A    between atoms: N1_10  and  C8_11 
REMARK    4  A    between atoms: C15_20  and  C16_21 
REMARK    5  A    between atoms: N2_24  and  C18_25 
ROOT
HETATM    1  C8  UNL     1       9.208  20.633  48.176  1.00  0.00     0.160 A 
HETATM    2  C9  UNL     1       8.588  21.871  47.899  1.00  0.00     0.319 A 
HETATM    3  O3  UNL     1       7.771  22.310  48.765  1.00  0.00    -0.257 OA
HETATM    4  O4  UNL     1       8.829  22.526  46.827  1.00  0.00    -0.278 OA
HETATM    5  C10 UNL     1       9.680  22.090  45.898  1.00  0.00     0.066 A 
HETATM    6  C11 UNL     1       9.909  22.908  44.695  1.00  0.00     0.078 C 
HETATM    7  C12 UNL     1      10.314  20.884  46.118  1.00  0.00     0.031 A 
HETATM    8  C13 UNL     1      11.238  20.155  45.373  1.00  0.00    -0.016 A 
HETATM    9  C14 UNL     1      11.643  20.588  44.011  1.00  0.00     0.052 C 
HETATM   10  C15 UNL     1      11.559  18.997  46.087  1.00  0.00     0.088 A 
HETATM   11  N2  UNL     1      10.855  18.986  47.244  1.00  0.00    -0.337 N 
HETATM   12  C21 UNL     1      10.095  20.117  47.273  1.00  0.00     0.084 A 
ENDROOT
BRANCH   1  13
HETATM   13  N1  UNL     1       8.809  20.021  49.376  1.00  0.00    -0.244 N 
HETATM   14  C7  UNL     1       7.570  19.296  49.416  1.00  0.00     0.183 C 
HETATM   15  C6  UNL     1       7.512  18.373  50.567  1.00  0.00     0.194 C 
HETATM   16  O2  UNL     1       8.377  18.564  51.598  1.00  0.00    -0.346 OA
HETATM   17  C3  UNL     1       9.023  19.771  51.655  1.00  0.00     0.250 C 
HETATM   18  O6  UNL     1       9.552  20.190  50.468  1.00  0.00    -0.229 OA
BRANCH  17  19
HETATM   19  C2  UNL     1      10.169  19.694  52.649  1.00  0.00     0.075 C 
HETATM   20  C1  UNL     1      11.421  20.341  52.134  1.00  0.00     0.011 C 
ENDBRANCH  17  19
BRANCH  17  21
HETATM   21  C4  UNL     1       8.090  20.815  52.177  1.00  0.00     0.186 C 
HETATM   22  C5  UNL     1       8.272  22.269  51.937  1.00  0.00     0.097 C 
HETATM   23  O1  UNL     1       7.101  20.501  52.848  1.00  0.00    -0.292 OA
ENDBRANCH  17  21
ENDBRANCH   1  13
BRANCH  11  24
HETATM   24  C18 UNL     1      10.944  18.004  48.259  1.00  0.00     0.082 C 
HETATM   25  C19 UNL     1      10.909  16.568  47.790  1.00  0.00     0.032 C 
HETATM   26  C20 UNL     1      12.191  18.172  49.154  1.00  0.00     0.032 C 
ENDBRANCH  11  24
BRANCH  10  27
HETATM   27  C16 UNL     1      12.598  18.104  45.605  1.00  0.00     0.172 C 
HETATM   28  C17 UNL     1      12.472  17.084  44.534  1.00  0.00     0.098 C 
HETATM   29  O5  UNL     1      13.758  18.144  46.086  1.00  0.00    -0.291 OA
ENDBRANCH  10  27
TORSDOF 5
ENDMDL
MODEL 2
REMARK VINA RESULT: -7.345460537      1.962      4.361
REMARK  5 active torsions:
REMARK  status: ('A' for Active; 'I' for Inactive)
REMARK    1  A    between atoms: C2_2  and  C3_3 
REMARK    2  A    between atoms: C3_3  and  C4_4 
REMARK    3  A    between atoms: N1_10  and  C8_11 
REMARK    4  A    between atoms: C15_20  and  C16_21 
REMARK    5  A    between atoms: N2_24  and  C18_25 
ROOT
HETATM    1  C8  UNL     1      12.049  18.750  49.189  1.00  0.00     0.160 A 
HETATM    2  C9  UNL     1      12.787  17.793  49.919  1.00  0.00     0.319 A 
HETATM    3  O3  UNL     1      12.686  17.832  51.183  1.00  0.00    -0.257 OA
HETATM    4  O4  UNL     1      13.527  16.923  49.343  1.00  0.00    -0.278 OA
HETATM    5  C10 UNL     1      13.655  16.856  48.017  1.00  0.00     0.066 A 
HETATM    6  C11 UNL     1      14.521  15.819  47.432  1.00  0.00     0.078 C 
HETATM    7  C12 UNL     1      12.956  17.769  47.255  1.00  0.00     0.031 A 
HETATM    8  C13 UNL     1      12.864  17.977  45.881  1.00  0.00    -0.016 A 
HETATM    9  C14 UNL     1      13.699  17.201  44.927  1.00  0.00     0.052 C 
HETATM   10  C15 UNL     1      11.989  19.043  45.656  1.00  0.00     0.088 A 
HETATM   11  N2  UNL     1      11.545  19.505  46.850  1.00  0.00    -0.337 N 
HETATM   12  C21 UNL     1      12.125  18.748  47.824  1.00  0.00     0.084 A 
ENDROOT
BRANCH   1  13
HETATM   13  N1  UNL     1      11.315  19.658  49.968  1.00  0.00    -0.244 N 
HETATM   14  C7  UNL     1      11.992  20.774  50.570  1.00  0.00     0.183 C 
HETATM   15  C6  UNL     1      11.049  21.838  50.966  1.00  0.00     0.194 C 
HETATM   16  O2  UNL     1       9.729  21.530  51.078  1.00  0.00    -0.346 OA
HETATM   17  C3  UNL     1       9.401  20.201  51.129  1.00  0.00     0.250 C 
HETATM   18  O6  UNL     1      10.024  19.425  50.194  1.00  0.00    -0.229 OA
BRANCH  17  19
HETATM   19  C2  UNL     1       7.906  20.033  50.921  1.00  0.00     0.075 C 
HETATM   20  C1  UNL     1       7.580  18.934  49.953  1.00  0.00     0.011 C 
ENDBRANCH  17  19
BRANCH  17  21
HETATM   21  C4  UNL     1       9.695  19.665  52.492  1.00  0.00     0.186 C 
HETATM   22  C5  UNL     1       9.432  20.421  53.742  1.00  0.00     0.097 C 
HETATM   23  O1  UNL     1      10.182  18.539  52.638  1.00  0.00    -0.292 OA
ENDBRANCH  17  21
ENDBRANCH   1  13
BRANCH  11  24
HETATM   24  C18 UNL     1      10.605  20.545  47.039  1.00  0.00     0.082 C 
HETATM   25  C19 UNL     1      11.108  21.944  46.766  1.00  0.00     0.032 C 
HETATM   26  C20 UNL     1       9.312  20.347  46.218  1.00  0.00     0.032 C 
ENDBRANCH  11  24
BRANCH  10  27
HETATM   27  C16 UNL     1      11.606  19.404  44.303  1.00  0.00     0.172 C 
HETATM   28  C17 UNL     1      11.606  20.764  43.707  1.00  0.00     0.098 C 
HETATM   29  O5  UNL     1      11.233  18.528  43.482  1.00  0.00    -0.291 OA
ENDBRANCH  10  27
TORSDOF 5
ENDMDL
MODEL 3
REMARK VINA RESULT: -7.266115404      2.557      4.777
REMARK  5 active torsions:
REMARK  status: ('A' for Active; 'I' for Inactive)
REMARK    1  A    between atoms: C2_2  and  C3_3 
REMARK    2  A    between atoms: C3_3  and  C4_4 
REMARK    3  A    between atoms: N1_10  and  C8_11 
REMARK    4  A    between atoms: C15_20  and  C16_21 
REMARK    5  A    between atoms: N2_24  and  C18_25 
ROOT
HETATM    1  C8  UNL     1       8.695  22.691  49.985  1.00  0.00     0.160 A 
HETATM    2  C9  UNL     1       8.688  23.506  51.137  1.00  0.00     0.319 A 
HETATM    3  O3  UNL     1       8.929  22.936  52.245  1.00  0.00    -0.257 OA
HETATM    4  O4  UNL     1       8.452  24.762  51.079  1.00  0.00    -0.278 OA
HETATM    5  C10 UNL     1       8.196  25.390  49.931  1.00  0.00     0.066 A 
HETATM    6  C11 UNL     1       7.940  26.840  49.948  1.00  0.00     0.078 C 
HETATM    7  C12 UNL     1       8.188  24.640  48.773  1.00  0.00     0.031 A 
HETATM    8  C13 UNL     1       7.962  24.968  47.438  1.00  0.00    -0.016 A 
HETATM    9  C14 UNL     1       7.543  26.337  47.042  1.00  0.00     0.052 C 
HETATM   10  C15 UNL     1       8.095  23.806  46.673  1.00  0.00     0.088 A 
HETATM   11  N2  UNL     1       8.388  22.771  47.496  1.00  0.00    -0.337 N 
HETATM   12  C21 UNL     1       8.441  23.259  48.767  1.00  0.00     0.084 A 
ENDROOT
BRANCH   1  13
HETATM   13  N1  UNL     1       8.934  21.327  50.220  1.00  0.00    -0.244 N 
HETATM   14  C7  UNL     1       7.871  20.506  50.727  1.00  0.00     0.183 C 
HETATM   15  C6  UNL     1       8.134  19.070  50.506  1.00  0.00     0.194 C 
HETATM   16  O2  UNL     1       9.406  18.677  50.229  1.00  0.00    -0.346 OA
HETATM   17  C3  UNL     1      10.407  19.577  50.485  1.00  0.00     0.250 C 
HETATM   18  O6  UNL     1      10.161  20.843  50.038  1.00  0.00    -0.229 OA
BRANCH  17  19
HETATM   19  C2  UNL     1      11.694  19.115  49.824  1.00  0.00     0.075 C 
HETATM   20  C1  UNL     1      12.220  20.109  48.832  1.00  0.00     0.011 C 
ENDBRANCH  17  19
BRANCH  17  21
HETATM   21  C4  UNL     1      10.683  19.615  51.953  1.00  0.00     0.186 C 
HETATM   22  C5  UNL     1      11.509  20.664  52.602  1.00  0.00     0.097 C 
HETATM   23  O1  UNL     1      10.223  18.750  52.706  1.00  0.00    -0.292 OA
ENDBRANCH  17  21
ENDBRANCH   1  13
BRANCH  11  24
HETATM   24  C18 UNL     1       8.647  21.439  47.093  1.00  0.00     0.082 C 
HETATM   25  C19 UNL     1       7.468  20.680  46.530  1.00  0.00     0.032 C 
HETATM   26  C20 UNL     1       9.801  21.332  46.072  1.00  0.00     0.032 C 
ENDBRANCH  11  24
BRANCH  10  27
HETATM   27  C16 UNL     1       8.035  23.872  45.224  1.00  0.00     0.172 C 
HETATM   28  C17 UNL     1       6.883  23.510  44.361  1.00  0.00     0.098 C 
HETATM   29  O5  UNL     1       9.018  24.280  44.554  1.00  0.00    -0.291 OA
ENDBRANCH  10  27
TORSDOF 5
ENDMDL
MODEL 4
REMARK VINA RESULT: -7.114890552      1.767      4.223
REMARK  5 active torsions:
REMARK  status: ('A' for Active; 'I' for Inactive)
REMARK    1  A    between atoms: C2_2  and  C3_3 
REMARK    2  A    between atoms: C3_3  and  C4_4 
REMARK    3  A    between atoms: N1_10  and  C8_11 
REMARK    4  A    between atoms: C15_20  and  C16_21 
REMARK    5  A    between atoms: N2_24  and  C18_25 
ROOT
HETATM    1  C8  UNL     1      11.243  19.610  48.541  1.00  0.00     0.160 A 
HETATM    2  C9  UNL     1      11.678  18.291  48.794  1.00  0.00     0.319 A 
HETATM    3  O3  UNL     1      11.712  17.920  50.007  1.00  0.00    -0.257 OA
HETATM    4  O4  UNL     1      12.025  17.498  47.851  1.00  0.00    -0.278 OA
HETATM    5  C10 UNL     1      12.001  17.858  46.568  1.00  0.00     0.066 A 
HETATM    6  C11 UNL     1      12.409  16.883  45.542  1.00  0.00     0.078 C 
HETATM    7  C12 UNL     1      11.585  19.138  46.264  1.00  0.00     0.031 A 
HETATM    8  C13 UNL     1      11.443  19.823  45.059  1.00  0.00    -0.016 A 
HETATM    9  C14 UNL     1      11.877  19.217  43.774  1.00  0.00     0.052 C 
HETATM   10  C15 UNL     1      10.963  21.105  45.338  1.00  0.00     0.088 A 
HETATM   11  N2  UNL     1      10.812  21.235  46.678  1.00  0.00    -0.337 N 
HETATM   12  C21 UNL     1      11.189  20.056  47.249  1.00  0.00     0.084 A 
ENDROOT
BRANCH   1  13
HETATM   13  N1  UNL     1      10.934  20.365  49.683  1.00  0.00    -0.244 N 
HETATM   14  C7  UNL     1      11.996  20.798  50.548  1.00  0.00     0.183 C 
HETATM   15  C6  UNL     1      11.575  21.912  51.419  1.00  0.00     0.194 C 
HETATM   16  O2  UNL     1      10.244  22.140  51.588  1.00  0.00    -0.346 OA
HETATM   17  C3  UNL     1       9.388  21.142  51.204  1.00  0.00     0.250 C 
HETATM   18  O6  UNL     1       9.657  20.600  49.979  1.00  0.00    -0.229 OA
BRANCH  17  19
HETATM   19  C2  UNL     1       7.968  21.677  51.150  1.00  0.00     0.075 C 
HETATM   20  C1  UNL     1       7.917  23.142  50.832  1.00  0.00     0.011 C 
ENDBRANCH  17  19
BRANCH  17  21
HETATM   21  C4  UNL     1       9.386  20.059  52.234  1.00  0.00     0.186 C 
HETATM   22  C5  UNL     1       9.449  20.320  53.694  1.00  0.00     0.097 C 
HETATM   23  O1  UNL     1       9.329  18.871  51.902  1.00  0.00    -0.292 OA
ENDBRANCH  17  21
ENDBRANCH   1  13
BRANCH  11  24
HETATM   24  C18 UNL     1      10.300  22.371  47.349  1.00  0.00     0.082 C 
HETATM   25  C19 UNL     1      10.871  23.702  46.919  1.00  0.00     0.032 C 
HETATM   26  C20 UNL     1       8.761  22.476  47.268  1.00  0.00     0.032 C 
ENDBRANCH  11  24
BRANCH  10  27
HETATM   27  C16 UNL     1      10.602  22.004  44.256  1.00  0.00     0.172 C 
HETATM   28  C17 UNL     1      11.525  22.814  43.422  1.00  0.00     0.098 C 
HETATM   29  O5  UNL     1       9.401  22.160  43.920  1.00  0.00    -0.291 OA
ENDBRANCH  10  27
TORSDOF 5
ENDMDL
MODEL 5
REMARK VINA RESULT: -6.957267526      1.965      4.288
REMARK  5 active torsions:
REMARK  status: ('A' for Active; 'I' for Inactive)
REMARK    1  A    between atoms: C2_2  and  C3_3 
REMARK    2  A    between atoms: C3_3  and  C4_4 
REMARK    3  A    between atoms: N1_10  and  C8_11 
REMARK    4  A    between atoms: C15_20  and  C16_21 
REMARK    5  A    between atoms: N2_24  and  C18_25 
ROOT
HETATM    1  C8  UNL     1      10.664  20.264  48.915  1.00  0.00     0.160 A 
HETATM    2  C9  UNL     1      10.894  18.982  49.459  1.00  0.00     0.319 A 
HETATM    3  O3  UNL     1      10.700  18.845  50.706  1.00  0.00    -0.257 OA
HETATM    4  O4  UNL     1      11.280  17.998  48.739  1.00  0.00    -0.278 OA
HETATM    5  C10 UNL     1      11.492  18.110  47.428  1.00  0.00     0.066 A 
HETATM    6  C11 UNL     1      11.929  16.927  46.668  1.00  0.00     0.078 C 
HETATM    7  C12 UNL     1      11.285  19.343  46.843  1.00  0.00     0.031 A 
HETATM    8  C13 UNL     1      11.409  19.798  45.533  1.00  0.00    -0.016 A 
HETATM    9  C14 UNL     1      11.955  18.925  44.462  1.00  0.00     0.052 C 
HETATM   10  C15 UNL     1      11.051  21.149  45.503  1.00  0.00     0.088 A 
HETATM   11  N2  UNL     1      10.718  21.542  46.756  1.00  0.00    -0.337 N 
HETATM   12  C21 UNL     1      10.859  20.462  47.576  1.00  0.00     0.084 A 
ENDROOT
BRANCH   1  13
HETATM   13  N1  UNL     1      10.280  21.246  49.842  1.00  0.00    -0.244 N 
HETATM   14  C7  UNL     1      11.154  21.556  50.939  1.00  0.00     0.183 C 
HETATM   15  C6  UNL     1      10.834  22.864  51.543  1.00  0.00     0.194 C 
HETATM   16  O2  UNL     1       9.617  23.418  51.290  1.00  0.00    -0.346 OA
HETATM   17  C3  UNL     1       8.657  22.596  50.761  1.00  0.00     0.250 C 
HETATM   18  O6  UNL     1       9.082  21.815  49.725  1.00  0.00    -0.229 OA
BRANCH  17  19
HETATM   19  C2  UNL     1       7.498  23.430  50.242  1.00  0.00     0.075 C 
HETATM   20  C1  UNL     1       7.873  24.866  50.030  1.00  0.00     0.011 C 
ENDBRANCH  17  19
BRANCH  17  21
HETATM   21  C4  UNL     1       8.094  21.726  51.838  1.00  0.00     0.186 C 
HETATM   22  C5  UNL     1       7.806  20.281  51.654  1.00  0.00     0.097 C 
HETATM   23  O1  UNL     1       7.839  22.187  52.955  1.00  0.00    -0.292 OA
ENDBRANCH  17  21
ENDBRANCH   1  13
BRANCH  11  24
HETATM   24  C18 UNL     1      10.252  22.826  47.126  1.00  0.00     0.082 C 
HETATM   25  C19 UNL     1      11.077  23.992  46.633  1.00  0.00     0.032 C 
HETATM   26  C20 UNL     1       8.788  23.080  46.705  1.00  0.00     0.032 C 
ENDBRANCH  11  24
BRANCH  10  27
HETATM   27  C16 UNL     1      10.968  21.857  44.238  1.00  0.00     0.172 C 
HETATM   28  C17 UNL     1      12.093  22.446  43.469  1.00  0.00     0.098 C 
HETATM   29  O5  UNL     1       9.864  22.021  43.661  1.00  0.00    -0.291 OA
ENDBRANCH  10  27
TORSDOF 5
ENDMDL
