MODEL 1
REMARK VINA RESULT: -8.515785223      0.000      0.000
REMARK  7 active torsions:
REMARK  status: ('A' for Active; 'I' for Inactive)
REMARK    1  A    between atoms: C2_2  and  O1_3 
REMARK    2  A    between atoms: O1_3  and  C3_4 
REMARK    3  A    between atoms: C3_4  and  C4_6 
REMARK    4  A    between atoms: C4_6  and  C5_7 
REMARK    5  A    between atoms: C5_7  and  C6_8 
REMARK    6  A    between atoms: C6_8  and  O4_10 
REMARK    7  A    between atoms: O4_10  and  C7_11 
ROOT
HETATM    1  C7  UNL     1      13.066  18.559  47.562  1.00  0.00     0.060 C 
HETATM    2  C8  UNL     1      13.566  17.737  48.452  1.00  0.00     0.006 C 
HETATM    3  C9  UNL     1      13.089  17.809  49.847  1.00  0.00     0.030 C 
HETATM    4  C10 UNL     1      12.882  19.299  50.112  1.00  0.00     0.012 C 
HETATM    5  C11 UNL     1      11.717  19.793  49.285  1.00  0.00     0.032 C 
HETATM    6  C12 UNL     1      12.037  19.579  47.843  1.00  0.00     0.081 C 
HETATM    7  C13 UNL     1      10.840  19.314  47.012  1.00  0.00     0.167 A 
HETATM    8  O5  UNL     1      10.534  19.825  45.799  1.00  0.00    -0.369 OA
HETATM    9  C14 UNL     1      10.103  20.612  46.850  1.00  0.00     0.085 A 
HETATM   10  C15 UNL     1      10.731  21.940  46.862  1.00  0.00     0.049 C 
HETATM   11  C16 UNL     1       8.772  20.424  47.493  1.00  0.00     0.043 C 
HETATM   12  C17 UNL     1       8.825  20.920  48.892  1.00  0.00     0.044 C 
HETATM   13  C18 UNL     1       9.294  20.040  49.941  1.00  0.00     0.096 C 
HETATM   14  C19 UNL     1       8.129  19.182  50.452  1.00  0.00     0.049 C 
HETATM   15  O6  UNL     1       9.680  20.817  51.090  1.00  0.00    -0.284 OA
HETATM   16  C20 UNL     1      10.281  19.872  51.912  1.00  0.00     0.407 C 
HETATM   17  O7  UNL     1      10.402  20.029  53.171  1.00  0.00    -0.229 OA
HETATM   18  O8  UNL     1      10.696  18.794  51.142  1.00  0.00    -0.289 OA
HETATM   19  C21 UNL     1      10.460  19.167  49.767  1.00  0.00     0.174 C 
ENDROOT
BRANCH   1  20
HETATM   20  O4  UNL     1      13.549  18.451  46.269  1.00  0.00    -0.283 OA
BRANCH  20  21
HETATM   21  C6  UNL     1      13.653  17.281  45.553  1.00  0.00     0.264 C 
HETATM   22  O3  UNL     1      14.739  16.648  45.589  1.00  0.00    -0.265 OA
BRANCH  21  23
HETATM   23  C5  UNL     1      12.521  16.739  44.731  1.00  0.00     0.121 C 
BRANCH  23  24
HETATM   24  C4  UNL     1      12.759  17.220  43.322  1.00  0.00     0.121 C 
BRANCH  24  25
HETATM   25  C3  UNL     1      12.755  16.104  42.331  1.00  0.00     0.259 C 
HETATM   26  O2  UNL     1      11.730  15.508  41.965  1.00  0.00    -0.265 OA
BRANCH  25  27
HETATM   27  O1  UNL     1      13.974  15.737  41.812  1.00  0.00    -0.322 OA
BRANCH  27  28
HETATM   28  C2  UNL     1      14.937  14.978  42.482  1.00  0.00     0.174 C 
HETATM   29  C1  UNL     1      14.647  13.495  42.387  1.00  0.00     0.034 C 
ENDBRANCH  27  28
ENDBRANCH  25  27
ENDBRANCH  24  25
ENDBRANCH  23  24
ENDBRANCH  21  23
ENDBRANCH  20  21
ENDBRANCH   1  20
TORSDOF 7
ENDMDL
MODEL 2
REMARK VINA RESULT: -8.379857055      1.514      3.317
REMARK  7 active torsions:
REMARK  status: ('A' for Active; 'I' for Inactive)
REMARK    1  A    between atoms: C2_2  and  O1_3 
REMARK    2  A    between atoms: O1_3  and  C3_4 
REMARK    3  A    between atoms: C3_4  and  C4_6 
REMARK    4  A    between atoms: C4_6  and  C5_7 
REMARK    5  A    between atoms: C5_7  and  C6_8 
REMARK    6  A    between atoms: C6_8  and  O4_10 
REMARK    7  A    between atoms: O4_10  and  C7_11 
ROOT
HETATM    1  C7  UNL     1      10.985  19.803  46.724  1.00  0.00     0.060 C 
HETATM    2  C8  UNL     1       9.817  20.275  46.362  1.00  0.00     0.006 C 
HETATM    3  C9  UNL     1       8.718  20.309  47.347  1.00  0.00     0.030 C 
HETATM    4  C10 UNL     1       8.883  19.025  48.158  1.00  0.00     0.012 C 
HETATM    5  C11 UNL     1      10.141  19.122  48.989  1.00  0.00     0.032 C 
HETATM    6  C12 UNL     1      11.304  19.287  48.069  1.00  0.00     0.081 C 
HETATM    7  C13 UNL     1      12.404  20.086  48.656  1.00  0.00     0.167 A 
HETATM    8  O5  UNL     1      13.732  19.837  48.614  1.00  0.00    -0.369 OA
HETATM    9  C14 UNL     1      13.093  19.228  49.677  1.00  0.00     0.085 A 
HETATM   10  C15 UNL     1      13.173  17.762  49.625  1.00  0.00     0.049 C 
HETATM   11  C16 UNL     1      12.909  19.906  50.991  1.00  0.00     0.043 C 
HETATM   12  C17 UNL     1      11.724  19.333  51.680  1.00  0.00     0.044 C 
HETATM   13  C18 UNL     1      10.408  19.860  51.387  1.00  0.00     0.096 C 
HETATM   14  C19 UNL     1      10.137  21.085  52.269  1.00  0.00     0.049 C 
HETATM   15  O6  UNL     1       9.404  18.911  51.795  1.00  0.00    -0.284 OA
HETATM   16  C20 UNL     1       8.236  19.458  51.277  1.00  0.00     0.407 C 
HETATM   17  O7  UNL     1       7.080  19.174  51.732  1.00  0.00    -0.229 OA
HETATM   18  O8  UNL     1       8.558  20.318  50.235  1.00  0.00    -0.289 OA
HETATM   19  C21 UNL     1       9.979  20.177  50.021  1.00  0.00     0.174 C 
ENDROOT
BRANCH   1  20
HETATM   20  O4  UNL     1      11.981  19.794  45.763  1.00  0.00    -0.283 OA
BRANCH  20  21
HETATM   21  C6  UNL     1      11.997  19.000  44.640  1.00  0.00     0.264 C 
HETATM   22  O3  UNL     1      11.576  19.479  43.557  1.00  0.00    -0.265 OA
BRANCH  21  23
HETATM   23  C5  UNL     1      12.495  17.585  44.664  1.00  0.00     0.121 C 
BRANCH  23  24
HETATM   24  C4  UNL     1      12.552  17.137  43.224  1.00  0.00     0.121 C 
BRANCH  24  25
HETATM   25  C3  UNL     1      13.591  16.090  42.994  1.00  0.00     0.259 C 
HETATM   26  O2  UNL     1      13.935  15.692  41.870  1.00  0.00    -0.265 OA
BRANCH  25  27
HETATM   27  O1  UNL     1      14.182  15.553  44.113  1.00  0.00    -0.322 OA
BRANCH  27  28
HETATM   28  C2  UNL     1      15.482  15.045  44.168  1.00  0.00     0.174 C 
HETATM   29  C1  UNL     1      16.226  15.541  45.391  1.00  0.00     0.034 C 
ENDBRANCH  27  28
ENDBRANCH  25  27
ENDBRANCH  24  25
ENDBRANCH  23  24
ENDBRANCH  21  23
ENDBRANCH  20  21
ENDBRANCH   1  20
TORSDOF 7
ENDMDL
MODEL 3
REMARK VINA RESULT: -8.291604842      1.020      1.618
REMARK  7 active torsions:
REMARK  status: ('A' for Active; 'I' for Inactive)
REMARK    1  A    between atoms: C2_2  and  O1_3 
REMARK    2  A    between atoms: O1_3  and  C3_4 
REMARK    3  A    between atoms: C3_4  and  C4_6 
REMARK    4  A    between atoms: C4_6  and  C5_7 
REMARK    5  A    between atoms: C5_7  and  C6_8 
REMARK    6  A    between atoms: C6_8  and  O4_10 
REMARK    7  A    between atoms: O4_10  and  C7_11 
ROOT
HETATM    1  C7  UNL     1      12.929  18.865  47.999  1.00  0.00     0.060 C 
HETATM    2  C8  UNL     1      13.455  18.059  48.889  1.00  0.00     0.006 C 
HETATM    3  C9  UNL     1      12.906  18.044  50.259  1.00  0.00     0.030 C 
HETATM    4  C10 UNL     1      12.559  19.501  50.556  1.00  0.00     0.012 C 
HETATM    5  C11 UNL     1      11.397  19.922  49.686  1.00  0.00     0.032 C 
HETATM    6  C12 UNL     1      11.803  19.784  48.257  1.00  0.00     0.081 C 
HETATM    7  C13 UNL     1      10.675  19.446  47.359  1.00  0.00     0.167 A 
HETATM    8  O5  UNL     1      10.385  19.969  46.147  1.00  0.00    -0.369 OA
HETATM    9  C14 UNL     1       9.838  20.681  47.198  1.00  0.00     0.085 A 
HETATM   10  C15 UNL     1      10.347  22.057  47.280  1.00  0.00     0.049 C 
HETATM   11  C16 UNL     1       8.498  20.360  47.766  1.00  0.00     0.043 C 
HETATM   12  C17 UNL     1       8.441  20.812  49.180  1.00  0.00     0.044 C 
HETATM   13  C18 UNL     1       8.933  19.940  50.225  1.00  0.00     0.096 C 
HETATM   14  C19 UNL     1       7.823  18.970  50.651  1.00  0.00     0.049 C 
HETATM   15  O6  UNL     1       9.195  20.709  51.415  1.00  0.00    -0.284 OA
HETATM   16  C20 UNL     1       9.835  19.792  52.239  1.00  0.00     0.407 C 
HETATM   17  O7  UNL     1       9.882  19.916  53.506  1.00  0.00    -0.229 OA
HETATM   18  O8  UNL     1      10.378  18.779  51.459  1.00  0.00    -0.289 OA
HETATM   19  C21 UNL     1      10.177  19.176  50.086  1.00  0.00     0.174 C 
ENDROOT
BRANCH   1  20
HETATM   20  O4  UNL     1      13.481  18.841  46.730  1.00  0.00    -0.283 OA
BRANCH  20  21
HETATM   21  C6  UNL     1      13.517  17.747  45.897  1.00  0.00     0.264 C 
HETATM   22  O3  UNL     1      14.273  16.787  46.197  1.00  0.00    -0.265 OA
BRANCH  21  23
HETATM   23  C5  UNL     1      12.692  17.660  44.647  1.00  0.00     0.121 C 
BRANCH  23  24
HETATM   24  C4  UNL     1      13.133  16.401  43.942  1.00  0.00     0.121 C 
BRANCH  24  25
HETATM   25  C3  UNL     1      13.156  16.560  42.457  1.00  0.00     0.259 C 
HETATM   26  O2  UNL     1      13.907  15.918  41.705  1.00  0.00    -0.265 OA
BRANCH  25  27
HETATM   27  O1  UNL     1      12.284  17.478  41.922  1.00  0.00    -0.322 OA
BRANCH  27  28
HETATM   28  C2  UNL     1      11.288  17.188  40.987  1.00  0.00     0.174 C 
HETATM   29  C1  UNL     1      11.562  17.850  39.652  1.00  0.00     0.034 C 
ENDBRANCH  27  28
ENDBRANCH  25  27
ENDBRANCH  24  25
ENDBRANCH  23  24
ENDBRANCH  21  23
ENDBRANCH  20  21
ENDBRANCH   1  20
TORSDOF 7
ENDMDL
MODEL 4
REMARK VINA RESULT: -8.214966245      1.199      1.514
REMARK  7 active torsions:
REMARK  status: ('A' for Active; 'I' for Inactive)
REMARK    1  A    between atoms: C2_2  and  O1_3 
REMARK    2  A    between atoms: O1_3  and  C3_4 
REMARK    3  A    between atoms: C3_4  and  C4_6 
REMARK    4  A    between atoms: C4_6  and  C5_7 
REMARK    5  A    between atoms: C5_7  and  C6_8 
REMARK    6  A    between atoms: C6_8  and  O4_10 
REMARK    7  A    between atoms: O4_10  and  C7_11 
ROOT
HETATM    1  C7  UNL     1      12.908  18.820  47.763  1.00  0.00     0.060 C 
HETATM    2  C8  UNL     1      13.452  17.990  48.619  1.00  0.00     0.006 C 
HETATM    3  C9  UNL     1      12.976  17.982  50.016  1.00  0.00     0.030 C 
HETATM    4  C10 UNL     1      12.696  19.448  50.340  1.00  0.00     0.012 C 
HETATM    5  C11 UNL     1      11.505  19.915  49.535  1.00  0.00     0.032 C 
HETATM    6  C12 UNL     1      11.830  19.774  48.086  1.00  0.00     0.081 C 
HETATM    7  C13 UNL     1      10.645  19.482  47.248  1.00  0.00     0.167 A 
HETATM    8  O5  UNL     1      10.309  20.024  46.056  1.00  0.00    -0.369 OA
HETATM    9  C14 UNL     1       9.843  20.746  47.138  1.00  0.00     0.085 A 
HETATM   10  C15 UNL     1      10.403  22.103  47.202  1.00  0.00     0.049 C 
HETATM   11  C16 UNL     1       8.525  20.466  47.775  1.00  0.00     0.043 C 
HETATM   12  C17 UNL     1       8.558  20.909  49.192  1.00  0.00     0.044 C 
HETATM   13  C18 UNL     1       9.075  20.013  50.205  1.00  0.00     0.096 C 
HETATM   14  C19 UNL     1       7.956  19.078  50.683  1.00  0.00     0.049 C 
HETATM   15  O6  UNL     1       9.425  20.762  51.384  1.00  0.00    -0.284 OA
HETATM   16  C20 UNL     1      10.076  19.817  52.167  1.00  0.00     0.407 C 
HETATM   17  O7  UNL     1      10.194  19.930  53.430  1.00  0.00    -0.229 OA
HETATM   18  O8  UNL     1      10.542  18.793  51.353  1.00  0.00    -0.289 OA
HETATM   19  C21 UNL     1      10.283  19.208  49.995  1.00  0.00     0.174 C 
ENDROOT
BRANCH   1  20
HETATM   20  O4  UNL     1      13.391  18.787  46.466  1.00  0.00    -0.283 OA
BRANCH  20  21
HETATM   21  C6  UNL     1      13.297  17.717  45.608  1.00  0.00     0.264 C 
HETATM   22  O3  UNL     1      12.299  17.641  44.847  1.00  0.00    -0.265 OA
BRANCH  21  23
HETATM   23  C5  UNL     1      14.338  16.638  45.550  1.00  0.00     0.121 C 
BRANCH  23  24
HETATM   24  C4  UNL     1      14.124  15.919  44.241  1.00  0.00     0.121 C 
BRANCH  24  25
HETATM   25  C3  UNL     1      15.189  14.911  43.965  1.00  0.00     0.259 C 
HETATM   26  O2  UNL     1      15.984  14.492  44.823  1.00  0.00    -0.265 OA
BRANCH  25  27
HETATM   27  O1  UNL     1      15.271  14.437  42.678  1.00  0.00    -0.322 OA
BRANCH  27  28
HETATM   28  C2  UNL     1      14.713  13.238  42.226  1.00  0.00     0.174 C 
HETATM   29  C1  UNL     1      15.760  12.156  42.071  1.00  0.00     0.034 C 
ENDBRANCH  27  28
ENDBRANCH  25  27
ENDBRANCH  24  25
ENDBRANCH  23  24
ENDBRANCH  21  23
ENDBRANCH  20  21
ENDBRANCH   1  20
TORSDOF 7
ENDMDL
MODEL 5
REMARK VINA RESULT: -8.210756967      1.603      3.534
REMARK  7 active torsions:
REMARK  status: ('A' for Active; 'I' for Inactive)
REMARK    1  A    between atoms: C2_2  and  O1_3 
REMARK    2  A    between atoms: O1_3  and  C3_4 
REMARK    3  A    between atoms: C3_4  and  C4_6 
REMARK    4  A    between atoms: C4_6  and  C5_7 
REMARK    5  A    between atoms: C5_7  and  C6_8 
REMARK    6  A    between atoms: C6_8  and  O4_10 
REMARK    7  A    between atoms: O4_10  and  C7_11 
ROOT
HETATM    1  C7  UNL     1      10.950  19.748  46.762  1.00  0.00     0.060 C 
HETATM    2  C8  UNL     1       9.793  20.252  46.408  1.00  0.00     0.006 C 
HETATM    3  C9  UNL     1       8.708  20.333  47.406  1.00  0.00     0.030 C 
HETATM    4  C10 UNL     1       8.843  19.056  48.233  1.00  0.00     0.012 C 
HETATM    5  C11 UNL     1      10.114  19.124  49.047  1.00  0.00     0.032 C 
HETATM    6  C12 UNL     1      11.270  19.241  48.111  1.00  0.00     0.081 C 
HETATM    7  C13 UNL     1      12.402  20.013  48.672  1.00  0.00     0.167 A 
HETATM    8  O5  UNL     1      13.721  19.722  48.617  1.00  0.00    -0.369 OA
HETATM    9  C14 UNL     1      13.077  19.147  49.697  1.00  0.00     0.085 A 
HETATM   10  C15 UNL     1      13.111  17.679  49.664  1.00  0.00     0.049 C 
HETATM   11  C16 UNL     1      12.931  19.849  51.003  1.00  0.00     0.043 C 
HETATM   12  C17 UNL     1      11.738  19.323  51.714  1.00  0.00     0.044 C 
HETATM   13  C18 UNL     1      10.436  19.886  51.431  1.00  0.00     0.096 C 
HETATM   14  C19 UNL     1      10.214  21.132  52.299  1.00  0.00     0.049 C 
HETATM   15  O6  UNL     1       9.408  18.976  51.865  1.00  0.00    -0.284 OA
HETATM   16  C20 UNL     1       8.251  19.552  51.354  1.00  0.00     0.407 C 
HETATM   17  O7  UNL     1       7.093  19.311  51.827  1.00  0.00    -0.229 OA
HETATM   18  O8  UNL     1       8.585  20.387  50.296  1.00  0.00    -0.289 OA
HETATM   19  C21 UNL     1       9.999  20.199  50.066  1.00  0.00     0.174 C 
ENDROOT
BRANCH   1  20
HETATM   20  O4  UNL     1      11.933  19.694  45.789  1.00  0.00    -0.283 OA
BRANCH  20  21
HETATM   21  C6  UNL     1      12.029  18.737  44.806  1.00  0.00     0.264 C 
HETATM   22  O3  UNL     1      11.717  19.048  43.629  1.00  0.00    -0.265 OA
BRANCH  21  23
HETATM   23  C5  UNL     1      12.490  17.337  45.090  1.00  0.00     0.121 C 
BRANCH  23  24
HETATM   24  C4  UNL     1      13.723  17.469  45.949  1.00  0.00     0.121 C 
BRANCH  24  25
HETATM   25  C3  UNL     1      14.444  16.172  46.113  1.00  0.00     0.259 C 
HETATM   26  O2  UNL     1      14.178  15.341  46.996  1.00  0.00    -0.265 OA
BRANCH  25  27
HETATM   27  O1  UNL     1      15.455  15.912  45.219  1.00  0.00    -0.322 OA
BRANCH  27  28
HETATM   28  C2  UNL     1      15.480  14.839  44.324  1.00  0.00     0.174 C 
HETATM   29  C1  UNL     1      14.710  15.149  43.057  1.00  0.00     0.034 C 
ENDBRANCH  27  28
ENDBRANCH  25  27
ENDBRANCH  24  25
ENDBRANCH  23  24
ENDBRANCH  21  23
ENDBRANCH  20  21
ENDBRANCH   1  20
TORSDOF 7
ENDMDL
