MODEL 1
REMARK VINA RESULT: -7.639824901      0.000      0.000
REMARK  5 active torsions:
REMARK  status: ('A' for Active; 'I' for Inactive)
REMARK    1  A    between atoms: C2_2  and  C3_3 
REMARK    2  A    between atoms: C5_6  and  C6_7 
REMARK       I    between atoms: C6_7  and  N1_9 
REMARK    3  A    between atoms: C13_17  and  S2_18 
REMARK    4  A    between atoms: S2_18  and  C14_19 
REMARK    5  A    between atoms: C17_25  and  N4_26 
ROOT
HETATM    1  C3  UNL     1      13.300  15.776  43.417  1.00  0.00     0.036 A 
HETATM    2  S1  UNL     1      13.556  16.307  45.019  1.00  0.00    -0.070 SA
HETATM    3  C4  UNL     1      12.682  17.764  44.946  1.00  0.00     0.118 A 
HETATM    4  C5  UNL     1      12.269  18.905  45.658  1.00  0.00     0.102 A 
HETATM    5  C13 UNL     1      11.543  19.611  44.764  1.00  0.00     0.104 A 
HETATM    6  N2  UNL     1      11.531  18.945  43.630  1.00  0.00    -0.284 N 
ATOM      7  H2  UNL     1      11.050  19.264  42.790  1.00  0.00     0.188 HD
HETATM    8  N3  UNL     1      12.231  17.789  43.706  1.00  0.00    -0.225 N 
HETATM    9  C17 UNL     1      12.526  16.788  42.891  1.00  0.00     0.209 A 
ENDROOT
BRANCH   4  10
HETATM   10  C6  UNL     1      12.622  19.135  47.046  1.00  0.00     0.259 C 
HETATM   11  O1  UNL     1      13.814  19.471  47.327  1.00  0.00    -0.267 OA
HETATM   12  N1  UNL     1      11.703  19.003  48.113  1.00  0.00    -0.343 N 
HETATM   13  C7  UNL     1      12.111  19.244  49.471  1.00  0.00     0.157 C 
HETATM   14  C12 UNL     1      10.356  18.627  47.833  1.00  0.00     0.157 C 
HETATM   15  C8  UNL     1      10.908  19.841  50.190  1.00  0.00     0.136 C 
HETATM   16  C9  UNL     1      11.256  20.179  51.636  1.00  0.00     0.041 C 
HETATM   17  O2  UNL     1       9.943  18.871  50.216  1.00  0.00    -0.378 OA
HETATM   18  C10 UNL     1       9.445  18.499  48.996  1.00  0.00     0.136 C 
HETATM   19  C11 UNL     1       8.226  19.398  48.739  1.00  0.00     0.041 C 
ENDBRANCH   4  10
BRANCH   5  20
HETATM   20  S2  UNL     1      10.758  21.169  45.117  1.00  0.00    -0.106 SA
BRANCH  20  21
HETATM   21  C14 UNL     1      10.702  22.186  43.616  1.00  0.00     0.045 C 
HETATM   22  C15 UNL     1      12.056  22.746  43.317  1.00  0.00     0.021 C 
HETATM   23  C16 UNL     1       9.618  23.212  43.654  1.00  0.00     0.021 C 
ENDBRANCH  20  21
ENDBRANCH   5  20
BRANCH   1  24
HETATM   24  C2  UNL     1      13.793  14.524  42.739  1.00  0.00     0.046 C 
HETATM   25  C1  UNL     1      15.179  14.866  42.216  1.00  0.00     0.010 C 
ENDBRANCH   1  24
BRANCH   9  26
HETATM   26  N4  UNL     1      12.100  16.680  41.508  1.00  0.00    -0.095 N 
HETATM   27  O3  UNL     1      12.719  17.216  40.598  1.00  0.00    -0.530 OA
HETATM   28  O4  UNL     1      10.986  15.966  41.220  1.00  0.00    -0.530 OA
ENDBRANCH   9  26
TORSDOF 5
ENDMDL
MODEL 2
REMARK VINA RESULT: -7.353658377      1.186      1.444
REMARK  5 active torsions:
REMARK  status: ('A' for Active; 'I' for Inactive)
REMARK    1  A    between atoms: C2_2  and  C3_3 
REMARK    2  A    between atoms: C5_6  and  C6_7 
REMARK       I    between atoms: C6_7  and  N1_9 
REMARK    3  A    between atoms: C13_17  and  S2_18 
REMARK    4  A    between atoms: S2_18  and  C14_19 
REMARK    5  A    between atoms: C17_25  and  N4_26 
ROOT
HETATM    1  C3  UNL     1      12.840  16.193  43.440  1.00  0.00     0.036 A 
HETATM    2  S1  UNL     1      13.107  16.627  45.069  1.00  0.00    -0.070 SA
HETATM    3  C4  UNL     1      12.410  18.178  45.037  1.00  0.00     0.118 A 
HETATM    4  C5  UNL     1      12.110  19.330  45.787  1.00  0.00     0.102 A 
HETATM    5  C13 UNL     1      11.497  20.151  44.906  1.00  0.00     0.104 A 
HETATM    6  N2  UNL     1      11.442  19.536  43.745  1.00  0.00    -0.284 N 
ATOM      7  H2  UNL     1      11.026  19.941  42.907  1.00  0.00     0.188 HD
HETATM    8  N3  UNL     1      12.001  18.304  43.788  1.00  0.00    -0.225 N 
HETATM    9  C17 UNL     1      12.204  17.309  42.938  1.00  0.00     0.209 A 
ENDROOT
BRANCH   4  10
HETATM   10  C6  UNL     1      12.446  19.462  47.191  1.00  0.00     0.259 C 
HETATM   11  O1  UNL     1      13.613  19.851  47.507  1.00  0.00    -0.267 OA
HETATM   12  N1  UNL     1      11.537  19.178  48.237  1.00  0.00    -0.343 N 
HETATM   13  C7  UNL     1      11.927  19.327  49.613  1.00  0.00     0.157 C 
HETATM   14  C12 UNL     1      10.218  18.740  47.917  1.00  0.00     0.157 C 
HETATM   15  C8  UNL     1      10.687  19.780  50.373  1.00  0.00     0.136 C 
HETATM   16  C9  UNL     1      11.010  20.014  51.845  1.00  0.00     0.041 C 
HETATM   17  O2  UNL     1       9.788  18.749  50.309  1.00  0.00    -0.378 OA
HETATM   18  C10 UNL     1       9.317  18.452  49.059  1.00  0.00     0.136 C 
HETATM   19  C11 UNL     1       8.041  19.287  48.872  1.00  0.00     0.041 C 
ENDBRANCH   4  10
BRANCH   5  20
HETATM   20  S2  UNL     1      10.887  21.773  45.305  1.00  0.00    -0.106 SA
BRANCH  20  21
HETATM   21  C14 UNL     1       9.543  21.647  46.517  1.00  0.00     0.045 C 
HETATM   22  C15 UNL     1       8.233  21.974  45.876  1.00  0.00     0.021 C 
HETATM   23  C16 UNL     1       9.816  22.421  47.765  1.00  0.00     0.021 C 
ENDBRANCH  20  21
ENDBRANCH   5  20
BRANCH   1  24
HETATM   24  C2  UNL     1      13.205  14.920  42.722  1.00  0.00     0.046 C 
HETATM   25  C1  UNL     1      14.684  15.051  42.393  1.00  0.00     0.010 C 
ENDBRANCH   1  24
BRANCH   9  26
HETATM   26  N4  UNL     1      11.808  17.306  41.542  1.00  0.00    -0.095 N 
HETATM   27  O3  UNL     1      12.028  18.260  40.807  1.00  0.00    -0.530 OA
HETATM   28  O4  UNL     1      11.179  16.216  41.041  1.00  0.00    -0.530 OA
ENDBRANCH   9  26
TORSDOF 5
ENDMDL
MODEL 3
REMARK VINA RESULT: -7.332623734      3.888      8.383
REMARK  5 active torsions:
REMARK  status: ('A' for Active; 'I' for Inactive)
REMARK    1  A    between atoms: C2_2  and  C3_3 
REMARK    2  A    between atoms: C5_6  and  C6_7 
REMARK       I    between atoms: C6_7  and  N1_9 
REMARK    3  A    between atoms: C13_17  and  S2_18 
REMARK    4  A    between atoms: S2_18  and  C14_19 
REMARK    5  A    between atoms: C17_25  and  N4_26 
ROOT
HETATM    1  C3  UNL     1       8.822  21.374  51.590  1.00  0.00     0.036 A 
HETATM    2  S1  UNL     1       8.291  21.859  50.043  1.00  0.00    -0.070 SA
HETATM    3  C4  UNL     1       9.323  20.888  49.103  1.00  0.00     0.118 A 
HETATM    4  C5  UNL     1       9.703  20.523  47.799  1.00  0.00     0.102 A 
HETATM    5  C13 UNL     1      10.682  19.608  47.980  1.00  0.00     0.104 A 
HETATM    6  N2  UNL     1      10.860  19.451  49.273  1.00  0.00    -0.284 N 
ATOM      7  H2  UNL     1      11.545  18.814  49.679  1.00  0.00     0.188 HD
HETATM    8  N3  UNL     1      10.031  20.232  50.005  1.00  0.00    -0.225 N 
HETATM    9  C17 UNL     1       9.804  20.454  51.291  1.00  0.00     0.209 A 
ENDROOT
BRANCH   4  10
HETATM   10  C6  UNL     1       9.087  21.089  46.615  1.00  0.00     0.259 C 
HETATM   11  O1  UNL     1       8.071  20.511  46.118  1.00  0.00    -0.267 OA
HETATM   12  N1  UNL     1       9.560  22.259  45.977  1.00  0.00    -0.343 N 
HETATM   13  C7  UNL     1       8.907  22.774  44.804  1.00  0.00     0.157 C 
HETATM   14  C12 UNL     1      10.698  22.934  46.509  1.00  0.00     0.157 C 
HETATM   15  C8  UNL     1       9.028  24.291  44.866  1.00  0.00     0.136 C 
HETATM   16  C9  UNL     1       8.321  24.939  43.680  1.00  0.00     0.041 C 
HETATM   17  O2  UNL     1      10.361  24.585  44.758  1.00  0.00    -0.378 OA
HETATM   18  C10 UNL     1      11.148  24.150  45.790  1.00  0.00     0.136 C 
HETATM   19  C11 UNL     1      11.201  25.303  46.804  1.00  0.00     0.041 C 
ENDBRANCH   4  10
BRANCH   5  20
HETATM   20  S2  UNL     1      11.545  18.789  46.658  1.00  0.00    -0.106 SA
BRANCH  20  21
HETATM   21  C14 UNL     1      12.081  17.142  47.196  1.00  0.00     0.045 C 
HETATM   22  C15 UNL     1      12.860  16.469  46.112  1.00  0.00     0.021 C 
HETATM   23  C16 UNL     1      10.959  16.318  47.737  1.00  0.00     0.021 C 
ENDBRANCH  20  21
ENDBRANCH   5  20
BRANCH   1  24
HETATM   24  C2  UNL     1       8.347  21.830  52.946  1.00  0.00     0.046 C 
HETATM   25  C1  UNL     1       7.211  20.888  53.314  1.00  0.00     0.010 C 
ENDBRANCH   1  24
BRANCH   9  26
HETATM   26  N4  UNL     1      10.499  19.808  52.388  1.00  0.00    -0.095 N 
HETATM   27  O3  UNL     1      10.093  18.765  52.885  1.00  0.00    -0.530 OA
HETATM   28  O4  UNL     1      11.629  20.377  52.874  1.00  0.00    -0.530 OA
ENDBRANCH   9  26
TORSDOF 5
ENDMDL
MODEL 4
REMARK VINA RESULT: -7.296486998      4.302      6.483
REMARK  5 active torsions:
REMARK  status: ('A' for Active; 'I' for Inactive)
REMARK    1  A    between atoms: C2_2  and  C3_3 
REMARK    2  A    between atoms: C5_6  and  C6_7 
REMARK       I    between atoms: C6_7  and  N1_9 
REMARK    3  A    between atoms: C13_17  and  S2_18 
REMARK    4  A    between atoms: S2_18  and  C14_19 
REMARK    5  A    between atoms: C17_25  and  N4_26 
ROOT
HETATM    1  C3  UNL     1      12.617  17.809  47.607  1.00  0.00     0.036 A 
HETATM    2  S1  UNL     1      11.248  18.620  46.990  1.00  0.00    -0.070 SA
HETATM    3  C4  UNL     1      10.588  19.162  48.461  1.00  0.00     0.118 A 
HETATM    4  C5  UNL     1       9.539  19.876  49.068  1.00  0.00     0.102 A 
HETATM    5  C13 UNL     1       9.816  19.815  50.390  1.00  0.00     0.104 A 
HETATM    6  N2  UNL     1      10.926  19.127  50.544  1.00  0.00    -0.284 N 
ATOM      7  H2  UNL     1      11.354  18.934  51.449  1.00  0.00     0.188 HD
HETATM    8  N3  UNL     1      11.436  18.704  49.363  1.00  0.00    -0.225 N 
HETATM    9  C17 UNL     1      12.489  18.005  48.965  1.00  0.00     0.209 A 
ENDROOT
BRANCH   4  10
HETATM   10  C6  UNL     1       8.467  20.490  48.311  1.00  0.00     0.259 C 
HETATM   11  O1  UNL     1       7.367  19.867  48.191  1.00  0.00    -0.267 OA
HETATM   12  N1  UNL     1       8.580  21.757  47.692  1.00  0.00    -0.343 N 
HETATM   13  C7  UNL     1       7.481  22.317  46.952  1.00  0.00     0.157 C 
HETATM   14  C12 UNL     1       9.801  22.484  47.807  1.00  0.00     0.157 C 
HETATM   15  C8  UNL     1       7.540  23.825  47.153  1.00  0.00     0.136 C 
HETATM   16  C9  UNL     1       6.380  24.512  46.442  1.00  0.00     0.041 C 
HETATM   17  O2  UNL     1       8.697  24.256  46.561  1.00  0.00    -0.378 OA
HETATM   18  C10 UNL     1       9.857  23.802  47.128  1.00  0.00     0.136 C 
HETATM   19  C11 UNL     1      10.261  24.852  48.175  1.00  0.00     0.041 C 
ENDBRANCH   4  10
BRANCH   5  20
HETATM   20  S2  UNL     1       8.814  20.558  51.658  1.00  0.00    -0.106 SA
BRANCH  20  21
HETATM   21  C14 UNL     1       9.149  22.338  51.746  1.00  0.00     0.045 C 
HETATM   22  C15 UNL     1       8.098  23.102  51.004  1.00  0.00     0.021 C 
HETATM   23  C16 UNL     1      10.545  22.684  51.345  1.00  0.00     0.021 C 
ENDBRANCH  20  21
ENDBRANCH   5  20
BRANCH   1  24
HETATM   24  C2  UNL     1      13.695  17.063  46.865  1.00  0.00     0.046 C 
HETATM   25  C1  UNL     1      13.199  15.628  46.766  1.00  0.00     0.010 C 
ENDBRANCH   1  24
BRANCH   9  26
HETATM   26  N4  UNL     1      13.501  17.444  49.840  1.00  0.00    -0.095 N 
HETATM   27  O3  UNL     1      14.692  17.686  49.687  1.00  0.00    -0.530 OA
HETATM   28  O4  UNL     1      13.115  16.631  50.852  1.00  0.00    -0.530 OA
ENDBRANCH   9  26
TORSDOF 5
ENDMDL
MODEL 5
REMARK VINA RESULT: -7.133370646      4.298      6.538
REMARK  5 active torsions:
REMARK  status: ('A' for Active; 'I' for Inactive)
REMARK    1  A    between atoms: C2_2  and  C3_3 
REMARK    2  A    between atoms: C5_6  and  C6_7 
REMARK       I    between atoms: C6_7  and  N1_9 
REMARK    3  A    between atoms: C13_17  and  S2_18 
REMARK    4  A    between atoms: S2_18  and  C14_19 
REMARK    5  A    between atoms: C17_25  and  N4_26 
ROOT
HETATM    1  C3  UNL     1      12.276  16.935  47.969  1.00  0.00     0.036 A 
HETATM    2  S1  UNL     1      10.886  17.790  47.469  1.00  0.00    -0.070 SA
HETATM    3  C4  UNL     1      10.732  18.831  48.805  1.00  0.00     0.118 A 
HETATM    4  C5  UNL     1       9.983  19.871  49.384  1.00  0.00     0.102 A 
HETATM    5  C13 UNL     1      10.613  20.125  50.553  1.00  0.00     0.104 A 
HETATM    6  N2  UNL     1      11.639  19.308  50.650  1.00  0.00    -0.284 N 
ATOM      7  H2  UNL     1      12.281  19.295  51.442  1.00  0.00     0.188 HD
HETATM    8  N3  UNL     1      11.745  18.487  49.578  1.00  0.00    -0.225 N 
HETATM    9  C17 UNL     1      12.559  17.519  49.185  1.00  0.00     0.209 A 
ENDROOT
BRANCH   4  10
HETATM   10  C6  UNL     1       8.814  20.445  48.747  1.00  0.00     0.259 C 
HETATM   11  O1  UNL     1       7.717  19.806  48.791  1.00  0.00    -0.267 OA
HETATM   12  N1  UNL     1       8.829  21.688  48.074  1.00  0.00    -0.343 N 
HETATM   13  C7  UNL     1       7.637  22.208  47.460  1.00  0.00     0.157 C 
HETATM   14  C12 UNL     1      10.044  22.432  48.006  1.00  0.00     0.157 C 
HETATM   15  C8  UNL     1       7.699  23.724  47.597  1.00  0.00     0.136 C 
HETATM   16  C9  UNL     1       6.447  24.371  47.013  1.00  0.00     0.041 C 
HETATM   17  O2  UNL     1       8.765  24.144  46.847  1.00  0.00    -0.378 OA
HETATM   18  C10 UNL     1       9.994  23.724  47.279  1.00  0.00     0.136 C 
HETATM   19  C11 UNL     1      10.511  24.817  48.227  1.00  0.00     0.041 C 
ENDBRANCH   4  10
BRANCH   5  20
HETATM   20  S2  UNL     1      10.098  21.365  51.720  1.00  0.00    -0.106 SA
BRANCH  20  21
HETATM   21  C14 UNL     1       8.291  21.518  51.701  1.00  0.00     0.045 C 
HETATM   22  C15 UNL     1       7.890  22.887  51.253  1.00  0.00     0.021 C 
HETATM   23  C16 UNL     1       7.661  21.094  52.987  1.00  0.00     0.021 C 
ENDBRANCH  20  21
ENDBRANCH   5  20
BRANCH   1  24
HETATM   24  C2  UNL     1      13.013  15.823  47.269  1.00  0.00     0.046 C 
HETATM   25  C1  UNL     1      13.121  16.262  45.817  1.00  0.00     0.010 C 
ENDBRANCH   1  24
BRANCH   9  26
HETATM   26  N4  UNL     1      13.710  17.039  49.928  1.00  0.00    -0.095 N 
HETATM   27  O3  UNL     1      14.853  17.349  49.617  1.00  0.00    -0.530 OA
HETATM   28  O4  UNL     1      13.510  16.226  50.993  1.00  0.00    -0.530 OA
ENDBRANCH   9  26
TORSDOF 5
ENDMDL
