MODEL 1
REMARK VINA RESULT: -7.251200114      0.000      0.000
REMARK  1 active torsions:
REMARK  status: ('A' for Active; 'I' for Inactive)
REMARK    1  A    between atoms: C12_17  and  O1_18 
ROOT
HETATM    1  C1  UNL     1      20.278   0.292  22.296  1.00  0.00     0.012 C 
HETATM    2  C2  UNL     1      21.562   1.034  22.596  1.00  0.00     0.008 C 
HETATM    3  C3  UNL     1      22.512   0.093  23.237  1.00  0.00     0.094 C 
HETATM    4 BR1  UNL     1      23.267   0.799  24.892  1.00  0.00    -0.089 Br
HETATM    5  C4  UNL     1      23.663  -0.290  22.376  1.00  0.00     0.218 C 
HETATM    6  N1  UNL     1      24.346   0.912  21.937  1.00  0.00    -0.058 N 
ATOM      7  H11 UNL     1      25.336   0.895  21.690  1.00  0.00     0.278 HD
ATOM      8  H12 UNL     1      24.544   1.672  22.589  1.00  0.00     0.278 HD
HETATM    9  C5  UNL     1      23.325   1.047  20.920  1.00  0.00     0.148 C 
HETATM   10  C6  UNL     1      23.887   1.373  19.584  1.00  0.00     0.041 C 
HETATM   11  C7  UNL     1      23.101   2.426  18.840  1.00  0.00     0.003 C 
HETATM   12  C8  UNL     1      23.439   3.711  19.513  1.00  0.00     0.011 C 
HETATM   13  C9  UNL     1      22.408   4.162  20.525  1.00  0.00     0.064 C 
HETATM   14  C10 UNL     1      22.940   5.502  20.968  1.00  0.00     0.180 C 
HETATM   15  F1  UNL     1      23.494   6.135  19.871  1.00  0.00    -0.249 F 
HETATM   16  C11 UNL     1      21.951   6.444  21.535  1.00  0.00     0.073 C 
HETATM   17  C12 UNL     1      21.620   5.978  22.953  1.00  0.00     0.143 C 
HETATM   18  C13 UNL     1      20.685   4.830  22.830  1.00  0.00     0.004 C 
HETATM   19  C14 UNL     1      20.924   3.645  22.282  1.00  0.00     0.015 C 
HETATM   20  C15 UNL     1      22.235   3.206  21.651  1.00  0.00     0.134 C 
HETATM   21  F2  UNL     1      23.219   3.408  22.603  1.00  0.00    -0.238 F 
HETATM   22  C16 UNL     1      22.117   1.767  21.362  1.00  0.00     0.072 C 
HETATM   23  C17 UNL     1      23.145  -0.453  20.984  1.00  0.00     0.126 C 
HETATM   24 BR2  UNL     1      24.428  -1.467  19.955  1.00  0.00    -0.086 Br
ENDROOT
BRANCH  17  25
HETATM   25  O1  UNL     1      21.063   7.027  23.673  1.00  0.00    -0.392 OA
ATOM     26  H1  UNL     1      21.541   7.147  24.485  1.00  0.00     0.210 HD
ENDBRANCH  17  25
TORSDOF 1
ENDMDL
MODEL 2
REMARK VINA RESULT: -7.157101708      3.378      5.313
REMARK  1 active torsions:
REMARK  status: ('A' for Active; 'I' for Inactive)
REMARK    1  A    between atoms: C12_17  and  O1_18 
ROOT
HETATM    1  C1  UNL     1      25.921   3.369  20.267  1.00  0.00     0.012 C 
HETATM    2  C2  UNL     1      24.572   3.468  19.588  1.00  0.00     0.008 C 
HETATM    3  C3  UNL     1      23.829   2.207  19.831  1.00  0.00     0.094 C 
HETATM    4 BR1  UNL     1      23.122   1.426  18.189  1.00  0.00    -0.089 Br
HETATM    5  C4  UNL     1      22.677   2.350  20.762  1.00  0.00     0.218 C 
HETATM    6  N1  UNL     1      21.790   3.383  20.263  1.00  0.00    -0.058 N 
ATOM      7  H11 UNL     1      20.797   3.380  20.494  1.00  0.00     0.278 HD
ATOM      8  H12 UNL     1      21.539   3.428  19.276  1.00  0.00     0.278 HD
HETATM    9  C5  UNL     1      22.690   4.353  20.850  1.00  0.00     0.148 C 
HETATM   10  C6  UNL     1      21.974   5.418  21.599  1.00  0.00     0.041 C 
HETATM   11  C7  UNL     1      22.531   6.801  21.360  1.00  0.00     0.003 C 
HETATM   12  C8  UNL     1      22.065   7.175  19.995  1.00  0.00     0.011 C 
HETATM   13  C9  UNL     1      23.101   6.957  18.914  1.00  0.00     0.064 C 
HETATM   14  C10 UNL     1      22.417   7.498  17.683  1.00  0.00     0.180 C 
HETATM   15  F1  UNL     1      21.684   8.613  18.047  1.00  0.00    -0.249 F 
HETATM   16  C11 UNL     1      23.302   7.925  16.577  1.00  0.00     0.073 C 
HETATM   17  C12 UNL     1      23.816   6.666  15.878  1.00  0.00     0.143 C 
HETATM   18  C13 UNL     1      24.897   6.104  16.728  1.00  0.00     0.004 C 
HETATM   19  C14 UNL     1      24.789   5.617  17.959  1.00  0.00     0.015 C 
HETATM   20  C15 UNL     1      23.508   5.533  18.772  1.00  0.00     0.134 C 
HETATM   21  F2  UNL     1      22.590   4.850  17.994  1.00  0.00    -0.238 F 
HETATM   22  C16 UNL     1      23.812   4.748  19.980  1.00  0.00     0.072 C 
HETATM   23  C17 UNL     1      23.093   3.289  21.847  1.00  0.00     0.126 C 
HETATM   24 BR2  UNL     1      21.891   3.085  23.345  1.00  0.00    -0.086 Br
ENDROOT
BRANCH  17  25
HETATM   25  O1  UNL     1      24.272   6.991  14.606  1.00  0.00    -0.392 OA
ATOM     26  H1  UNL     1      24.125   6.260  14.017  1.00  0.00     0.210 HD
ENDBRANCH  17  25
TORSDOF 1
ENDMDL
MODEL 3
REMARK VINA RESULT: -6.984396209      2.869      4.655
REMARK  1 active torsions:
REMARK  status: ('A' for Active; 'I' for Inactive)
REMARK    1  A    between atoms: C12_17  and  O1_18 
ROOT
HETATM    1  C1  UNL     1      23.593   1.605  24.388  1.00  0.00     0.012 C 
HETATM    2  C2  UNL     1      22.637   1.867  23.245  1.00  0.00     0.008 C 
HETATM    3  C3  UNL     1      21.287   1.395  23.642  1.00  0.00     0.094 C 
HETATM    4 BR1  UNL     1      20.479   0.223  22.308  1.00  0.00    -0.089 Br
HETATM    5  C4  UNL     1      20.310   2.489  23.892  1.00  0.00     0.218 C 
HETATM    6  N1  UNL     1      20.235   3.334  22.716  1.00  0.00    -0.058 N 
ATOM      7  H11 UNL     1      19.394   3.873  22.507  1.00  0.00     0.278 HD
ATOM      8  H12 UNL     1      20.182   2.930  21.780  1.00  0.00     0.278 HD
HETATM    9  C5  UNL     1      21.441   3.985  23.181  1.00  0.00     0.148 C 
HETATM   10  C6  UNL     1      21.364   5.465  23.093  1.00  0.00     0.041 C 
HETATM   11  C7  UNL     1      22.630   6.105  22.574  1.00  0.00     0.003 C 
HETATM   12  C8  UNL     1      22.637   5.822  21.112  1.00  0.00     0.011 C 
HETATM   13  C9  UNL     1      23.496   4.639  20.722  1.00  0.00     0.064 C 
HETATM   14  C10 UNL     1      23.401   4.641  19.217  1.00  0.00     0.180 C 
HETATM   15  F1  UNL     1      23.388   5.954  18.783  1.00  0.00    -0.249 F 
HETATM   16  C11 UNL     1      24.505   3.976  18.491  1.00  0.00     0.073 C 
HETATM   17  C12 UNL     1      24.303   2.465  18.615  1.00  0.00     0.143 C 
HETATM   18  C13 UNL     1      24.757   2.074  19.974  1.00  0.00     0.004 C 
HETATM   19  C14 UNL     1      24.236   2.440  21.140  1.00  0.00     0.015 C 
HETATM   20  C15 UNL     1      23.041   3.359  21.329  1.00  0.00     0.134 C 
HETATM   21  F2  UNL     1      22.006   2.820  20.585  1.00  0.00    -0.238 F 
HETATM   22  C16 UNL     1      22.690   3.326  22.758  1.00  0.00     0.072 C 
HETATM   23  C17 UNL     1      21.041   3.592  24.586  1.00  0.00     0.126 C 
HETATM   24 BR2  UNL     1      19.754   4.767  25.420  1.00  0.00    -0.086 Br
ENDROOT
BRANCH  17  25
HETATM   25  O1  UNL     1      25.021   1.813  17.620  1.00  0.00    -0.392 OA
ATOM     26  H1  UNL     1      25.738   1.328  18.009  1.00  0.00     0.210 HD
ENDBRANCH  17  25
TORSDOF 1
ENDMDL
MODEL 4
REMARK VINA RESULT: -6.983554664      2.987      4.854
REMARK  1 active torsions:
REMARK  status: ('A' for Active; 'I' for Inactive)
REMARK    1  A    between atoms: C12_17  and  O1_18 
ROOT
HETATM    1  C1  UNL     1      26.020   3.368  19.906  1.00  0.00     0.012 C 
HETATM    2  C2  UNL     1      24.563   3.480  19.511  1.00  0.00     0.008 C 
HETATM    3  C3  UNL     1      23.957   2.127  19.556  1.00  0.00     0.094 C 
HETATM    4 BR1  UNL     1      23.001   1.679  17.916  1.00  0.00    -0.089 Br
HETATM    5  C4  UNL     1      22.996   1.927  20.675  1.00  0.00     0.218 C 
HETATM    6  N1  UNL     1      21.970   2.949  20.604  1.00  0.00    -0.058 N 
ATOM      7  H11 UNL     1      21.040   2.788  20.992  1.00  0.00     0.278 HD
ATOM      8  H12 UNL     1      21.534   3.196  19.716  1.00  0.00     0.278 HD
HETATM    9  C5  UNL     1      22.904   3.845  21.253  1.00  0.00     0.148 C 
HETATM   10  C6  UNL     1      22.280   4.625  22.352  1.00  0.00     0.041 C 
HETATM   11  C7  UNL     1      22.696   6.077  22.372  1.00  0.00     0.003 C 
HETATM   12  C8  UNL     1      21.959   6.707  21.241  1.00  0.00     0.011 C 
HETATM   13  C9  UNL     1      22.782   6.856  19.981  1.00  0.00     0.064 C 
HETATM   14  C10 UNL     1      21.846   7.593  19.056  1.00  0.00     0.180 C 
HETATM   15  F1  UNL     1      21.129   8.510  19.803  1.00  0.00    -0.249 F 
HETATM   16  C11 UNL     1      22.477   8.356  17.957  1.00  0.00     0.073 C 
HETATM   17  C12 UNL     1      22.926   7.356  16.891  1.00  0.00     0.143 C 
HETATM   18  C13 UNL     1      24.179   6.727  17.380  1.00  0.00     0.004 C 
HETATM   19  C14 UNL     1      24.337   5.959  18.452  1.00  0.00     0.015 C 
HETATM   20  C15 UNL     1      23.241   5.555  19.424  1.00  0.00     0.134 C 
HETATM   21  F2  UNL     1      22.235   4.979  18.668  1.00  0.00    -0.238 F 
HETATM   22  C16 UNL     1      23.815   4.547  20.330  1.00  0.00     0.072 C 
HETATM   23  C17 UNL     1      23.553   2.627  21.872  1.00  0.00     0.126 C 
HETATM   24 BR2  UNL     1      22.671   1.955  23.454  1.00  0.00    -0.086 Br
ENDROOT
BRANCH  17  25
HETATM   25  O1  UNL     1      23.112   8.013  15.681  1.00  0.00    -0.392 OA
ATOM     26  H1  UNL     1      23.170   7.377  14.978  1.00  0.00     0.210 HD
ENDBRANCH  17  25
TORSDOF 1
ENDMDL
MODEL 5
REMARK VINA RESULT: -6.659212582      2.137      3.905
REMARK  1 active torsions:
REMARK  status: ('A' for Active; 'I' for Inactive)
REMARK    1  A    between atoms: C12_17  and  O1_18 
ROOT
HETATM    1  C1  UNL     1      26.318   3.411  20.092  1.00  0.00     0.012 C 
HETATM    2  C2  UNL     1      24.868   3.452  19.662  1.00  0.00     0.008 C 
HETATM    3  C3  UNL     1      24.786   3.031  18.241  1.00  0.00     0.094 C 
HETATM    4 BR1  UNL     1      23.776   4.287  17.143  1.00  0.00    -0.089 Br
HETATM    5  C4  UNL     1      24.162   1.695  18.039  1.00  0.00     0.218 C 
HETATM    6  N1  UNL     1      22.849   1.687  18.655  1.00  0.00    -0.058 N 
ATOM      7  H11 UNL     1      22.115   1.064  18.320  1.00  0.00     0.278 HD
ATOM      8  H12 UNL     1      22.208   2.471  18.536  1.00  0.00     0.278 HD
HETATM    9  C5  UNL     1      23.512   1.449  19.920  1.00  0.00     0.148 C 
HETATM   10  C6  UNL     1      22.856   0.381  20.717  1.00  0.00     0.041 C 
HETATM   11  C7  UNL     1      22.739   0.712  22.186  1.00  0.00     0.003 C 
HETATM   12  C8  UNL     1      21.646   1.720  22.271  1.00  0.00     0.011 C 
HETATM   13  C9  UNL     1      22.136   3.149  22.351  1.00  0.00     0.064 C 
HETATM   14  C10 UNL     1      20.858   3.930  22.525  1.00  0.00     0.180 C 
HETATM   15  F1  UNL     1      20.008   3.200  23.336  1.00  0.00    -0.249 F 
HETATM   16  C11 UNL     1      20.986   5.264  23.153  1.00  0.00     0.073 C 
HETATM   17  C12 UNL     1      21.562   6.220  22.107  1.00  0.00     0.143 C 
HETATM   18  C13 UNL     1      23.020   5.950  22.024  1.00  0.00     0.004 C 
HETATM   19  C14 UNL     1      23.617   4.833  21.623  1.00  0.00     0.015 C 
HETATM   20  C15 UNL     1      22.914   3.570  21.155  1.00  0.00     0.134 C 
HETATM   21  F2  UNL     1      22.056   3.948  20.137  1.00  0.00    -0.238 F 
HETATM   22  C16 UNL     1      23.949   2.671  20.618  1.00  0.00     0.072 C 
HETATM   23  C17 UNL     1      24.639   0.807  19.142  1.00  0.00     0.126 C 
HETATM   24 BR2  UNL     1      24.332  -1.033  18.639  1.00  0.00    -0.086 Br
ENDROOT
BRANCH  17  25
HETATM   25  O1  UNL     1      21.297   7.533  22.476  1.00  0.00    -0.392 OA
ATOM     26  H1  UNL     1      21.566   8.121  21.781  1.00  0.00     0.210 HD
ENDBRANCH  17  25
TORSDOF 1
ENDMDL
