MODEL 1
REMARK VINA RESULT: -6.918869934      0.000      0.000
REMARK  2 active torsions:
REMARK  status: ('A' for Active; 'I' for Inactive)
REMARK       I    between atoms: C2_4  and  N3_6 
REMARK    1  A    between atoms: C21_25  and  N4_26 
REMARK       I    between atoms: N4_26  and  C22_28 
REMARK    2  A    between atoms: C22_28  and  C23_30 
ROOT
HETATM    1  C1  UNL     1      18.381   1.486  22.742  1.00  0.00     0.148 C 
HETATM    2  N1  UNL     1      19.760   1.691  23.127  1.00  0.00    -0.362 N 
ATOM      3  H1  UNL     1      20.004   1.715  24.117  1.00  0.00     0.161 HD
HETATM    4  C2  UNL     1      20.681   1.843  22.249  1.00  0.00     0.290 C 
HETATM    5  N2  UNL     1      20.311   1.806  20.906  1.00  0.00    -0.057 NA
HETATM    6  N3  UNL     1      22.049   2.027  22.748  1.00  0.00     0.008 N 
HETATM    7  C3  UNL     1      22.135   0.650  23.458  1.00  0.00     0.285 C 
HETATM    8  C4  UNL     1      22.920   1.838  21.701  1.00  0.00     0.253 C 
HETATM    9  C5  UNL     1      24.158   2.603  21.312  1.00  0.00     0.067 C 
HETATM   10  C6  UNL     1      23.782   4.079  20.980  1.00  0.00    -0.057 A 
HETATM   11  C7  UNL     1      24.054   5.060  21.897  1.00  0.00     0.007 A 
HETATM   12  C8  UNL     1      23.398   6.340  21.941  1.00  0.00     0.008 A 
HETATM   13  C9  UNL     1      22.445   6.574  20.998  1.00  0.00    -0.054 A 
HETATM   14  C10 UNL     1      22.193   5.617  20.059  1.00  0.00     0.008 A 
HETATM   15  C11 UNL     1      22.848   4.339  20.011  1.00  0.00     0.007 A 
HETATM   16  C12 UNL     1      21.452   7.682  21.308  1.00  0.00     0.077 C 
HETATM   17  C13 UNL     1      20.793   7.505  22.649  1.00  0.00    -0.048 A 
HETATM   18  C14 UNL     1      20.591   8.761  23.266  1.00  0.00     0.008 A 
HETATM   19  C15 UNL     1      20.043   8.928  24.512  1.00  0.00     0.001 A 
HETATM   20  C16 UNL     1      19.669   7.810  25.199  1.00  0.00     0.001 A 
HETATM   21  C17 UNL     1      19.857   6.589  24.613  1.00  0.00     0.007 A 
HETATM   22  C18 UNL     1      20.426   6.400  23.317  1.00  0.00    -0.051 A 
HETATM   23  C19 UNL     1      20.439   4.921  22.993  1.00  0.00     0.043 C 
HETATM   24  C20 UNL     1      21.041   4.036  23.993  1.00  0.00     0.060 C 
HETATM   25  C21 UNL     1      22.070   2.996  23.764  1.00  0.00     0.300 C 
ENDROOT
BRANCH  25  26
HETATM   26  N4  UNL     1      22.273   2.312  25.108  1.00  0.00    -0.325 N 
HETATM   27  C22 UNL     1      21.281   2.229  26.090  1.00  0.00     0.327 C 
HETATM   28  O1  UNL     1      20.166   2.750  25.841  1.00  0.00    -0.263 OA
ATOM     29  H4  UNL     1      23.182   1.891  25.304  1.00  0.00     0.164 HD
BRANCH  27  30
HETATM   30  C23 UNL     1      21.431   1.578  27.405  1.00  0.00     0.472 C 
HETATM   31  F1  UNL     1      22.753   1.369  27.744  1.00  0.00    -0.162 F 
HETATM   32  F2  UNL     1      20.834   0.329  27.453  1.00  0.00    -0.162 F 
HETATM   33  F3  UNL     1      20.772   2.299  28.412  1.00  0.00    -0.162 F 
ENDBRANCH  27  30
ENDBRANCH  25  26
TORSDOF 2
ENDMDL
MODEL 2
REMARK VINA RESULT: -6.481383197      1.159      1.410
REMARK  2 active torsions:
REMARK  status: ('A' for Active; 'I' for Inactive)
REMARK       I    between atoms: C2_4  and  N3_6 
REMARK    1  A    between atoms: C21_25  and  N4_26 
REMARK       I    between atoms: N4_26  and  C22_28 
REMARK    2  A    between atoms: C22_28  and  C23_30 
ROOT
HETATM    1  C1  UNL     1      18.265   1.429  22.690  1.00  0.00     0.148 C 
HETATM    2  N1  UNL     1      19.645   1.594  23.090  1.00  0.00    -0.362 N 
ATOM      3  H1  UNL     1      19.881   1.600  24.082  1.00  0.00     0.161 HD
HETATM    4  C2  UNL     1      20.577   1.731  22.222  1.00  0.00     0.290 C 
HETATM    5  N2  UNL     1      20.219   1.718  20.875  1.00  0.00    -0.057 NA
HETATM    6  N3  UNL     1      21.945   1.873  22.735  1.00  0.00     0.008 N 
HETATM    7  C3  UNL     1      21.989   0.486  23.429  1.00  0.00     0.285 C 
HETATM    8  C4  UNL     1      22.820   1.672  21.693  1.00  0.00     0.253 C 
HETATM    9  C5  UNL     1      24.081   2.409  21.323  1.00  0.00     0.067 C 
HETATM   10  C6  UNL     1      23.748   3.898  21.005  1.00  0.00    -0.057 A 
HETATM   11  C7  UNL     1      24.038   4.862  21.935  1.00  0.00     0.007 A 
HETATM   12  C8  UNL     1      23.415   6.158  21.989  1.00  0.00     0.008 A 
HETATM   13  C9  UNL     1      22.477   6.427  21.040  1.00  0.00    -0.054 A 
HETATM   14  C10 UNL     1      22.208   5.488  20.088  1.00  0.00     0.008 A 
HETATM   15  C11 UNL     1      22.829   4.193  20.031  1.00  0.00     0.007 A 
HETATM   16  C12 UNL     1      21.510   7.558  21.354  1.00  0.00     0.077 C 
HETATM   17  C13 UNL     1      20.836   7.383  22.688  1.00  0.00    -0.048 A 
HETATM   18  C14 UNL     1      20.661   8.637  23.317  1.00  0.00     0.008 A 
HETATM   19  C15 UNL     1      20.106   8.805  24.560  1.00  0.00     0.001 A 
HETATM   20  C16 UNL     1      19.696   7.688  25.231  1.00  0.00     0.001 A 
HETATM   21  C17 UNL     1      19.858   6.470  24.633  1.00  0.00     0.007 A 
HETATM   22  C18 UNL     1      20.433   6.280  23.340  1.00  0.00    -0.051 A 
HETATM   23  C19 UNL     1      20.410   4.805  22.999  1.00  0.00     0.043 C 
HETATM   24  C20 UNL     1      20.979   3.893  23.994  1.00  0.00     0.060 C 
HETATM   25  C21 UNL     1      21.983   2.829  23.762  1.00  0.00     0.300 C 
ENDROOT
BRANCH  25  26
HETATM   26  N4  UNL     1      22.156   2.125  25.100  1.00  0.00    -0.325 N 
HETATM   27  C22 UNL     1      23.401   1.770  25.629  1.00  0.00     0.327 C 
HETATM   28  O1  UNL     1      24.424   2.050  24.958  1.00  0.00    -0.263 OA
ATOM     29  H4  UNL     1      21.320   1.900  25.639  1.00  0.00     0.164 HD
BRANCH  27  30
HETATM   30  C23 UNL     1      23.618   1.088  26.919  1.00  0.00     0.472 C 
HETATM   31  F1  UNL     1      23.023  -0.158  26.965  1.00  0.00    -0.162 F 
HETATM   32  F2  UNL     1      23.090   1.790  27.989  1.00  0.00    -0.162 F 
HETATM   33  F3  UNL     1      24.984   0.994  27.225  1.00  0.00    -0.162 F 
ENDBRANCH  27  30
ENDBRANCH  25  26
TORSDOF 2
ENDMDL
MODEL 3
REMARK VINA RESULT: -6.378785533      3.034      6.351
REMARK  2 active torsions:
REMARK  status: ('A' for Active; 'I' for Inactive)
REMARK       I    between atoms: C2_4  and  N3_6 
REMARK    1  A    between atoms: C21_25  and  N4_26 
REMARK       I    between atoms: N4_26  and  C22_28 
REMARK    2  A    between atoms: C22_28  and  C23_30 
ROOT
HETATM    1  C1  UNL     1      23.386   4.042  21.731  1.00  0.00     0.148 C 
HETATM    2  N1  UNL     1      22.483   3.288  22.572  1.00  0.00    -0.362 N 
ATOM      3  H1  UNL     1      22.046   3.745  23.372  1.00  0.00     0.161 HD
HETATM    4  C2  UNL     1      22.220   2.057  22.331  1.00  0.00     0.290 C 
HETATM    5  N2  UNL     1      22.836   1.465  21.230  1.00  0.00    -0.057 NA
HETATM    6  N3  UNL     1      21.277   1.391  23.237  1.00  0.00     0.008 N 
HETATM    7  C3  UNL     1      20.078   2.321  22.914  1.00  0.00     0.285 C 
HETATM    8  C4  UNL     1      20.867   0.219  22.647  1.00  0.00     0.253 C 
HETATM    9  C5  UNL     1      20.664  -1.152  23.238  1.00  0.00     0.067 C 
HETATM   10  C6  UNL     1      22.016  -1.688  23.801  1.00  0.00    -0.057 A 
HETATM   11  C7  UNL     1      22.230  -1.669  25.154  1.00  0.00     0.007 A 
HETATM   12  C8  UNL     1      23.528  -1.702  25.775  1.00  0.00     0.008 A 
HETATM   13  C9  UNL     1      24.604  -1.757  24.944  1.00  0.00    -0.054 A 
HETATM   14  C10 UNL     1      24.399  -1.813  23.596  1.00  0.00     0.008 A 
HETATM   15  C11 UNL     1      23.105  -1.782  22.973  1.00  0.00     0.007 A 
HETATM   16  C12 UNL     1      25.936  -1.330  25.541  1.00  0.00     0.077 C 
HETATM   17  C13 UNL     1      25.869   0.030  26.180  1.00  0.00    -0.048 A 
HETATM   18  C14 UNL     1      26.677   0.068  27.339  1.00  0.00     0.008 A 
HETATM   19  C15 UNL     1      26.797   1.159  28.160  1.00  0.00     0.001 A 
HETATM   20  C16 UNL     1      26.090   2.282  27.836  1.00  0.00     0.001 A 
HETATM   21  C17 UNL     1      25.306   2.259  26.716  1.00  0.00     0.007 A 
HETATM   22  C18 UNL     1      25.172   1.130  25.852  1.00  0.00    -0.051 A 
HETATM   23  C19 UNL     1      24.254   1.492  24.703  1.00  0.00     0.043 C 
HETATM   24  C20 UNL     1      22.957   2.071  25.058  1.00  0.00     0.060 C 
HETATM   25  C21 UNL     1      21.624   1.645  24.573  1.00  0.00     0.300 C 
ENDROOT
BRANCH  25  26
HETATM   26  N4  UNL     1      20.631   2.630  25.173  1.00  0.00    -0.325 N 
HETATM   27  C22 UNL     1      20.519   2.875  26.545  1.00  0.00     0.327 C 
HETATM   28  O1  UNL     1      21.283   2.243  27.316  1.00  0.00    -0.263 OA
ATOM     29  H4  UNL     1      20.013   3.139  24.540  1.00  0.00     0.164 HD
BRANCH  27  30
HETATM   30  C23 UNL     1      19.574   3.818  27.171  1.00  0.00     0.472 C 
HETATM   31  F1  UNL     1      18.606   4.260  26.291  1.00  0.00    -0.162 F 
HETATM   32  F2  UNL     1      20.196   4.963  27.642  1.00  0.00    -0.162 F 
HETATM   33  F3  UNL     1      18.983   3.266  28.318  1.00  0.00    -0.162 F 
ENDBRANCH  27  30
ENDBRANCH  25  26
TORSDOF 2
ENDMDL
MODEL 4
REMARK VINA RESULT: -6.348624958      3.728      5.975
REMARK  2 active torsions:
REMARK  status: ('A' for Active; 'I' for Inactive)
REMARK       I    between atoms: C2_4  and  N3_6 
REMARK    1  A    between atoms: C21_25  and  N4_26 
REMARK       I    between atoms: N4_26  and  C22_28 
REMARK    2  A    between atoms: C22_28  and  C23_30 
ROOT
HETATM    1  C1  UNL     1      19.872   3.325  27.961  1.00  0.00     0.148 C 
HETATM    2  N1  UNL     1      21.191   2.761  27.779  1.00  0.00    -0.362 N 
ATOM      3  H1  UNL     1      22.002   3.379  27.768  1.00  0.00     0.161 HD
HETATM    4  C2  UNL     1      21.360   1.500  27.631  1.00  0.00     0.290 C 
HETATM    5  N2  UNL     1      20.230   0.685  27.649  1.00  0.00    -0.057 NA
HETATM    6  N3  UNL     1      22.742   1.031  27.470  1.00  0.00     0.008 N 
HETATM    7  C3  UNL     1      23.231   1.530  28.856  1.00  0.00     0.285 C 
HETATM    8  C4  UNL     1      22.761  -0.331  27.660  1.00  0.00     0.253 C 
HETATM    9  C5  UNL     1      23.494  -1.411  26.908  1.00  0.00     0.067 C 
HETATM   10  C6  UNL     1      23.019  -1.434  25.423  1.00  0.00    -0.057 A 
HETATM   11  C7  UNL     1      23.822  -0.891  24.455  1.00  0.00     0.007 A 
HETATM   12  C8  UNL     1      23.360  -0.446  23.168  1.00  0.00     0.008 A 
HETATM   13  C9  UNL     1      22.031  -0.583  22.911  1.00  0.00    -0.054 A 
HETATM   14  C10 UNL     1      21.230  -1.157  23.855  1.00  0.00     0.008 A 
HETATM   15  C11 UNL     1      21.688  -1.604  25.141  1.00  0.00     0.007 A 
HETATM   16  C12 UNL     1      21.470   0.280  21.793  1.00  0.00     0.077 C 
HETATM   17  C13 UNL     1      21.794   1.738  21.975  1.00  0.00    -0.048 A 
HETATM   18  C14 UNL     1      22.045   2.345  20.723  1.00  0.00     0.008 A 
HETATM   19  C15 UNL     1      22.401   3.659  20.561  1.00  0.00     0.001 A 
HETATM   20  C16 UNL     1      22.522   4.430  21.682  1.00  0.00     0.001 A 
HETATM   21  C17 UNL     1      22.281   3.855  22.898  1.00  0.00     0.007 A 
HETATM   22  C18 UNL     1      21.908   2.489  23.082  1.00  0.00    -0.051 A 
HETATM   23  C19 UNL     1      21.690   2.229  24.558  1.00  0.00     0.043 C 
HETATM   24  C20 UNL     1      22.771   2.632  25.461  1.00  0.00     0.060 C 
HETATM   25  C21 UNL     1      23.412   1.809  26.512  1.00  0.00     0.300 C 
ENDROOT
BRANCH  25  26
HETATM   26  N4  UNL     1      24.401   2.729  27.213  1.00  0.00    -0.325 N 
HETATM   27  C22 UNL     1      25.788   2.611  27.085  1.00  0.00     0.327 C 
HETATM   28  O1  UNL     1      26.233   1.694  26.351  1.00  0.00    -0.263 OA
ATOM     29  H4  UNL     1      24.033   3.472  27.807  1.00  0.00     0.164 HD
BRANCH  27  30
HETATM   30  C23 UNL     1      26.785   3.477  27.743  1.00  0.00     0.472 C 
HETATM   31  F1  UNL     1      27.578   2.786  28.637  1.00  0.00    -0.162 F 
HETATM   32  F2  UNL     1      26.203   4.497  28.476  1.00  0.00    -0.162 F 
HETATM   33  F3  UNL     1      27.576   4.154  26.802  1.00  0.00    -0.162 F 
ENDBRANCH  27  30
ENDBRANCH  25  26
TORSDOF 2
ENDMDL
MODEL 5
REMARK VINA RESULT: -6.245816919      0.779      1.114
REMARK  2 active torsions:
REMARK  status: ('A' for Active; 'I' for Inactive)
REMARK       I    between atoms: C2_4  and  N3_6 
REMARK    1  A    between atoms: C21_25  and  N4_26 
REMARK       I    between atoms: N4_26  and  C22_28 
REMARK    2  A    between atoms: C22_28  and  C23_30 
ROOT
HETATM    1  C1  UNL     1      19.102   0.881  22.527  1.00  0.00     0.148 C 
HETATM    2  N1  UNL     1      20.463   1.238  22.863  1.00  0.00    -0.362 N 
ATOM      3  H1  UNL     1      20.764   1.198  23.836  1.00  0.00     0.161 HD
HETATM    4  C2  UNL     1      21.296   1.604  21.962  1.00  0.00     0.290 C 
HETATM    5  N2  UNL     1      20.850   1.648  20.643  1.00  0.00    -0.057 NA
HETATM    6  N3  UNL     1      22.656   1.928  22.409  1.00  0.00     0.008 N 
HETATM    7  C3  UNL     1      22.972   0.513  22.963  1.00  0.00     0.285 C 
HETATM    8  C4  UNL     1      23.476   1.967  21.306  1.00  0.00     0.253 C 
HETATM    9  C5  UNL     1      24.572   2.934  20.940  1.00  0.00     0.067 C 
HETATM   10  C6  UNL     1      23.981   4.368  20.787  1.00  0.00    -0.057 A 
HETATM   11  C7  UNL     1      24.177   5.282  21.788  1.00  0.00     0.007 A 
HETATM   12  C8  UNL     1      23.359   6.446  22.002  1.00  0.00     0.008 A 
HETATM   13  C9  UNL     1      22.325   6.636  21.138  1.00  0.00    -0.054 A 
HETATM   14  C10 UNL     1      22.144   5.751  20.115  1.00  0.00     0.008 A 
HETATM   15  C11 UNL     1      22.960   4.588  19.898  1.00  0.00     0.007 A 
HETATM   16  C12 UNL     1      21.213   7.558  21.613  1.00  0.00     0.077 C 
HETATM   17  C13 UNL     1      20.672   7.158  22.958  1.00  0.00    -0.048 A 
HETATM   18  C14 UNL     1      20.342   8.306  23.715  1.00  0.00     0.008 A 
HETATM   19  C15 UNL     1      19.857   8.270  24.997  1.00  0.00     0.001 A 
HETATM   20  C16 UNL     1      19.681   7.047  25.579  1.00  0.00     0.001 A 
HETATM   21  C17 UNL     1      19.995   5.930  24.857  1.00  0.00     0.007 A 
HETATM   22  C18 UNL     1      20.500   5.951  23.522  1.00  0.00    -0.051 A 
HETATM   23  C19 UNL     1      20.691   4.528  23.041  1.00  0.00     0.043 C 
HETATM   24  C20 UNL     1      21.469   3.642  23.910  1.00  0.00     0.060 C 
HETATM   25  C21 UNL     1      22.612   2.784  23.521  1.00  0.00     0.300 C 
ENDROOT
BRANCH  25  26
HETATM   26  N4  UNL     1      22.991   2.006  24.772  1.00  0.00    -0.325 N 
HETATM   27  C22 UNL     1      22.080   1.675  25.781  1.00  0.00     0.327 C 
HETATM   28  O1  UNL     1      20.889   2.045  25.638  1.00  0.00    -0.263 OA
ATOM     29  H4  UNL     1      23.961   1.710  24.882  1.00  0.00     0.164 HD
BRANCH  27  30
HETATM   30  C23 UNL     1      22.400   0.924  27.009  1.00  0.00     0.472 C 
HETATM   31  F1  UNL     1      21.354   0.914  27.911  1.00  0.00    -0.162 F 
HETATM   32  F2  UNL     1      23.477   1.459  27.696  1.00  0.00    -0.162 F 
HETATM   33  F3  UNL     1      22.811  -0.385  26.716  1.00  0.00    -0.162 F 
ENDBRANCH  27  30
ENDBRANCH  25  26
TORSDOF 2
ENDMDL
