MODEL 1
REMARK VINA RESULT: -4.887505319      0.000      0.000
REMARK  2 active torsions:
REMARK  status: ('A' for Active; 'I' for Inactive)
REMARK    1  A    between atoms: C10_12  and  O1_13 
REMARK    2  A    between atoms: C12_17  and  N1_18 
ROOT
HETATM    1  C1  UNL     1      21.442  -1.553  26.451  1.00  0.00     0.030 C 
HETATM    2  C2  UNL     1      22.155  -0.637  25.441  1.00  0.00     0.047 C 
HETATM    3 BR1  UNL     1      24.012  -0.730  25.822  1.00  0.00    -0.083 Br
HETATM    4  C3  UNL     1      21.523   0.682  25.531  1.00  0.00     0.023 C 
HETATM    5  C4  UNL     1      21.378   1.399  26.823  1.00  0.00     0.002 C 
HETATM    6  C5  UNL     1      21.074   2.858  26.417  1.00  0.00     0.000 C 
HETATM    7  C6  UNL     1      20.070   3.004  25.336  1.00  0.00     0.000 C 
HETATM    8  C7  UNL     1      20.617   3.375  23.967  1.00  0.00     0.005 C 
HETATM    9  C8  UNL     1      20.076   2.507  22.861  1.00  0.00     0.045 C 
HETATM   10  C9  UNL     1      21.143   1.825  22.007  1.00  0.00    -0.000 C 
HETATM   11 BR2  UNL     1      22.822   2.783  22.060  1.00  0.00    -0.057 Br
HETATM   12  C10 UNL     1      21.201   0.351  22.109  1.00  0.00     0.192 C 
HETATM   13  C11 UNL     1      22.144  -0.442  22.865  1.00  0.00     0.032 C 
HETATM   14 BR3  UNL     1      23.922   0.301  23.087  1.00  0.00    -0.055 Br
HETATM   15  C12 UNL     1      21.772  -1.230  24.074  1.00  0.00     0.241 C 
ENDROOT
BRANCH  15  16
HETATM   16  N1  UNL     1      20.437  -1.748  24.086  1.00  0.00    -0.069 N 
ATOM     17  H13 UNL     1      20.380  -2.645  23.604  1.00  0.00     0.275 HD
ATOM     18  H12 UNL     1      20.163  -2.054  25.019  1.00  0.00     0.275 HD
ATOM     19  H11 UNL     1      19.773  -1.074  23.704  1.00  0.00     0.275 HD
ENDBRANCH  15  16
BRANCH  12  20
HETATM   20  O1  UNL     1      19.865  -0.028  22.433  1.00  0.00    -0.386 OA
ATOM     21  H1  UNL     1      19.335   0.410  21.777  1.00  0.00     0.210 HD
ENDBRANCH  12  20
TORSDOF 2
ENDMDL
MODEL 2
REMARK VINA RESULT: -4.848837620      1.231      1.889
REMARK  2 active torsions:
REMARK  status: ('A' for Active; 'I' for Inactive)
REMARK    1  A    between atoms: C10_12  and  O1_13 
REMARK    2  A    between atoms: C12_17  and  N1_18 
ROOT
HETATM    1  C1  UNL     1      21.129   0.451  27.628  1.00  0.00     0.030 C 
HETATM    2  C2  UNL     1      22.061   0.648  26.419  1.00  0.00     0.047 C 
HETATM    3 BR1  UNL     1      23.718   1.282  27.094  1.00  0.00    -0.083 Br
HETATM    4  C3  UNL     1      21.357   1.512  25.466  1.00  0.00     0.023 C 
HETATM    5  C4  UNL     1      20.788   2.825  25.864  1.00  0.00     0.002 C 
HETATM    6  C5  UNL     1      20.539   3.553  24.526  1.00  0.00     0.000 C 
HETATM    7  C6  UNL     1      19.902   2.722  23.477  1.00  0.00     0.000 C 
HETATM    8  C7  UNL     1      20.816   2.252  22.355  1.00  0.00     0.005 C 
HETATM    9  C8  UNL     1      20.684   0.779  22.066  1.00  0.00     0.045 C 
HETATM   10  C9  UNL     1      21.996  -0.000  22.123  1.00  0.00    -0.000 C 
HETATM   11 BR2  UNL     1      23.523   1.145  21.817  1.00  0.00    -0.057 Br
HETATM   12  C10 UNL     1      22.104  -0.995  23.212  1.00  0.00     0.192 C 
HETATM   13  C11 UNL     1      22.818  -0.858  24.462  1.00  0.00     0.032 C 
HETATM   14 BR3  UNL     1      24.401   0.264  24.439  1.00  0.00    -0.055 Br
HETATM   15  C12 UNL     1      22.143  -0.751  25.786  1.00  0.00     0.241 C 
ENDROOT
BRANCH  15  16
HETATM   16  N1  UNL     1      20.898  -1.450  25.903  1.00  0.00    -0.069 N 
ATOM     17  H13 UNL     1      20.384  -1.162  26.736  1.00  0.00     0.275 HD
ATOM     18  H12 UNL     1      20.231  -1.146  25.194  1.00  0.00     0.275 HD
ATOM     19  H11 UNL     1      21.036  -2.460  25.878  1.00  0.00     0.275 HD
ENDBRANCH  15  16
BRANCH  12  20
HETATM   20  O1  UNL     1      20.756  -1.393  23.454  1.00  0.00    -0.386 OA
ATOM     21  H1  UNL     1      20.375  -0.653  23.912  1.00  0.00     0.210 HD
ENDBRANCH  12  20
TORSDOF 2
ENDMDL
MODEL 3
REMARK VINA RESULT: -4.462796843      1.017      1.140
REMARK  2 active torsions:
REMARK  status: ('A' for Active; 'I' for Inactive)
REMARK    1  A    between atoms: C10_12  and  O1_13 
REMARK    2  A    between atoms: C12_17  and  N1_18 
ROOT
HETATM    1  C1  UNL     1      22.087  -1.808  25.169  1.00  0.00     0.030 C 
HETATM    2  C2  UNL     1      22.492  -0.547  24.386  1.00  0.00     0.047 C 
HETATM    3 BR1  UNL     1      24.381  -0.584  24.214  1.00  0.00    -0.083 Br
HETATM    4  C3  UNL     1      21.911   0.602  25.086  1.00  0.00     0.023 C 
HETATM    5  C4  UNL     1      22.131   0.835  26.537  1.00  0.00     0.002 C 
HETATM    6  C5  UNL     1      21.729   2.310  26.751  1.00  0.00     0.000 C 
HETATM    7  C6  UNL     1      20.463   2.710  26.089  1.00  0.00     0.000 C 
HETATM    8  C7  UNL     1      20.609   3.563  24.839  1.00  0.00     0.005 C 
HETATM    9  C8  UNL     1      19.781   3.062  23.684  1.00  0.00     0.045 C 
HETATM   10  C9  UNL     1      20.568   2.805  22.401  1.00  0.00    -0.000 C 
HETATM   11 BR2  UNL     1      22.196   3.845  22.339  1.00  0.00    -0.057 Br
HETATM   12  C10 UNL     1      20.651   1.392  21.970  1.00  0.00     0.192 C 
HETATM   13  C11 UNL     1      21.765   0.486  22.133  1.00  0.00     0.032 C 
HETATM   14 BR3  UNL     1      23.536   1.280  22.124  1.00  0.00    -0.055 Br
HETATM   15  C12 UNL     1      21.743  -0.688  23.050  1.00  0.00     0.241 C 
ENDROOT
BRANCH  15  16
HETATM   16  N1  UNL     1      20.463  -1.305  23.232  1.00  0.00    -0.069 N 
ATOM     17  H13 UNL     1      20.536  -2.162  23.779  1.00  0.00     0.275 HD
ATOM     18  H12 UNL     1      19.874  -0.764  23.864  1.00  0.00     0.275 HD
ATOM     19  H11 UNL     1      20.000  -1.470  22.337  1.00  0.00     0.275 HD
ENDBRANCH  15  16
BRANCH  12  20
HETATM   20  O1  UNL     1      19.457   0.803  22.482  1.00  0.00    -0.386 OA
ATOM     21  H1  UNL     1      19.325   0.036  21.936  1.00  0.00     0.210 HD
ENDBRANCH  12  20
TORSDOF 2
ENDMDL
MODEL 4
REMARK VINA RESULT: -4.075880271      3.027      4.163
REMARK  2 active torsions:
REMARK  status: ('A' for Active; 'I' for Inactive)
REMARK    1  A    between atoms: C10_12  and  O1_13 
REMARK    2  A    between atoms: C12_17  and  N1_18 
ROOT
HETATM    1  C1  UNL     1      19.911   2.618  23.663  1.00  0.00     0.030 C 
HETATM    2  C2  UNL     1      21.383   2.534  23.223  1.00  0.00     0.047 C 
HETATM    3 BR1  UNL     1      22.392   2.035  24.752  1.00  0.00    -0.083 Br
HETATM    4  C3  UNL     1      21.720   3.813  22.593  1.00  0.00     0.023 C 
HETATM    5  C4  UNL     1      21.487   5.113  23.274  1.00  0.00     0.002 C 
HETATM    6  C5  UNL     1      22.345   6.119  22.478  1.00  0.00     0.000 C 
HETATM    7  C6  UNL     1      22.244   5.991  21.004  1.00  0.00     0.000 C 
HETATM    8  C7  UNL     1      23.436   5.351  20.309  1.00  0.00     0.005 C 
HETATM    9  C8  UNL     1      23.040   4.270  19.337  1.00  0.00     0.045 C 
HETATM   10  C9  UNL     1      23.713   2.921  19.576  1.00  0.00    -0.000 C 
HETATM   11 BR2  UNL     1      25.383   3.114  20.533  1.00  0.00    -0.057 Br
HETATM   12  C10 UNL     1      22.817   1.821  19.995  1.00  0.00     0.192 C 
HETATM   13  C11 UNL     1      22.630   1.297  21.329  1.00  0.00     0.032 C 
HETATM   14 BR3  UNL     1      24.162   1.382  22.517  1.00  0.00    -0.055 Br
HETATM   15  C12 UNL     1      21.374   1.471  22.111  1.00  0.00     0.241 C 
ENDROOT
BRANCH  15  16
HETATM   16  N1  UNL     1      20.170   1.534  21.340  1.00  0.00    -0.069 N 
ATOM     17  H13 UNL     1      19.421   1.999  21.853  1.00  0.00     0.275 HD
ATOM     18  H12 UNL     1      20.257   2.188  20.562  1.00  0.00     0.275 HD
ATOM     19  H11 UNL     1      19.885   0.608  21.019  1.00  0.00     0.275 HD
ENDBRANCH  15  16
BRANCH  12  20
HETATM   20  O1  UNL     1      21.558   2.160  19.417  1.00  0.00    -0.386 OA
ATOM     21  H1  UNL     1      21.777   2.447  18.538  1.00  0.00     0.210 HD
ENDBRANCH  12  20
TORSDOF 2
ENDMDL
MODEL 5
REMARK VINA RESULT: -3.969053620      5.771      7.896
REMARK  2 active torsions:
REMARK  status: ('A' for Active; 'I' for Inactive)
REMARK    1  A    between atoms: C10_12  and  O1_13 
REMARK    2  A    between atoms: C12_17  and  N1_18 
ROOT
HETATM    1  C1  UNL     1      24.218   3.903  17.970  1.00  0.00     0.030 C 
HETATM    2  C2  UNL     1      24.490   2.706  18.898  1.00  0.00     0.047 C 
HETATM    3 BR1  UNL     1      24.794   3.407  20.635  1.00  0.00    -0.083 Br
HETATM    4  C3  UNL     1      25.578   1.930  18.295  1.00  0.00     0.023 C 
HETATM    5  C4  UNL     1      26.870   2.552  17.908  1.00  0.00     0.002 C 
HETATM    6  C5  UNL     1      27.831   1.357  17.732  1.00  0.00     0.000 C 
HETATM    7  C6  UNL     1      27.267   0.215  16.973  1.00  0.00     0.000 C 
HETATM    8  C7  UNL     1      26.874  -1.001  17.798  1.00  0.00     0.005 C 
HETATM    9  C8  UNL     1      25.496  -1.515  17.470  1.00  0.00     0.045 C 
HETATM   10  C9  UNL     1      24.559  -1.633  18.671  1.00  0.00    -0.000 C 
HETATM   11 BR2  UNL     1      25.539  -1.813  20.328  1.00  0.00    -0.057 Br
HETATM   12  C10 UNL     1      23.396  -0.720  18.669  1.00  0.00     0.192 C 
HETATM   13  C11 UNL     1      23.238   0.507  19.417  1.00  0.00     0.032 C 
HETATM   14 BR3  UNL     1      24.142   0.600  21.131  1.00  0.00    -0.055 Br
HETATM   15  C12 UNL     1      23.213   1.856  18.786  1.00  0.00     0.241 C 
ENDROOT
BRANCH  15  16
HETATM   16  N1  UNL     1      22.666   1.909  17.463  1.00  0.00    -0.069 N 
ATOM     17  H13 UNL     1      21.725   2.303  17.463  1.00  0.00     0.275 HD
ATOM     18  H12 UNL     1      23.131   2.615  16.894  1.00  0.00     0.275 HD
ATOM     19  H11 UNL     1      22.688   0.993  17.015  1.00  0.00     0.275 HD
ENDBRANCH  15  16
BRANCH  12  20
HETATM   20  O1  UNL     1      23.135  -0.492  17.286  1.00  0.00    -0.386 OA
ATOM     21  H1  UNL     1      22.421  -1.084  17.084  1.00  0.00     0.210 HD
ENDBRANCH  12  20
TORSDOF 2
ENDMDL
