MODEL 1
REMARK VINA RESULT: -5.821175534      0.000      0.000
REMARK  8 active torsions:
REMARK  status: ('A' for Active; 'I' for Inactive)
REMARK    1  A    between atoms: C2_2  and  C3_3 
REMARK    2  A    between atoms: C2_2  and  C4_6 
REMARK    3  A    between atoms: C2_2  and  N1_9 
REMARK    4  A    between atoms: C3_3  and  O1_4 
REMARK    5  A    between atoms: C4_6  and  O2_7 
REMARK    6  A    between atoms: C5_10  and  C6_11 
REMARK    7  A    between atoms: C6_11  and  N2_12 
REMARK    8  A    between atoms: C12_23  and  N5_24 
ROOT
HETATM    1  N1  UNL     1       4.002  -9.891   9.255  1.00  0.00    -0.315 N 
HETATM    2  C5  UNL     1       2.989 -10.417   9.987  1.00  0.00     0.115 A 
HETATM    3  N3  UNL     1       2.610 -11.643   9.508  1.00  0.00    -0.328 N 
ATOM      4  H3  UNL     1       1.874 -12.243   9.881  1.00  0.00     0.168 HD
HETATM    5  C11 UNL     1       3.377 -11.892   8.480  1.00  0.00     0.152 A 
HETATM    6  N4  UNL     1       3.399 -12.971   7.670  1.00  0.00    -0.174 N 
ATOM      7  H4  UNL     1       2.743 -13.736   7.831  1.00  0.00     0.186 HD
HETATM    8  C12 UNL     1       4.273 -13.049   6.653  1.00  0.00     0.678 A 
HETATM    9  N6  UNL     1       5.138 -12.074   6.414  1.00  0.00    -0.179 N 
ATOM     10  H6  UNL     1       5.797 -12.144   5.639  1.00  0.00     0.185 HD
HETATM   11  C13 UNL     1       5.133 -10.970   7.224  1.00  0.00     0.147 A 
HETATM   12  S1  UNL     1       6.230  -9.823   6.867  1.00  0.00    -0.057 SA
HETATM   13  C14 UNL     1       4.274 -10.835   8.266  1.00  0.00     0.121 A 
ENDROOT
BRANCH   1  14
HETATM   14  C2  UNL     1       4.709  -8.671   9.362  1.00  0.00     0.077 C 
HETATM   15  C1  UNL     1       3.959  -7.762  10.410  1.00  0.00     0.043 C 
BRANCH  14  16
HETATM   16  C3  UNL     1       4.602  -7.692   8.210  1.00  0.00     0.197 C 
BRANCH  16  17
HETATM   17  O1  UNL     1       4.732  -6.372   8.640  1.00  0.00    -0.398 OA
ATOM     18  H1  UNL     1       4.716  -5.762   7.912  1.00  0.00     0.209 HD
ENDBRANCH  16  17
ENDBRANCH  14  16
BRANCH  14  19
HETATM   19  C4  UNL     1       6.023  -8.692  10.112  1.00  0.00     0.197 C 
BRANCH  19  20
HETATM   20  O2  UNL     1       6.018  -7.876  11.252  1.00  0.00    -0.398 OA
ATOM     21  H2  UNL     1       6.862  -7.477  11.430  1.00  0.00     0.209 HD
ENDBRANCH  19  20
ENDBRANCH  14  19
ENDBRANCH   1  14
BRANCH   2  22
HETATM   22  C6  UNL     1       2.323  -9.838  11.163  1.00  0.00     0.349 C 
BRANCH  22  23
HETATM   23  N2  UNL     1       2.561 -10.777  12.328  1.00  0.00     0.099 N 
HETATM   24  C7  UNL     1       1.680 -10.499  13.410  1.00  0.00     0.299 C 
HETATM   25  C8  UNL     1       2.562 -10.308  14.655  1.00  0.00     0.198 C 
HETATM   26  O3  UNL     1       3.417 -11.374  14.830  1.00  0.00    -0.388 OA
HETATM   27  C9  UNL     1       4.302 -11.567  13.792  1.00  0.00     0.198 C 
HETATM   28  C10 UNL     1       3.982 -10.631  12.692  1.00  0.00     0.299 C 
ENDBRANCH  22  23
ENDBRANCH   2  22
BRANCH   8  29
HETATM   29  N5  UNL     1       4.288 -14.082   5.882  1.00  0.00    -0.234 N 
ATOM     30  H52 UNL     1       4.218 -15.006   6.309  1.00  0.00     0.174 HD
ATOM     31  H51 UNL     1       4.367 -13.972   4.872  1.00  0.00     0.174 HD
ENDBRANCH   8  29
TORSDOF 8
ENDMDL
MODEL 2
REMARK VINA RESULT: -5.752677365      1.637      1.968
REMARK  8 active torsions:
REMARK  status: ('A' for Active; 'I' for Inactive)
REMARK    1  A    between atoms: C2_2  and  C3_3 
REMARK    2  A    between atoms: C2_2  and  C4_6 
REMARK    3  A    between atoms: C2_2  and  N1_9 
REMARK    4  A    between atoms: C3_3  and  O1_4 
REMARK    5  A    between atoms: C4_6  and  O2_7 
REMARK    6  A    between atoms: C5_10  and  C6_11 
REMARK    7  A    between atoms: C6_11  and  N2_12 
REMARK    8  A    between atoms: C12_23  and  N5_24 
ROOT
HETATM    1  N1  UNL     1       3.032 -10.702   8.919  1.00  0.00    -0.315 N 
HETATM    2  C5  UNL     1       2.849 -11.131  10.192  1.00  0.00     0.115 A 
HETATM    3  N3  UNL     1       3.137 -12.465  10.318  1.00  0.00    -0.328 N 
ATOM      4  H3  UNL     1       3.078 -13.024  11.169  1.00  0.00     0.168 HD
HETATM    5  C11 UNL     1       3.501 -12.878   9.133  1.00  0.00     0.152 A 
HETATM    6  N4  UNL     1       3.883 -14.109   8.736  1.00  0.00    -0.174 N 
ATOM      7  H4  UNL     1       3.911 -14.871   9.414  1.00  0.00     0.186 HD
HETATM    8  C12 UNL     1       4.227 -14.343   7.459  1.00  0.00     0.678 A 
HETATM    9  N6  UNL     1       4.202 -13.377   6.553  1.00  0.00    -0.179 N 
ATOM     10  H6  UNL     1       4.466 -13.567   5.586  1.00  0.00     0.185 HD
HETATM   11  C13 UNL     1       3.816 -12.120   6.933  1.00  0.00     0.147 A 
HETATM   12  S1  UNL     1       3.820 -10.991   5.763  1.00  0.00    -0.057 SA
HETATM   13  C14 UNL     1       3.459 -11.824   8.209  1.00  0.00     0.121 A 
ENDROOT
BRANCH   1  14
HETATM   14  C2  UNL     1       2.863  -9.435   8.317  1.00  0.00     0.077 C 
HETATM   15  C1  UNL     1       2.415  -8.418   9.436  1.00  0.00     0.043 C 
BRANCH  14  16
HETATM   16  C3  UNL     1       1.649  -9.231   7.434  1.00  0.00     0.197 C 
BRANCH  16  17
HETATM   17  O1  UNL     1       1.071  -7.977   7.630  1.00  0.00    -0.398 OA
ATOM     18  H1  UNL     1       0.407  -7.790   6.978  1.00  0.00     0.209 HD
ENDBRANCH  16  17
ENDBRANCH  14  16
BRANCH  14  19
HETATM   19  C4  UNL     1       4.114  -8.675   7.932  1.00  0.00     0.197 C 
BRANCH  19  20
HETATM   20  O2  UNL     1       3.987  -7.288   8.099  1.00  0.00    -0.398 OA
ATOM     21  H2  UNL     1       4.160  -7.002   8.990  1.00  0.00     0.209 HD
ENDBRANCH  19  20
ENDBRANCH  14  19
ENDBRANCH   1  14
BRANCH   2  22
HETATM   22  C6  UNL     1       2.414 -10.350  11.360  1.00  0.00     0.349 C 
BRANCH  22  23
HETATM   23  N2  UNL     1       2.998 -11.011  12.592  1.00  0.00     0.099 N 
HETATM   24  C7  UNL     1       2.071 -11.014  13.671  1.00  0.00     0.299 C 
HETATM   25  C8  UNL     1       2.794 -10.379  14.871  1.00  0.00     0.198 C 
HETATM   26  O3  UNL     1       4.002 -10.996  15.110  1.00  0.00    -0.388 OA
HETATM   27  C9  UNL     1       4.898 -10.909  14.068  1.00  0.00     0.198 C 
HETATM   28  C10 UNL     1       4.239 -10.278  12.903  1.00  0.00     0.299 C 
ENDBRANCH  22  23
ENDBRANCH   2  22
BRANCH   8  29
HETATM   29  N5  UNL     1       4.591 -15.523   7.087  1.00  0.00    -0.234 N 
ATOM     30  H52 UNL     1       5.296 -16.010   7.641  1.00  0.00     0.174 HD
ATOM     31  H51 UNL     1       4.181 -15.952   6.258  1.00  0.00     0.174 HD
ENDBRANCH   8  29
TORSDOF 8
ENDMDL
MODEL 3
REMARK VINA RESULT: -5.671643182      1.663      2.013
REMARK  8 active torsions:
REMARK  status: ('A' for Active; 'I' for Inactive)
REMARK    1  A    between atoms: C2_2  and  C3_3 
REMARK    2  A    between atoms: C2_2  and  C4_6 
REMARK    3  A    between atoms: C2_2  and  N1_9 
REMARK    4  A    between atoms: C3_3  and  O1_4 
REMARK    5  A    between atoms: C4_6  and  O2_7 
REMARK    6  A    between atoms: C5_10  and  C6_11 
REMARK    7  A    between atoms: C6_11  and  N2_12 
REMARK    8  A    between atoms: C12_23  and  N5_24 
ROOT
HETATM    1  N1  UNL     1       3.816 -10.175   9.267  1.00  0.00    -0.315 N 
HETATM    2  C5  UNL     1       4.470 -10.659  10.352  1.00  0.00     0.115 A 
HETATM    3  N3  UNL     1       4.876 -11.953  10.155  1.00  0.00    -0.328 N 
ATOM      4  H3  UNL     1       5.386 -12.540  10.816  1.00  0.00     0.168 HD
HETATM    5  C11 UNL     1       4.483 -12.285   8.954  1.00  0.00     0.152 A 
HETATM    6  N4  UNL     1       4.641 -13.451   8.294  1.00  0.00    -0.174 N 
ATOM      7  H4  UNL     1       5.130 -14.224   8.746  1.00  0.00     0.186 HD
HETATM    8  C12 UNL     1       4.163 -13.606   7.048  1.00  0.00     0.678 A 
HETATM    9  N6  UNL     1       3.524 -12.623   6.431  1.00  0.00    -0.179 N 
ATOM     10  H6  UNL     1       3.165 -12.753   5.485  1.00  0.00     0.185 HD
HETATM   11  C13 UNL     1       3.351 -11.432   7.083  1.00  0.00     0.147 A 
HETATM   12  S1  UNL     1       2.562 -10.277   6.253  1.00  0.00    -0.057 SA
HETATM   13  C14 UNL     1       3.812 -11.217   8.341  1.00  0.00     0.121 A 
ENDROOT
BRANCH   1  14
HETATM   14  C2  UNL     1       3.222  -8.919   9.007  1.00  0.00     0.077 C 
HETATM   15  C1  UNL     1       3.259  -8.075  10.339  1.00  0.00     0.043 C 
BRANCH  14  16
HETATM   16  C3  UNL     1       1.717  -8.873   8.842  1.00  0.00     0.197 C 
BRANCH  16  17
HETATM   17  O1  UNL     1       1.279  -7.612   8.439  1.00  0.00    -0.398 OA
ATOM     18  H1  UNL     1       1.585  -7.396   7.566  1.00  0.00     0.209 HD
ENDBRANCH  16  17
ENDBRANCH  14  16
BRANCH  14  19
HETATM   19  C4  UNL     1       4.022  -7.926   8.192  1.00  0.00     0.197 C 
BRANCH  19  20
HETATM   20  O2  UNL     1       3.996  -6.629   8.726  1.00  0.00    -0.398 OA
ATOM     21  H2  UNL     1       4.837  -6.351   9.070  1.00  0.00     0.209 HD
ENDBRANCH  19  20
ENDBRANCH  14  19
ENDBRANCH   1  14
BRANCH   2  22
HETATM   22  C6  UNL     1       4.768  -9.970  11.616  1.00  0.00     0.349 C 
BRANCH  22  23
HETATM   23  N2  UNL     1       4.110 -10.758  12.730  1.00  0.00     0.099 N 
HETATM   24  C7  UNL     1       2.693 -10.758  12.602  1.00  0.00     0.299 C 
HETATM   25  C8  UNL     1       2.132 -10.267  13.948  1.00  0.00     0.198 C 
HETATM   26  O3  UNL     1       2.644 -10.996  14.998  1.00  0.00    -0.388 OA
HETATM   27  C9  UNL     1       4.013 -10.913  15.131  1.00  0.00     0.198 C 
HETATM   28  C10 UNL     1       4.573 -10.153  13.992  1.00  0.00     0.299 C 
ENDBRANCH  22  23
ENDBRANCH   2  22
BRANCH   8  29
HETATM   29  N5  UNL     1       4.318 -14.723   6.423  1.00  0.00    -0.234 N 
ATOM     30  H52 UNL     1       4.923 -15.432   6.840  1.00  0.00     0.174 HD
ATOM     31  H51 UNL     1       3.846 -14.888   5.535  1.00  0.00     0.174 HD
ENDBRANCH   8  29
TORSDOF 8
ENDMDL
MODEL 4
REMARK VINA RESULT: -5.572493368      3.037      5.776
REMARK  8 active torsions:
REMARK  status: ('A' for Active; 'I' for Inactive)
REMARK    1  A    between atoms: C2_2  and  C3_3 
REMARK    2  A    between atoms: C2_2  and  C4_6 
REMARK    3  A    between atoms: C2_2  and  N1_9 
REMARK    4  A    between atoms: C3_3  and  O1_4 
REMARK    5  A    between atoms: C4_6  and  O2_7 
REMARK    6  A    between atoms: C5_10  and  C6_11 
REMARK    7  A    between atoms: C6_11  and  N2_12 
REMARK    8  A    between atoms: C12_23  and  N5_24 
ROOT
HETATM    1  N1  UNL     1       3.323 -10.506   9.165  1.00  0.00    -0.315 N 
HETATM    2  C5  UNL     1       4.655 -10.592   9.403  1.00  0.00     0.115 A 
HETATM    3  N3  UNL     1       4.915 -10.750  10.739  1.00  0.00    -0.328 N 
ATOM      4  H3  UNL     1       5.833 -10.839  11.176  1.00  0.00     0.168 HD
HETATM    5  C11 UNL     1       3.757 -10.763  11.343  1.00  0.00     0.152 A 
HETATM    6  N4  UNL     1       3.478 -10.895  12.656  1.00  0.00    -0.174 N 
ATOM      7  H4  UNL     1       4.240 -11.001  13.325  1.00  0.00     0.186 HD
HETATM    8  C12 UNL     1       2.207 -10.887  13.093  1.00  0.00     0.678 A 
HETATM    9  N6  UNL     1       1.193 -10.750  12.251  1.00  0.00    -0.179 N 
ATOM     10  H6  UNL     1       0.232 -10.746  12.595  1.00  0.00     0.185 HD
HETATM   11  C13 UNL     1       1.453 -10.614  10.914  1.00  0.00     0.147 A 
HETATM   12  S1  UNL     1       0.153 -10.458   9.950  1.00  0.00    -0.057 SA
HETATM   13  C14 UNL     1       2.715 -10.616  10.415  1.00  0.00     0.121 A 
ENDROOT
BRANCH   1  14
HETATM   14  C2  UNL     1       2.587 -10.339   7.969  1.00  0.00     0.077 C 
HETATM   15  C1  UNL     1       3.613 -10.183   6.781  1.00  0.00     0.043 C 
BRANCH  14  16
HETATM   16  C3  UNL     1       1.898  -9.008   7.747  1.00  0.00     0.197 C 
BRANCH  16  17
HETATM   17  O1  UNL     1       2.698  -7.938   8.146  1.00  0.00    -0.398 OA
ATOM     18  H1  UNL     1       3.035  -8.059   9.026  1.00  0.00     0.209 HD
ENDBRANCH  16  17
ENDBRANCH  14  16
BRANCH  14  19
HETATM   19  C4  UNL     1       1.899 -11.560   7.399  1.00  0.00     0.197 C 
BRANCH  19  20
HETATM   20  O2  UNL     1       2.796 -12.499   6.870  1.00  0.00    -0.398 OA
ATOM     21  H2  UNL     1       3.702 -12.317   7.093  1.00  0.00     0.209 HD
ENDBRANCH  19  20
ENDBRANCH  14  19
ENDBRANCH   1  14
BRANCH   2  22
HETATM   22  C6  UNL     1       5.756 -10.548   8.430  1.00  0.00     0.349 C 
BRANCH  22  23
HETATM   23  N2  UNL     1       6.737  -9.493   8.901  1.00  0.00     0.099 N 
HETATM   24  C7  UNL     1       6.311  -8.185   8.536  1.00  0.00     0.299 C 
HETATM   25  C8  UNL     1       7.486  -7.537   7.784  1.00  0.00     0.198 C 
HETATM   26  O3  UNL     1       8.650  -7.611   8.517  1.00  0.00    -0.388 OA
HETATM   27  C9  UNL     1       9.067  -8.895   8.790  1.00  0.00     0.198 C 
HETATM   28  C10 UNL     1       8.042  -9.855   8.322  1.00  0.00     0.299 C 
ENDBRANCH  22  23
ENDBRANCH   2  22
BRANCH   8  29
HETATM   29  N5  UNL     1       1.948 -11.013  14.349  1.00  0.00    -0.234 N 
ATOM     30  H52 UNL     1       2.001 -11.944  14.764  1.00  0.00     0.174 HD
ATOM     31  H51 UNL     1       1.696 -10.199  14.909  1.00  0.00     0.174 HD
ENDBRANCH   8  29
TORSDOF 8
ENDMDL
MODEL 5
REMARK VINA RESULT: -5.562366469      2.885      4.116
REMARK  8 active torsions:
REMARK  status: ('A' for Active; 'I' for Inactive)
REMARK    1  A    between atoms: C2_2  and  C3_3 
REMARK    2  A    between atoms: C2_2  and  C4_6 
REMARK    3  A    between atoms: C2_2  and  N1_9 
REMARK    4  A    between atoms: C3_3  and  O1_4 
REMARK    5  A    between atoms: C4_6  and  O2_7 
REMARK    6  A    between atoms: C5_10  and  C6_11 
REMARK    7  A    between atoms: C6_11  and  N2_12 
REMARK    8  A    between atoms: C12_23  and  N5_24 
ROOT
HETATM    1  N1  UNL     1       5.870  -8.596   9.267  1.00  0.00    -0.315 N 
HETATM    2  C5  UNL     1       5.543  -8.982  10.525  1.00  0.00     0.115 A 
HETATM    3  N3  UNL     1       6.621  -9.514  11.181  1.00  0.00    -0.328 N 
ATOM      4  H3  UNL     1       6.638  -9.877  12.135  1.00  0.00     0.168 HD
HETATM    5  C11 UNL     1       7.624  -9.465  10.345  1.00  0.00     0.152 A 
HETATM    6  N4  UNL     1       8.901  -9.866  10.516  1.00  0.00    -0.174 N 
ATOM      7  H4  UNL     1       9.186 -10.277  11.405  1.00  0.00     0.186 HD
HETATM    8  C12 UNL     1       9.802  -9.731   9.528  1.00  0.00     0.678 A 
HETATM    9  N6  UNL     1       9.466  -9.203   8.361  1.00  0.00    -0.179 N 
ATOM     10  H6  UNL     1      10.159  -9.105   7.618  1.00  0.00     0.185 HD
HETATM   11  C13 UNL     1       8.176  -8.790   8.165  1.00  0.00     0.147 A 
HETATM   12  S1  UNL     1       7.849  -8.146   6.708  1.00  0.00    -0.057 SA
HETATM   13  C14 UNL     1       7.223  -8.900   9.126  1.00  0.00     0.121 A 
ENDROOT
BRANCH   1  14
HETATM   14  C2  UNL     1       5.106  -8.008   8.232  1.00  0.00     0.077 C 
HETATM   15  C1  UNL     1       3.731  -7.540   8.845  1.00  0.00     0.043 C 
BRANCH  14  16
HETATM   16  C3  UNL     1       4.502  -8.931   7.193  1.00  0.00     0.197 C 
BRANCH  16  17
HETATM   17  O1  UNL     1       3.110  -8.859   7.185  1.00  0.00    -0.398 OA
ATOM     18  H1  UNL     1       2.720  -9.615   6.762  1.00  0.00     0.209 HD
ENDBRANCH  16  17
ENDBRANCH  14  16
BRANCH  14  19
HETATM   19  C4  UNL     1       5.521  -6.633   7.756  1.00  0.00     0.197 C 
BRANCH  19  20
HETATM   20  O2  UNL     1       4.832  -5.597   8.403  1.00  0.00    -0.398 OA
ATOM     21  H2  UNL     1       5.398  -4.879   8.662  1.00  0.00     0.209 HD
ENDBRANCH  19  20
ENDBRANCH  14  19
ENDBRANCH   1  14
BRANCH   2  22
HETATM   22  C6  UNL     1       4.240  -8.877  11.197  1.00  0.00     0.349 C 
BRANCH  22  23
HETATM   23  N2  UNL     1       3.727 -10.286  11.417  1.00  0.00     0.099 N 
HETATM   24  C7  UNL     1       3.291 -10.877  10.199  1.00  0.00     0.299 C 
HETATM   25  C8  UNL     1       1.852 -11.368  10.441  1.00  0.00     0.198 C 
HETATM   26  O3  UNL     1       1.780 -12.166  11.561  1.00  0.00    -0.388 OA
HETATM   27  C9  UNL     1       2.143 -11.536  12.731  1.00  0.00     0.198 C 
HETATM   28  C10 UNL     1       2.654 -10.182  12.422  1.00  0.00     0.299 C 
ENDBRANCH  22  23
ENDBRANCH   2  22
BRANCH   8  29
HETATM   29  N5  UNL     1      11.020 -10.117   9.699  1.00  0.00    -0.234 N 
ATOM     30  H52 UNL     1      11.185 -11.051  10.075  1.00  0.00     0.174 HD
ATOM     31  H51 UNL     1      11.795  -9.499   9.461  1.00  0.00     0.174 HD
ENDBRANCH   8  29
TORSDOF 8
ENDMDL
