MODEL 1
REMARK VINA RESULT: -7.215635679      0.000      0.000
REMARK  5 active torsions:
REMARK  status: ('A' for Active; 'I' for Inactive)
REMARK    1  A    between atoms: N1_1  and  C1_4 
REMARK    2  A    between atoms: N3_8  and  C3_10 
REMARK    3  A    between atoms: C3_10  and  C4_11 
REMARK    4  A    between atoms: C4_11  and  N4_12 
REMARK    5  A    between atoms: N10_30  and  C12_31 
ROOT
HETATM    1  C1  UNL     1       1.326 -10.983  11.521  1.00  0.00     0.145 A 
HETATM    2  N2  UNL     1       2.025 -11.480  10.454  1.00  0.00    -0.175 N 
ATOM      3  H2  UNL     1       1.577 -11.534   9.540  1.00  0.00     0.186 HD
HETATM    4  C2  UNL     1       3.291 -11.896  10.598  1.00  0.00     0.681 A 
HETATM    5  N3  UNL     1       3.925 -12.353   9.606  1.00  0.00    -0.224 N 
ATOM      6  H3  UNL     1       4.883 -12.650   9.795  1.00  0.00     0.177 HD
HETATM    7  N8  UNL     1       3.930 -11.846  11.786  1.00  0.00    -0.174 N 
ATOM      8  H8  UNL     1       4.894 -12.167  11.875  1.00  0.00     0.186 HD
HETATM    9  C9  UNL     1       3.261 -11.362  12.847  1.00  0.00     0.157 A 
HETATM   10  C10 UNL     1       1.949 -10.917  12.750  1.00  0.00     0.123 A 
HETATM   11  N9  UNL     1       1.542 -10.486  13.979  1.00  0.00    -0.346 N 
ATOM     12  H9  UNL     1       0.627 -10.105  14.221  1.00  0.00     0.167 HD
HETATM   13  C11 UNL     1       2.588 -10.663  14.809  1.00  0.00     0.188 A 
HETATM   14  N10 UNL     1       3.635 -11.190  14.149  1.00  0.00    -0.299 N 
ENDROOT
BRANCH   5  15
HETATM   15  C3  UNL     1       3.486 -12.512   8.255  1.00  0.00     0.157 C 
BRANCH  15  16
HETATM   16  C4  UNL     1       3.773 -11.193   7.528  1.00  0.00     0.141 C 
BRANCH  16  17
HETATM   17  N4  UNL     1       2.511 -10.591   7.152  1.00  0.00    -0.375 N 
HETATM   18  C5  UNL     1       2.180  -9.479   7.699  1.00  0.00     0.104 A 
HETATM   19  C6  UNL     1       2.984  -8.851   8.622  1.00  0.00     0.093 A 
HETATM   20  N7  UNL     1       1.011  -8.920   7.353  1.00  0.00    -0.339 N 
HETATM   21  C7  UNL     1       2.563  -7.652   9.171  1.00  0.00     0.120 A 
HETATM   22  N5  UNL     1       3.394  -7.012  10.118  1.00  0.00    -0.083 NA
HETATM   23  N6  UNL     1       1.392  -7.136   8.795  1.00  0.00    -0.341 N 
HETATM   24  C8  UNL     1       0.621  -7.746   7.904  1.00  0.00     0.183 A 
ATOM     25  H6  UNL     1       1.082  -6.253   9.200  1.00  0.00     0.167 HD
ATOM     26  H7  UNL     1       0.411  -9.383   6.671  1.00  0.00     0.168 HD
ATOM     27  H4  UNL     1       1.901 -11.041   6.469  1.00  0.00     0.161 HD
ENDBRANCH  16  17
ENDBRANCH  15  16
ENDBRANCH   5  15
BRANCH   1  28
HETATM   28  N1  UNL     1       0.099 -10.577  11.392  1.00  0.00    -0.383 N 
ATOM     29  H12 UNL     1      -0.097  -9.665  10.981  1.00  0.00     0.157 HD
ATOM     30  H11 UNL     1      -0.684 -11.156  11.694  1.00  0.00     0.157 HD
ENDBRANCH   1  28
BRANCH  14  31
HETATM   31  C12 UNL     1       4.916 -11.516  14.705  1.00  0.00     0.230 C 
HETATM   32  C13 UNL     1       5.259 -12.965  14.630  1.00  0.00     0.056 C 
HETATM   33  C14 UNL     1       6.669 -12.969  14.107  1.00  0.00     0.031 C 
HETATM   34  C15 UNL     1       6.777 -11.610  13.463  1.00  0.00     0.170 C 
HETATM   35  O1  UNL     1       5.887 -10.779  14.097  1.00  0.00    -0.366 OA
ENDBRANCH  14  31
TORSDOF 5
ENDMDL
MODEL 2
REMARK VINA RESULT: -7.177081072      4.044      5.559
REMARK  5 active torsions:
REMARK  status: ('A' for Active; 'I' for Inactive)
REMARK    1  A    between atoms: N1_1  and  C1_4 
REMARK    2  A    between atoms: N3_8  and  C3_10 
REMARK    3  A    between atoms: C3_10  and  C4_11 
REMARK    4  A    between atoms: C4_11  and  N4_12 
REMARK    5  A    between atoms: N10_30  and  C12_31 
ROOT
HETATM    1  C1  UNL     1       2.002  -8.874   8.184  1.00  0.00     0.145 A 
HETATM    2  N2  UNL     1       3.135  -8.123   8.018  1.00  0.00    -0.175 N 
ATOM      3  H2  UNL     1       3.300  -7.649   7.130  1.00  0.00     0.186 HD
HETATM    4  C2  UNL     1       4.030  -8.003   9.009  1.00  0.00     0.681 A 
HETATM    5  N3  UNL     1       5.071  -7.308   8.843  1.00  0.00    -0.224 N 
ATOM      6  H3  UNL     1       5.703  -7.266   9.642  1.00  0.00     0.177 HD
HETATM    7  N8  UNL     1       3.860  -8.609  10.203  1.00  0.00    -0.174 N 
ATOM      8  H8  UNL     1       4.552  -8.505  10.945  1.00  0.00     0.186 HD
HETATM    9  C9  UNL     1       2.754  -9.352  10.387  1.00  0.00     0.157 A 
HETATM   10  C10 UNL     1       1.797  -9.506   9.392  1.00  0.00     0.123 A 
HETATM   11  N9  UNL     1       0.799 -10.307   9.868  1.00  0.00    -0.346 N 
ATOM     12  H9  UNL     1      -0.040 -10.600   9.366  1.00  0.00     0.167 HD
HETATM   13  C11 UNL     1       1.141 -10.632  11.129  1.00  0.00     0.188 A 
HETATM   14  N10 UNL     1       2.315 -10.069  11.463  1.00  0.00    -0.299 N 
ENDROOT
BRANCH   5  15
HETATM   15  C3  UNL     1       5.485  -6.572   7.689  1.00  0.00     0.157 C 
BRANCH  15  16
HETATM   16  C4  UNL     1       6.881  -7.079   7.307  1.00  0.00     0.141 C 
BRANCH  16  17
HETATM   17  N4  UNL     1       7.258  -8.128   8.230  1.00  0.00    -0.375 N 
HETATM   18  C5  UNL     1       8.497  -8.254   8.536  1.00  0.00     0.104 A 
HETATM   19  C6  UNL     1       9.466  -7.426   8.015  1.00  0.00     0.093 A 
HETATM   20  N7  UNL     1       8.850  -9.226   9.390  1.00  0.00    -0.339 N 
HETATM   21  C7  UNL     1      10.784  -7.619   8.390  1.00  0.00     0.120 A 
HETATM   22  N5  UNL     1      11.773  -6.766   7.851  1.00  0.00    -0.083 NA
HETATM   23  N6  UNL     1      11.084  -8.600   9.242  1.00  0.00    -0.341 N 
HETATM   24  C8  UNL     1      10.146  -9.395   9.741  1.00  0.00     0.183 A 
ATOM     25  H6  UNL     1      12.056  -8.742   9.517  1.00  0.00     0.167 HD
ATOM     26  H7  UNL     1       8.136  -9.843   9.777  1.00  0.00     0.168 HD
ATOM     27  H4  UNL     1       6.555  -8.752   8.628  1.00  0.00     0.161 HD
ENDBRANCH  16  17
ENDBRANCH  15  16
ENDBRANCH   5  15
BRANCH   1  28
HETATM   28  N1  UNL     1       1.130  -8.996   7.230  1.00  0.00    -0.383 N 
ATOM     29  H12 UNL     1       0.146  -9.148   7.453  1.00  0.00     0.157 HD
ATOM     30  H11 UNL     1       1.406  -8.941   6.250  1.00  0.00     0.157 HD
ENDBRANCH   1  28
BRANCH  14  31
HETATM   31  C12 UNL     1       2.993 -10.192  12.722  1.00  0.00     0.230 C 
HETATM   32  C13 UNL     1       2.622 -11.413  13.493  1.00  0.00     0.056 C 
HETATM   33  C14 UNL     1       3.948 -11.973  13.931  1.00  0.00     0.031 C 
HETATM   34  C15 UNL     1       4.903 -11.338  12.952  1.00  0.00     0.170 C 
HETATM   35  O1  UNL     1       4.341 -10.159  12.529  1.00  0.00    -0.366 OA
ENDBRANCH  14  31
TORSDOF 5
ENDMDL
MODEL 3
REMARK VINA RESULT: -6.990836938      1.530      2.312
REMARK  5 active torsions:
REMARK  status: ('A' for Active; 'I' for Inactive)
REMARK    1  A    between atoms: N1_1  and  C1_4 
REMARK    2  A    between atoms: N3_8  and  C3_10 
REMARK    3  A    between atoms: C3_10  and  C4_11 
REMARK    4  A    between atoms: C4_11  and  N4_12 
REMARK    5  A    between atoms: N10_30  and  C12_31 
ROOT
HETATM    1  C1  UNL     1       1.522 -10.699  13.074  1.00  0.00     0.145 A 
HETATM    2  N2  UNL     1       1.273 -10.789  11.731  1.00  0.00    -0.175 N 
ATOM      3  H2  UNL     1       0.354 -10.533  11.370  1.00  0.00     0.186 HD
HETATM    4  C2  UNL     1       2.223 -11.210  10.884  1.00  0.00     0.681 A 
HETATM    5  N3  UNL     1       1.981 -11.290   9.647  1.00  0.00    -0.224 N 
ATOM      6  H3  UNL     1       2.754 -11.619   9.068  1.00  0.00     0.177 HD
HETATM    7  N8  UNL     1       3.455 -11.561  11.309  1.00  0.00    -0.174 N 
ATOM      8  H8  UNL     1       4.165 -11.879  10.649  1.00  0.00     0.186 HD
HETATM    9  C9  UNL     1       3.721 -11.480  12.625  1.00  0.00     0.157 A 
HETATM   10  C10 UNL     1       2.771 -11.049  13.542  1.00  0.00     0.123 A 
HETATM   11  N9  UNL     1       3.327 -11.072  14.788  1.00  0.00    -0.346 N 
ATOM     12  H9  UNL     1       2.873 -10.811  15.664  1.00  0.00     0.167 HD
HETATM   13  C11 UNL     1       4.591 -11.508  14.633  1.00  0.00     0.188 A 
HETATM   14  N10 UNL     1       4.851 -11.760  13.338  1.00  0.00    -0.299 N 
ENDROOT
BRANCH   5  15
HETATM   15  C3  UNL     1       0.773 -10.982   8.947  1.00  0.00     0.157 C 
BRANCH  15  16
HETATM   16  C4  UNL     1       0.956  -9.595   8.318  1.00  0.00     0.141 C 
BRANCH  16  17
HETATM   17  N4  UNL     1       2.151  -9.615   7.501  1.00  0.00    -0.375 N 
HETATM   18  C5  UNL     1       3.137  -8.872   7.848  1.00  0.00     0.104 A 
HETATM   19  C6  UNL     1       3.090  -8.068   8.964  1.00  0.00     0.093 A 
HETATM   20  N7  UNL     1       4.245  -8.887   7.092  1.00  0.00    -0.339 N 
HETATM   21  C7  UNL     1       4.193  -7.293   9.278  1.00  0.00     0.120 A 
HETATM   22  N5  UNL     1       4.137  -6.470  10.425  1.00  0.00    -0.083 NA
HETATM   23  N6  UNL     1       5.271  -7.343   8.494  1.00  0.00    -0.341 N 
HETATM   24  C8  UNL     1       5.311  -8.120   7.420  1.00  0.00     0.183 A 
ATOM     25  H6  UNL     1       6.083  -6.771   8.726  1.00  0.00     0.167 HD
ATOM     26  H7  UNL     1       4.285  -9.480   6.263  1.00  0.00     0.168 HD
ATOM     27  H4  UNL     1       2.206 -10.205   6.671  1.00  0.00     0.161 HD
ENDBRANCH  16  17
ENDBRANCH  15  16
ENDBRANCH   5  15
BRANCH   1  28
HETATM   28  N1  UNL     1       0.608 -10.292  13.902  1.00  0.00    -0.383 N 
ATOM     29  H12 UNL     1       0.339  -9.308  13.922  1.00  0.00     0.157 HD
ATOM     30  H11 UNL     1       0.146 -10.939  14.540  1.00  0.00     0.157 HD
ENDBRANCH   1  28
BRANCH  14  31
HETATM   31  C12 UNL     1       6.090 -12.237  12.794  1.00  0.00     0.230 C 
HETATM   32  C13 UNL     1       7.287 -11.477  13.253  1.00  0.00     0.056 C 
HETATM   33  C14 UNL     1       8.266 -12.553  13.636  1.00  0.00     0.031 C 
HETATM   34  C15 UNL     1       7.366 -13.744  13.850  1.00  0.00     0.170 C 
HETATM   35  O1  UNL     1       6.244 -13.560  13.080  1.00  0.00    -0.366 OA
ENDBRANCH  14  31
TORSDOF 5
ENDMDL
MODEL 4
REMARK VINA RESULT: -6.939315706      4.724      6.168
REMARK  5 active torsions:
REMARK  status: ('A' for Active; 'I' for Inactive)
REMARK    1  A    between atoms: N1_1  and  C1_4 
REMARK    2  A    between atoms: N3_8  and  C3_10 
REMARK    3  A    between atoms: C3_10  and  C4_11 
REMARK    4  A    between atoms: C4_11  and  N4_12 
REMARK    5  A    between atoms: N10_30  and  C12_31 
ROOT
HETATM    1  C1  UNL     1       2.476  -9.262   7.611  1.00  0.00     0.145 A 
HETATM    2  N2  UNL     1       3.663  -8.579   7.631  1.00  0.00    -0.175 N 
ATOM      3  H2  UNL     1       4.057  -8.228   6.758  1.00  0.00     0.186 HD
HETATM    4  C2  UNL     1       4.312  -8.367   8.784  1.00  0.00     0.681 A 
HETATM    5  N3  UNL     1       5.406  -7.735   8.789  1.00  0.00    -0.224 N 
ATOM      6  H3  UNL     1       5.840  -7.615   9.704  1.00  0.00     0.177 HD
HETATM    7  N8  UNL     1       3.835  -8.809   9.966  1.00  0.00    -0.174 N 
ATOM      8  H8  UNL     1       4.344  -8.637  10.833  1.00  0.00     0.186 HD
HETATM    9  C9  UNL     1       2.671  -9.483   9.969  1.00  0.00     0.157 A 
HETATM   10  C10 UNL     1       1.960  -9.728   8.801  1.00  0.00     0.123 A 
HETATM   11  N9  UNL     1       0.830 -10.426   9.118  1.00  0.00    -0.346 N 
ATOM     12  H9  UNL     1       0.111 -10.751   8.470  1.00  0.00     0.167 HD
HETATM   13  C11 UNL     1       0.853 -10.601  10.452  1.00  0.00     0.188 A 
HETATM   14  N10 UNL     1       1.952 -10.042  10.987  1.00  0.00    -0.299 N 
ENDROOT
BRANCH   5  15
HETATM   15  C3  UNL     1       6.120  -7.167   7.689  1.00  0.00     0.157 C 
BRANCH  15  16
HETATM   16  C4  UNL     1       7.204  -8.174   7.284  1.00  0.00     0.141 C 
BRANCH  16  17
HETATM   17  N4  UNL     1       8.448  -7.788   7.915  1.00  0.00    -0.375 N 
HETATM   18  C5  UNL     1       9.444  -7.489   7.164  1.00  0.00     0.104 A 
HETATM   19  C6  UNL     1       9.360  -7.524   5.791  1.00  0.00     0.093 A 
HETATM   20  N7  UNL     1      10.599  -7.133   7.746  1.00  0.00    -0.339 N 
HETATM   21  C7  UNL     1      10.476  -7.188   5.043  1.00  0.00     0.120 A 
HETATM   22  N5  UNL     1      10.383  -7.226   3.634  1.00  0.00    -0.083 NA
HETATM   23  N6  UNL     1      11.601  -6.841   5.669  1.00  0.00    -0.341 N 
HETATM   24  C8  UNL     1      11.676  -6.809   6.993  1.00  0.00     0.183 A 
ATOM     25  H6  UNL     1      12.423  -6.594   5.117  1.00  0.00     0.167 HD
ATOM     26  H7  UNL     1      10.666  -7.107   8.763  1.00  0.00     0.168 HD
ATOM     27  H4  UNL     1       8.530  -7.756   8.931  1.00  0.00     0.161 HD
ENDBRANCH  16  17
ENDBRANCH  15  16
ENDBRANCH   5  15
BRANCH   1  28
HETATM   28  N1  UNL     1       1.840  -9.472   6.499  1.00  0.00    -0.383 N 
ATOM     29  H12 UNL     1       2.350  -9.509   5.617  1.00  0.00     0.157 HD
ATOM     30  H11 UNL     1       0.828  -9.604   6.485  1.00  0.00     0.157 HD
ENDBRANCH   1  28
BRANCH  14  31
HETATM   31  C12 UNL     1       2.314 -10.029  12.375  1.00  0.00     0.230 C 
HETATM   32  C13 UNL     1       1.597 -11.044  13.198  1.00  0.00     0.056 C 
HETATM   33  C14 UNL     1       2.691 -11.679  14.012  1.00  0.00     0.031 C 
HETATM   34  C15 UNL     1       3.923 -11.343  13.211  1.00  0.00     0.170 C 
HETATM   35  O1  UNL     1       3.660 -10.194  12.506  1.00  0.00    -0.366 OA
ENDBRANCH  14  31
TORSDOF 5
ENDMDL
MODEL 5
REMARK VINA RESULT: -6.824759397      2.585      4.136
REMARK  5 active torsions:
REMARK  status: ('A' for Active; 'I' for Inactive)
REMARK    1  A    between atoms: N1_1  and  C1_4 
REMARK    2  A    between atoms: N3_8  and  C3_10 
REMARK    3  A    between atoms: C3_10  and  C4_11 
REMARK    4  A    between atoms: C4_11  and  N4_12 
REMARK    5  A    between atoms: N10_30  and  C12_31 
ROOT
HETATM    1  C1  UNL     1       2.122 -10.422  12.240  1.00  0.00     0.145 A 
HETATM    2  N2  UNL     1       1.813 -10.159  10.932  1.00  0.00    -0.175 N 
ATOM      3  H2  UNL     1       0.872 -10.349  10.588  1.00  0.00     0.186 HD
HETATM    4  C2  UNL     1       2.734  -9.655  10.098  1.00  0.00     0.681 A 
HETATM    5  N3  UNL     1       2.437  -9.417   8.894  1.00  0.00    -0.224 N 
ATOM      6  H3  UNL     1       3.191  -9.036   8.322  1.00  0.00     0.177 HD
HETATM    7  N8  UNL     1       3.993  -9.386  10.501  1.00  0.00    -0.174 N 
ATOM      8  H8  UNL     1       4.680  -9.002   9.852  1.00  0.00     0.186 HD
HETATM    9  C9  UNL     1       4.318  -9.637  11.782  1.00  0.00     0.157 A 
HETATM   10  C10 UNL     1       3.400 -10.158  12.685  1.00  0.00     0.123 A 
HETATM   11  N9  UNL     1       4.014 -10.303  13.896  1.00  0.00    -0.346 N 
ATOM     12  H9  UNL     1       3.595 -10.662  14.754  1.00  0.00     0.167 HD
HETATM   13  C11 UNL     1       5.281  -9.876  13.733  1.00  0.00     0.188 A 
HETATM   14  N10 UNL     1       5.487  -9.471  12.468  1.00  0.00    -0.299 N 
ENDROOT
BRANCH   5  15
HETATM   15  C3  UNL     1       1.190  -9.610   8.222  1.00  0.00     0.157 C 
BRANCH  15  16
HETATM   16  C4  UNL     1       1.509 -10.158   6.825  1.00  0.00     0.141 C 
BRANCH  16  17
HETATM   17  N4  UNL     1       1.932 -11.535   6.958  1.00  0.00    -0.375 N 
HETATM   18  C5  UNL     1       3.011 -11.900   6.367  1.00  0.00     0.104 A 
HETATM   19  C6  UNL     1       3.768 -11.025   5.621  1.00  0.00     0.093 A 
HETATM   20  N7  UNL     1       3.405 -13.176   6.487  1.00  0.00    -0.339 N 
HETATM   21  C7  UNL     1       4.921 -11.488   5.012  1.00  0.00     0.120 A 
HETATM   22  N5  UNL     1       5.693 -10.584   4.249  1.00  0.00    -0.083 NA
HETATM   23  N6  UNL     1       5.271 -12.766   5.161  1.00  0.00    -0.341 N 
HETATM   24  C8  UNL     1       4.538 -13.605   5.882  1.00  0.00     0.183 A 
ATOM     25  H6  UNL     1       6.120 -13.106   4.711  1.00  0.00     0.167 HD
ATOM     26  H7  UNL     1       2.848 -13.829   7.037  1.00  0.00     0.168 HD
ATOM     27  H4  UNL     1       1.386 -12.199   7.507  1.00  0.00     0.161 HD
ENDBRANCH  16  17
ENDBRANCH  15  16
ENDBRANCH   5  15
BRANCH   1  28
HETATM   28  N1  UNL     1       1.237 -10.910  13.055  1.00  0.00    -0.383 N 
ATOM     29  H12 UNL     1       0.317 -11.181  12.708  1.00  0.00     0.157 HD
ATOM     30  H11 UNL     1       1.442 -11.031  14.047  1.00  0.00     0.157 HD
ENDBRANCH   1  28
BRANCH  14  31
HETATM   31  C12 UNL     1       6.712  -8.955  11.926  1.00  0.00     0.230 C 
HETATM   32  C13 UNL     1       7.765  -9.989  11.717  1.00  0.00     0.056 C 
HETATM   33  C14 UNL     1       8.272  -9.704  10.330  1.00  0.00     0.031 C 
HETATM   34  C15 UNL     1       7.134  -8.920   9.728  1.00  0.00     0.170 C 
HETATM   35  O1  UNL     1       6.464  -8.303  10.756  1.00  0.00    -0.366 OA
ENDBRANCH  14  31
TORSDOF 5
ENDMDL
