MODEL 1
REMARK VINA RESULT: -6.805089141      0.000      0.000
REMARK  8 active torsions:
REMARK  status: ('A' for Active; 'I' for Inactive)
REMARK    1  A    between atoms: N1_2  and  C2_4 
REMARK    2  A    between atoms: C2_4  and  O1_5 
REMARK    3  A    between atoms: C2_4  and  C10_14 
REMARK    4  A    between atoms: O1_5  and  C3_6 
REMARK    5  A    between atoms: C3_6  and  C4_7 
REMARK    6  A    between atoms: C4_7  and  N2_8 
REMARK    7  A    between atoms: C13_22  and  N6_23 
REMARK    8  A    between atoms: C14_28  and  N8_29 
ROOT
HETATM    1  C10 UNL     1       4.934  -9.402  11.883  1.00  0.00     0.102 A 
HETATM    2  C11 UNL     1       5.786  -9.262  12.959  1.00  0.00     0.138 A 
HETATM    3  N3  UNL     1       7.113  -8.710  12.842  1.00  0.00    -0.081 NA
HETATM    4  N4  UNL     1       5.325  -9.668  14.161  1.00  0.00    -0.295 N 
ATOM      5  H4  UNL     1       5.917  -9.586  14.988  1.00  0.00     0.172 HD
HETATM    6  C12 UNL     1       4.091 -10.179  14.267  1.00  0.00     0.348 A 
HETATM    7  O2  UNL     1       3.666 -10.560  15.410  1.00  0.00    -0.245 OA
HETATM    8  N5  UNL     1       3.236 -10.329  13.235  1.00  0.00    -0.079 N 
HETATM    9  C13 UNL     1       2.021 -10.855  13.441  1.00  0.00     0.702 A 
HETATM   10  N7  UNL     1       1.211 -10.986  12.385  1.00  0.00    -0.022 N 
ATOM     11  H7  UNL     1       0.280 -11.383  12.507  1.00  0.00     0.203 HD
HETATM   12  C14 UNL     1       1.618 -10.600  11.170  1.00  0.00     0.692 A 
HETATM   13  N9  UNL     1       2.844 -10.072  10.976  1.00  0.00    -0.174 N 
ATOM     14  H9  UNL     1       3.133  -9.784  10.040  1.00  0.00     0.186 HD
HETATM   15  C15 UNL     1       3.682  -9.924  12.008  1.00  0.00     0.167 A 
ENDROOT
BRANCH   1  16
HETATM   16  C2  UNL     1       5.475  -8.937  10.566  1.00  0.00     0.159 C 
BRANCH  16  17
HETATM   17  N1  UNL     1       6.339  -9.668  10.010  1.00  0.00    -0.356 N 
HETATM   18  C1  UNL     1       6.609 -10.958   9.675  1.00  0.00     0.120 C 
ATOM     19  H1  UNL     1       7.112  -9.081   9.700  1.00  0.00     0.166 HD
ENDBRANCH  16  17
BRANCH  16  20
HETATM   20  O1  UNL     1       5.119  -7.802   9.925  1.00  0.00    -0.333 OA
BRANCH  20  21
HETATM   21  C3  UNL     1       4.589  -7.601   8.688  1.00  0.00     0.197 C 
BRANCH  21  22
HETATM   22  C4  UNL     1       3.040  -7.794   8.703  1.00  0.00     0.153 C 
BRANCH  22  23
HETATM   23  N2  UNL     1       2.742  -8.791   7.769  1.00  0.00    -0.372 N 
HETATM   24  C5  UNL     1       3.789  -9.576   7.253  1.00  0.00     0.063 C 
HETATM   25  C6  UNL     1       3.458 -11.031   7.523  1.00  0.00     0.045 C 
HETATM   26  C7  UNL     1       2.193 -11.351   6.802  1.00  0.00     0.010 C 
HETATM   27  C8  UNL     1       1.402 -10.168   6.361  1.00  0.00     0.045 C 
HETATM   28  C9  UNL     1       1.429  -9.012   7.341  1.00  0.00     0.063 C 
ENDBRANCH  22  23
ENDBRANCH  21  22
ENDBRANCH  20  21
ENDBRANCH  16  20
ENDBRANCH   1  16
BRANCH   9  29
HETATM   29  N6  UNL     1       1.660 -11.220  14.636  1.00  0.00    -0.233 N 
ATOM     30  H62 UNL     1       1.484 -12.196  14.873  1.00  0.00     0.174 HD
ATOM     31  H61 UNL     1       1.546 -10.523  15.372  1.00  0.00     0.174 HD
ENDBRANCH   9  29
BRANCH  12  32
HETATM   32  N8  UNL     1       0.839 -10.728  10.147  1.00  0.00    -0.234 N 
ATOM     33  H82 UNL     1       1.214 -11.172   9.308  1.00  0.00     0.174 HD
ATOM     34  H81 UNL     1      -0.123 -10.393  10.185  1.00  0.00     0.174 HD
ENDBRANCH  12  32
TORSDOF 8
ENDMDL
MODEL 2
REMARK VINA RESULT: -6.627192080      0.653      1.169
REMARK  8 active torsions:
REMARK  status: ('A' for Active; 'I' for Inactive)
REMARK    1  A    between atoms: N1_2  and  C2_4 
REMARK    2  A    between atoms: C2_4  and  O1_5 
REMARK    3  A    between atoms: C2_4  and  C10_14 
REMARK    4  A    between atoms: O1_5  and  C3_6 
REMARK    5  A    between atoms: C3_6  and  C4_7 
REMARK    6  A    between atoms: C4_7  and  N2_8 
REMARK    7  A    between atoms: C13_22  and  N6_23 
REMARK    8  A    between atoms: C14_28  and  N8_29 
ROOT
HETATM    1  C10 UNL     1       5.010  -9.372  11.890  1.00  0.00     0.102 A 
HETATM    2  C11 UNL     1       5.833  -9.234  12.989  1.00  0.00     0.138 A 
HETATM    3  N3  UNL     1       7.165  -8.688  12.908  1.00  0.00    -0.081 NA
HETATM    4  N4  UNL     1       5.339  -9.639  14.178  1.00  0.00    -0.295 N 
ATOM      5  H4  UNL     1       5.909  -9.558  15.021  1.00  0.00     0.172 HD
HETATM    6  C12 UNL     1       4.101 -10.145  14.252  1.00  0.00     0.348 A 
HETATM    7  O2  UNL     1       3.644 -10.524  15.382  1.00  0.00    -0.245 OA
HETATM    8  N5  UNL     1       3.273 -10.293  13.197  1.00  0.00    -0.079 N 
HETATM    9  C13 UNL     1       2.051 -10.814  13.370  1.00  0.00     0.702 A 
HETATM   10  N7  UNL     1       1.270 -10.944  12.293  1.00  0.00    -0.022 N 
ATOM     11  H7  UNL     1       0.334 -11.337  12.389  1.00  0.00     0.203 HD
HETATM   12  C14 UNL     1       1.711 -10.560  11.089  1.00  0.00     0.692 A 
HETATM   13  N9  UNL     1       2.944 -10.036  10.928  1.00  0.00    -0.174 N 
ATOM     14  H9  UNL     1       3.258  -9.749  10.000  1.00  0.00     0.186 HD
HETATM   15  C15 UNL     1       3.753  -9.890  11.982  1.00  0.00     0.167 A 
ENDROOT
BRANCH   1  16
HETATM   16  C2  UNL     1       5.589  -8.910  10.589  1.00  0.00     0.159 C 
BRANCH  16  17
HETATM   17  N1  UNL     1       6.528  -9.596  10.101  1.00  0.00    -0.356 N 
HETATM   18  C1  UNL     1       7.676  -9.499   9.380  1.00  0.00     0.120 C 
ATOM     19  H1  UNL     1       6.368 -10.577  10.331  1.00  0.00     0.166 HD
ENDBRANCH  16  17
BRANCH  16  20
HETATM   20  O1  UNL     1       5.192  -7.821   9.893  1.00  0.00    -0.333 OA
BRANCH  20  21
HETATM   21  C3  UNL     1       4.208  -7.660   8.967  1.00  0.00     0.197 C 
BRANCH  21  22
HETATM   22  C4  UNL     1       4.570  -8.383   7.631  1.00  0.00     0.153 C 
BRANCH  22  23
HETATM   23  N2  UNL     1       3.765  -9.523   7.550  1.00  0.00    -0.372 N 
HETATM   24  C5  UNL     1       2.374  -9.365   7.404  1.00  0.00     0.063 C 
HETATM   25  C6  UNL     1       1.948 -10.111   6.155  1.00  0.00     0.045 C 
HETATM   26  C7  UNL     1       2.268 -11.554   6.357  1.00  0.00     0.010 C 
HETATM   27  C8  UNL     1       3.220 -11.840   7.468  1.00  0.00     0.045 C 
HETATM   28  C9  UNL     1       4.317 -10.805   7.617  1.00  0.00     0.063 C 
ENDBRANCH  22  23
ENDBRANCH  21  22
ENDBRANCH  20  21
ENDBRANCH  16  20
ENDBRANCH   1  16
BRANCH   9  29
HETATM   29  N6  UNL     1       1.657 -11.178  14.555  1.00  0.00    -0.233 N 
ATOM     30  H62 UNL     1       1.194 -12.071  14.721  1.00  0.00     0.174 HD
ATOM     31  H61 UNL     1       1.807 -10.564  15.356  1.00  0.00     0.174 HD
ENDBRANCH   9  29
BRANCH  12  32
HETATM   32  N8  UNL     1       0.959 -10.685  10.046  1.00  0.00    -0.234 N 
ATOM     33  H82 UNL     1       0.057 -10.210  10.041  1.00  0.00     0.174 HD
ATOM     34  H81 UNL     1       1.267 -11.245   9.251  1.00  0.00     0.174 HD
ENDBRANCH  12  32
TORSDOF 8
ENDMDL
MODEL 3
REMARK VINA RESULT: -6.360743619      2.194      5.332
REMARK  8 active torsions:
REMARK  status: ('A' for Active; 'I' for Inactive)
REMARK    1  A    between atoms: N1_2  and  C2_4 
REMARK    2  A    between atoms: C2_4  and  O1_5 
REMARK    3  A    between atoms: C2_4  and  C10_14 
REMARK    4  A    between atoms: O1_5  and  C3_6 
REMARK    5  A    between atoms: C3_6  and  C4_7 
REMARK    6  A    between atoms: C4_7  and  N2_8 
REMARK    7  A    between atoms: C13_22  and  N6_23 
REMARK    8  A    between atoms: C14_28  and  N8_29 
ROOT
HETATM    1  C10 UNL     1       4.258  -8.764   9.206  1.00  0.00     0.102 A 
HETATM    2  C11 UNL     1       3.618  -7.574   9.486  1.00  0.00     0.138 A 
HETATM    3  N3  UNL     1       4.237  -6.507  10.231  1.00  0.00    -0.081 NA
HETATM    4  N4  UNL     1       2.356  -7.435   9.026  1.00  0.00    -0.295 N 
ATOM      5  H4  UNL     1       1.840  -6.574   9.207  1.00  0.00     0.172 HD
HETATM    6  C12 UNL     1       1.783  -8.428   8.333  1.00  0.00     0.348 A 
HETATM    7  O2  UNL     1       0.589  -8.285   7.903  1.00  0.00    -0.245 OA
HETATM    8  N5  UNL     1       2.382  -9.602   8.044  1.00  0.00    -0.079 N 
HETATM    9  C13 UNL     1       1.724 -10.537   7.346  1.00  0.00     0.702 A 
HETATM   10  N7  UNL     1       2.358 -11.685   7.089  1.00  0.00    -0.022 N 
ATOM     11  H7  UNL     1       1.887 -12.418   6.560  1.00  0.00     0.203 HD
HETATM   12  C14 UNL     1       3.611 -11.876   7.522  1.00  0.00     0.692 A 
HETATM   13  N9  UNL     1       4.262 -10.926   8.224  1.00  0.00    -0.174 N 
ATOM     14  H9  UNL     1       5.217 -11.093   8.544  1.00  0.00     0.186 HD
HETATM   15  C15 UNL     1       3.660  -9.765   8.500  1.00  0.00     0.167 A 
ENDROOT
BRANCH   1  16
HETATM   16  C2  UNL     1       5.657  -8.883   9.727  1.00  0.00     0.159 C 
BRANCH  16  17
HETATM   17  N1  UNL     1       6.542  -8.186   9.160  1.00  0.00    -0.356 N 
HETATM   18  C1  UNL     1       7.031  -7.845   7.939  1.00  0.00     0.120 C 
ATOM     19  H1  UNL     1       7.088  -7.707   9.876  1.00  0.00     0.166 HD
ENDBRANCH  16  17
BRANCH  16  20
HETATM   20  O1  UNL     1       6.051  -9.672  10.751  1.00  0.00    -0.333 OA
BRANCH  20  21
HETATM   21  C3  UNL     1       5.593  -9.777  12.028  1.00  0.00     0.197 C 
BRANCH  21  22
HETATM   22  C4  UNL     1       5.373 -11.272  12.424  1.00  0.00     0.153 C 
BRANCH  22  23
HETATM   23  N2  UNL     1       4.017 -11.419  12.730  1.00  0.00    -0.372 N 
HETATM   24  C5  UNL     1       3.635 -11.572  14.075  1.00  0.00     0.063 C 
HETATM   25  C6  UNL     1       2.635 -10.480  14.404  1.00  0.00     0.045 C 
HETATM   26  C7  UNL     1       1.448 -10.672  13.523  1.00  0.00     0.010 C 
HETATM   27  C8  UNL     1       1.670 -11.561  12.348  1.00  0.00     0.045 C 
HETATM   28  C9  UNL     1       3.045 -11.421  11.725  1.00  0.00     0.063 C 
ENDBRANCH  22  23
ENDBRANCH  21  22
ENDBRANCH  20  21
ENDBRANCH  16  20
ENDBRANCH   1  16
BRANCH   9  29
HETATM   29  N6  UNL     1       0.507 -10.317   6.942  1.00  0.00    -0.233 N 
ATOM     30  H62 UNL     1       0.176  -9.380   6.708  1.00  0.00     0.174 HD
ATOM     31  H61 UNL     1      -0.151 -11.090   6.849  1.00  0.00     0.174 HD
ENDBRANCH   9  29
BRANCH  12  32
HETATM   32  N8  UNL     1       4.226 -12.985   7.277  1.00  0.00    -0.234 N 
ATOM     33  H82 UNL     1       3.766 -13.859   7.531  1.00  0.00     0.174 HD
ATOM     34  H81 UNL     1       5.147 -12.979   6.839  1.00  0.00     0.174 HD
ENDBRANCH  12  32
TORSDOF 8
ENDMDL
MODEL 4
REMARK VINA RESULT: -6.348888885      2.157      5.206
REMARK  8 active torsions:
REMARK  status: ('A' for Active; 'I' for Inactive)
REMARK    1  A    between atoms: N1_2  and  C2_4 
REMARK    2  A    between atoms: C2_4  and  O1_5 
REMARK    3  A    between atoms: C2_4  and  C10_14 
REMARK    4  A    between atoms: O1_5  and  C3_6 
REMARK    5  A    between atoms: C3_6  and  C4_7 
REMARK    6  A    between atoms: C4_7  and  N2_8 
REMARK    7  A    between atoms: C13_22  and  N6_23 
REMARK    8  A    between atoms: C14_28  and  N8_29 
ROOT
HETATM    1  C10 UNL     1       4.784  -9.491   9.467  1.00  0.00     0.102 A 
HETATM    2  C11 UNL     1       4.928  -8.344  10.221  1.00  0.00     0.138 A 
HETATM    3  N3  UNL     1       6.056  -8.111  11.087  1.00  0.00    -0.081 NA
HETATM    4  N4  UNL     1       3.951  -7.418  10.120  1.00  0.00    -0.295 N 
ATOM      5  H4  UNL     1       4.011  -6.553  10.657  1.00  0.00     0.172 HD
HETATM    6  C12 UNL     1       2.903  -7.636   9.313  1.00  0.00     0.348 A 
HETATM    7  O2  UNL     1       1.985  -6.753   9.225  1.00  0.00    -0.245 OA
HETATM    8  N5  UNL     1       2.734  -8.746   8.565  1.00  0.00    -0.079 N 
HETATM    9  C13 UNL     1       1.648  -8.874   7.790  1.00  0.00     0.702 A 
HETATM   10  N7  UNL     1       1.524  -9.993   7.071  1.00  0.00    -0.022 N 
ATOM     11  H7  UNL     1       0.710 -10.124   6.471  1.00  0.00     0.203 HD
HETATM   12  C14 UNL     1       2.464 -10.945   7.134  1.00  0.00     0.692 A 
HETATM   13  N9  UNL     1       3.553 -10.804   7.919  1.00  0.00    -0.174 N 
ATOM     14  H9  UNL     1       4.256 -11.542   7.952  1.00  0.00     0.186 HD
HETATM   15  C15 UNL     1       3.711  -9.697   8.652  1.00  0.00     0.167 A 
ENDROOT
BRANCH   1  16
HETATM   16  C2  UNL     1       5.888 -10.494   9.601  1.00  0.00     0.159 C 
BRANCH  16  17
HETATM   17  N1  UNL     1       7.040 -10.132   9.238  1.00  0.00    -0.356 N 
HETATM   18  C1  UNL     1       7.753  -9.720   8.156  1.00  0.00     0.120 C 
ATOM     19  H1  UNL     1       7.660 -10.159  10.047  1.00  0.00     0.166 HD
ENDBRANCH  16  17
BRANCH  16  20
HETATM   20  O1  UNL     1       5.754 -11.752  10.076  1.00  0.00    -0.333 OA
BRANCH  20  21
HETATM   21  C3  UNL     1       5.006 -12.249  11.098  1.00  0.00     0.197 C 
BRANCH  21  22
HETATM   22  C4  UNL     1       5.408 -11.596  12.458  1.00  0.00     0.153 C 
BRANCH  22  23
HETATM   23  N2  UNL     1       4.236 -11.101  13.038  1.00  0.00    -0.372 N 
HETATM   24  C5  UNL     1       3.105 -10.905  12.225  1.00  0.00     0.063 C 
HETATM   25  C6  UNL     1       1.959 -11.698  12.821  1.00  0.00     0.045 C 
HETATM   26  C7  UNL     1       1.693 -11.158  14.185  1.00  0.00     0.010 C 
HETATM   27  C8  UNL     1       2.783 -10.315  14.753  1.00  0.00     0.045 C 
HETATM   28  C9  UNL     1       4.176 -10.796  14.401  1.00  0.00     0.063 C 
ENDBRANCH  22  23
ENDBRANCH  21  22
ENDBRANCH  20  21
ENDBRANCH  16  20
ENDBRANCH   1  16
BRANCH   9  29
HETATM   29  N6  UNL     1       0.755  -7.929   7.754  1.00  0.00    -0.233 N 
ATOM     30  H62 UNL     1       1.000  -6.948   7.888  1.00  0.00     0.174 HD
ATOM     31  H61 UNL     1      -0.225  -8.155   7.586  1.00  0.00     0.174 HD
ENDBRANCH   9  29
BRANCH  12  32
HETATM   32  N8  UNL     1       2.346 -12.029   6.443  1.00  0.00    -0.234 N 
ATOM     33  H82 UNL     1       1.844 -11.983   5.556  1.00  0.00     0.174 HD
ATOM     34  H81 UNL     1       2.748 -12.904   6.779  1.00  0.00     0.174 HD
ENDBRANCH  12  32
TORSDOF 8
ENDMDL
MODEL 5
REMARK VINA RESULT: -6.238718793      2.119      5.452
REMARK  8 active torsions:
REMARK  status: ('A' for Active; 'I' for Inactive)
REMARK    1  A    between atoms: N1_2  and  C2_4 
REMARK    2  A    between atoms: C2_4  and  O1_5 
REMARK    3  A    between atoms: C2_4  and  C10_14 
REMARK    4  A    between atoms: O1_5  and  C3_6 
REMARK    5  A    between atoms: C3_6  and  C4_7 
REMARK    6  A    between atoms: C4_7  and  N2_8 
REMARK    7  A    between atoms: C13_22  and  N6_23 
REMARK    8  A    between atoms: C14_28  and  N8_29 
ROOT
HETATM    1  C10 UNL     1       4.317  -8.625   9.032  1.00  0.00     0.102 A 
HETATM    2  C11 UNL     1       3.612  -7.510   9.437  1.00  0.00     0.138 A 
HETATM    3  N3  UNL     1       4.204  -6.447  10.212  1.00  0.00    -0.081 NA
HETATM    4  N4  UNL     1       2.315  -7.440   9.074  1.00  0.00    -0.295 N 
ATOM      5  H4  UNL     1       1.751  -6.636   9.349  1.00  0.00     0.172 HD
HETATM    6  C12 UNL     1       1.767  -8.428   8.352  1.00  0.00     0.348 A 
HETATM    7  O2  UNL     1       0.538  -8.352   8.015  1.00  0.00    -0.245 OA
HETATM    8  N5  UNL     1       2.429  -9.530   7.942  1.00  0.00    -0.079 N 
HETATM    9  C13 UNL     1       1.793 -10.467   7.226  1.00  0.00     0.702 A 
HETATM   10  N7  UNL     1       2.490 -11.542   6.847  1.00  0.00    -0.022 N 
ATOM     11  H7  UNL     1       2.037 -12.275   6.301  1.00  0.00     0.203 HD
HETATM   12  C14 UNL     1       3.781 -11.662   7.181  1.00  0.00     0.692 A 
HETATM   13  N9  UNL     1       4.410 -10.711   7.902  1.00  0.00    -0.174 N 
ATOM     14  H9  UNL     1       5.395 -10.824   8.145  1.00  0.00     0.186 HD
HETATM   15  C15 UNL     1       3.745  -9.621   8.299  1.00  0.00     0.167 A 
ENDROOT
BRANCH   1  16
HETATM   16  C2  UNL     1       5.754  -8.667   9.448  1.00  0.00     0.159 C 
BRANCH  16  17
HETATM   17  N1  UNL     1       6.557  -7.924   8.820  1.00  0.00    -0.356 N 
HETATM   18  C1  UNL     1       6.771  -7.345   7.609  1.00  0.00     0.120 C 
ATOM     19  H1  UNL     1       7.319  -7.665   9.445  1.00  0.00     0.166 HD
ENDBRANCH  16  17
BRANCH  16  20
HETATM   20  O1  UNL     1       6.265  -9.432  10.438  1.00  0.00    -0.333 OA
BRANCH  20  21
HETATM   21  C3  UNL     1       6.024  -9.443  11.778  1.00  0.00     0.197 C 
BRANCH  21  22
HETATM   22  C4  UNL     1       5.471 -10.829  12.238  1.00  0.00     0.153 C 
BRANCH  22  23
HETATM   23  N2  UNL     1       4.248 -10.592  12.872  1.00  0.00    -0.372 N 
HETATM   24  C5  UNL     1       3.106 -10.356  12.084  1.00  0.00     0.063 C 
HETATM   25  C6  UNL     1       2.052 -11.374  12.472  1.00  0.00     0.045 C 
HETATM   26  C7  UNL     1       1.720 -11.158  13.910  1.00  0.00     0.010 C 
HETATM   27  C8  UNL     1       2.706 -10.338  14.669  1.00  0.00     0.045 C 
HETATM   28  C9  UNL     1       4.146 -10.583  14.266  1.00  0.00     0.063 C 
ENDBRANCH  22  23
ENDBRANCH  21  22
ENDBRANCH  20  21
ENDBRANCH  16  20
ENDBRANCH   1  16
BRANCH   9  29
HETATM   29  N6  UNL     1       0.537 -10.317   6.921  1.00  0.00    -0.233 N 
ATOM     30  H62 UNL     1       0.118 -10.781   6.115  1.00  0.00     0.174 HD
ATOM     31  H61 UNL     1      -0.062  -9.723   7.493  1.00  0.00     0.174 HD
ENDBRANCH   9  29
BRANCH  12  32
HETATM   32  N8  UNL     1       4.458 -12.701   6.818  1.00  0.00    -0.234 N 
ATOM     33  H82 UNL     1       5.386 -12.837   7.219  1.00  0.00     0.174 HD
ATOM     34  H81 UNL     1       4.067 -13.364   6.148  1.00  0.00     0.174 HD
ENDBRANCH  12  32
TORSDOF 8
ENDMDL
