MODEL 1
REMARK VINA RESULT: -6.599175009      0.000      0.000
REMARK  7 active torsions:
REMARK  status: ('A' for Active; 'I' for Inactive)
REMARK    1  A    between atoms: C2_2  and  C3_3 
REMARK    2  A    between atoms: C3_3  and  C4_4 
REMARK    3  A    between atoms: C5_7  and  N2_8 
REMARK    4  A    between atoms: N2_8  and  C6_10 
REMARK    5  A    between atoms: C10_21  and  C11_22 
REMARK    6  A    between atoms: C11_22  and  C12_23 
REMARK    7  A    between atoms: C14_30  and  O2_31 
ROOT
HETATM    1  C4  UNL     1       3.794  -7.887   8.749  1.00  0.00     0.099 A 
HETATM    2  N1  UNL     1       3.404  -8.521   7.633  1.00  0.00    -0.178 N 
ATOM      3  H1  UNL     1       3.689  -8.172   6.719  1.00  0.00     0.185 HD
HETATM    4  C5  UNL     1       2.635  -9.619   7.728  1.00  0.00     0.709 A 
HETATM    5  N5  UNL     1       2.227 -10.127   8.906  1.00  0.00    -0.069 N 
HETATM    6  N6  UNL     1       1.505 -11.141   9.280  1.00  0.00    -0.288 N 
ATOM      7  H6  UNL     1       1.073 -11.803   8.637  1.00  0.00     0.187 HD
HETATM    8  C9  UNL     1       1.395 -11.210  10.628  1.00  0.00     0.123 A 
HETATM    9  C10 UNL     1       2.114 -10.145  11.132  1.00  0.00     0.030 A 
HETATM   10  C15 UNL     1       2.624  -9.485  10.035  1.00  0.00     0.158 A 
HETATM   11  N9  UNL     1       3.390  -8.389   9.928  1.00  0.00    -0.329 N 
ATOM     12  H9  UNL     1       3.681  -7.914  10.784  1.00  0.00     0.168 HD
ENDROOT
BRANCH   9  13
HETATM   13  C11 UNL     1       2.279  -9.823  12.420  1.00  0.00     0.051 C 
BRANCH  13  14
HETATM   14  C12 UNL     1       3.413 -10.295  13.181  1.00  0.00     0.088 A 
HETATM   15  N7  UNL     1       3.363 -11.235  14.142  1.00  0.00    -0.305 N 
HETATM   16  C13 UNL     1       4.602 -11.433  14.645  1.00  0.00     0.326 A 
ATOM     17  H7  UNL     1       2.520 -11.724  14.444  1.00  0.00     0.171 HD
HETATM   18  O1  UNL     1       4.916 -12.253  15.570  1.00  0.00    -0.247 OA
HETATM   19  N8  UNL     1       5.467 -10.624  14.016  1.00  0.00    -0.287 N 
HETATM   20  C14 UNL     1       4.739  -9.920  13.112  1.00  0.00     0.171 A 
ATOM     21  H8  UNL     1       6.470 -10.552  14.183  1.00  0.00     0.172 HD
BRANCH  20  22
HETATM   22  O2  UNL     1       5.272  -8.981  12.269  1.00  0.00    -0.344 OA
ATOM     23  H2  UNL     1       5.952  -8.354  12.486  1.00  0.00     0.219 HD
ENDBRANCH  20  22
ENDBRANCH  13  14
ENDBRANCH   9  13
BRANCH   4  24
HETATM   24  N2  UNL     1       2.279 -10.201   6.637  1.00  0.00    -0.159 N 
ATOM     25  H2  UNL     1       1.388  -9.949   6.211  1.00  0.00     0.187 HD
BRANCH  24  26
HETATM   26  C6  UNL     1       3.086 -11.179   6.013  1.00  0.00     0.190 C 
HETATM   27  N3  UNL     1       2.770 -12.441   6.006  1.00  0.00    -0.360 N 
HETATM   28  C7  UNL     1       3.766 -13.209   5.302  1.00  0.00     0.142 C 
ATOM     29  H3  UNL     1       1.933 -12.833   6.438  1.00  0.00     0.162 HD
HETATM   30  C8  UNL     1       4.951 -12.269   5.295  1.00  0.00     0.142 C 
HETATM   31  N4  UNL     1       4.305 -10.976   5.329  1.00  0.00    -0.360 N 
ATOM     32  H4  UNL     1       4.656 -10.100   4.940  1.00  0.00     0.162 HD
ENDBRANCH  24  26
ENDBRANCH   4  24
BRANCH   1  33
HETATM   33  C3  UNL     1       4.652  -6.656   8.713  1.00  0.00     0.077 C 
BRANCH  33  34
HETATM   34  C2  UNL     1       5.663  -6.853   7.598  1.00  0.00     0.003 C 
HETATM   35  C1  UNL     1       6.807  -7.659   8.189  1.00  0.00     0.005 C 
ENDBRANCH  33  34
ENDBRANCH   1  33
TORSDOF 7
ENDMDL
MODEL 2
REMARK VINA RESULT: -6.574952639      2.818      6.097
REMARK  7 active torsions:
REMARK  status: ('A' for Active; 'I' for Inactive)
REMARK    1  A    between atoms: C2_2  and  C3_3 
REMARK    2  A    between atoms: C3_3  and  C4_4 
REMARK    3  A    between atoms: C5_7  and  N2_8 
REMARK    4  A    between atoms: N2_8  and  C6_10 
REMARK    5  A    between atoms: C10_21  and  C11_22 
REMARK    6  A    between atoms: C11_22  and  C12_23 
REMARK    7  A    between atoms: C14_30  and  O2_31 
ROOT
HETATM    1  C4  UNL     1       4.849  -8.931  10.329  1.00  0.00     0.099 A 
HETATM    2  N1  UNL     1       5.280  -9.233  11.562  1.00  0.00    -0.178 N 
ATOM      3  H1  UNL     1       6.224  -8.979  11.852  1.00  0.00     0.185 HD
HETATM    4  C5  UNL     1       4.461  -9.873  12.414  1.00  0.00     0.709 A 
HETATM    5  N5  UNL     1       3.205 -10.233  12.090  1.00  0.00    -0.069 N 
HETATM    6  N6  UNL     1       2.228 -10.840  12.695  1.00  0.00    -0.288 N 
ATOM      7  H6  UNL     1       2.275 -11.185  13.653  1.00  0.00     0.187 HD
HETATM    8  C9  UNL     1       1.139 -10.957  11.898  1.00  0.00     0.123 A 
HETATM    9  C10 UNL     1       1.473 -10.371  10.695  1.00  0.00     0.030 A 
HETATM   10  C15 UNL     1       2.770  -9.927  10.841  1.00  0.00     0.158 A 
HETATM   11  N9  UNL     1       3.597  -9.289   9.999  1.00  0.00    -0.329 N 
ATOM     12  H9  UNL     1       3.258  -9.066   9.062  1.00  0.00     0.168 HD
ENDROOT
BRANCH   9  13
HETATM   13  C11 UNL     1       0.697 -10.260   9.611  1.00  0.00     0.051 C 
BRANCH  13  14
HETATM   14  C12 UNL     1       1.252 -10.265   8.276  1.00  0.00     0.088 A 
HETATM   15  N7  UNL     1       1.788 -11.338   7.665  1.00  0.00    -0.305 N 
HETATM   16  C13 UNL     1       2.209 -10.989   6.429  1.00  0.00     0.326 A 
ATOM     17  H7  UNL     1       1.864 -12.270   8.073  1.00  0.00     0.171 HD
HETATM   18  O1  UNL     1       2.765 -11.761   5.578  1.00  0.00    -0.247 OA
HETATM   19  N8  UNL     1       1.951  -9.689   6.226  1.00  0.00    -0.287 N 
HETATM   20  C14 UNL     1       1.361  -9.238   7.362  1.00  0.00     0.171 A 
ATOM     21  H8  UNL     1       2.157  -9.148   5.387  1.00  0.00     0.172 HD
BRANCH  20  22
HETATM   22  O2  UNL     1       0.945  -7.946   7.543  1.00  0.00    -0.344 OA
ATOM     23  H2  UNL     1       1.318  -7.173   7.135  1.00  0.00     0.219 HD
ENDBRANCH  20  22
ENDBRANCH  13  14
ENDBRANCH   9  13
BRANCH   4  24
HETATM   24  N2  UNL     1       4.908 -10.146  13.590  1.00  0.00    -0.159 N 
ATOM     25  H2  UNL     1       4.858  -9.432  14.316  1.00  0.00     0.187 HD
BRANCH  24  26
HETATM   26  C6  UNL     1       5.467 -11.405  13.903  1.00  0.00     0.190 C 
HETATM   27  N3  UNL     1       4.924 -12.212  14.767  1.00  0.00    -0.360 N 
HETATM   28  C7  UNL     1       5.700 -13.420  14.891  1.00  0.00     0.142 C 
ATOM     29  H3  UNL     1       4.067 -12.018  15.285  1.00  0.00     0.162 HD
HETATM   30  C8  UNL     1       7.035 -13.006  14.310  1.00  0.00     0.142 C 
HETATM   31  N4  UNL     1       6.644 -11.979  13.370  1.00  0.00    -0.360 N 
ATOM     32  H4  UNL     1       7.118 -11.722  12.505  1.00  0.00     0.162 HD
ENDBRANCH  24  26
ENDBRANCH   4  24
BRANCH   1  33
HETATM   33  C3  UNL     1       5.713  -8.220   9.329  1.00  0.00     0.077 C 
BRANCH  33  34
HETATM   34  C2  UNL     1       4.780  -7.500   8.371  1.00  0.00     0.003 C 
HETATM   35  C1  UNL     1       5.624  -6.479   7.629  1.00  0.00     0.005 C 
ENDBRANCH  33  34
ENDBRANCH   1  33
TORSDOF 7
ENDMDL
MODEL 3
REMARK VINA RESULT: -6.476984149      1.007      1.296
REMARK  7 active torsions:
REMARK  status: ('A' for Active; 'I' for Inactive)
REMARK    1  A    between atoms: C2_2  and  C3_3 
REMARK    2  A    between atoms: C3_3  and  C4_4 
REMARK    3  A    between atoms: C5_7  and  N2_8 
REMARK    4  A    between atoms: N2_8  and  C6_10 
REMARK    5  A    between atoms: C10_21  and  C11_22 
REMARK    6  A    between atoms: C11_22  and  C12_23 
REMARK    7  A    between atoms: C14_30  and  O2_31 
ROOT
HETATM    1  C4  UNL     1       4.120  -7.897   8.441  1.00  0.00     0.099 A 
HETATM    2  N1  UNL     1       3.760  -8.598   7.356  1.00  0.00    -0.178 N 
ATOM      3  H1  UNL     1       4.057  -8.297   6.429  1.00  0.00     0.185 HD
HETATM    4  C5  UNL     1       3.005  -9.701   7.499  1.00  0.00     0.709 A 
HETATM    5  N5  UNL     1       2.583 -10.148   8.696  1.00  0.00    -0.069 N 
HETATM    6  N6  UNL     1       1.868 -11.150   9.114  1.00  0.00    -0.288 N 
ATOM      7  H6  UNL     1       1.458 -11.855   8.501  1.00  0.00     0.187 HD
HETATM    8  C9  UNL     1       1.734 -11.146  10.461  1.00  0.00     0.123 A 
HETATM    9  C10 UNL     1       2.427 -10.044  10.917  1.00  0.00     0.030 A 
HETATM   10  C15 UNL     1       2.948  -9.438   9.793  1.00  0.00     0.158 A 
HETATM   11  N9  UNL     1       3.701  -8.338   9.639  1.00  0.00    -0.329 N 
ATOM     12  H9  UNL     1       3.968  -7.811  10.471  1.00  0.00     0.168 HD
ENDROOT
BRANCH   9  13
HETATM   13  C11 UNL     1       2.563  -9.646  12.187  1.00  0.00     0.051 C 
BRANCH  13  14
HETATM   14  C12 UNL     1       3.450 -10.326  13.104  1.00  0.00     0.088 A 
HETATM   15  N7  UNL     1       4.768 -10.514  12.910  1.00  0.00    -0.305 N 
HETATM   16  C13 UNL     1       5.288 -11.185  13.963  1.00  0.00     0.326 A 
ATOM     17  H7  UNL     1       5.294 -10.198  12.094  1.00  0.00     0.171 HD
HETATM   18  O1  UNL     1       6.508 -11.529  14.106  1.00  0.00    -0.247 OA
HETATM   19  N8  UNL     1       4.314 -11.438  14.848  1.00  0.00    -0.287 N 
HETATM   20  C14 UNL     1       3.178 -10.911  14.324  1.00  0.00     0.171 A 
ATOM     21  H8  UNL     1       4.407 -11.929  15.737  1.00  0.00     0.172 HD
BRANCH  20  22
HETATM   22  O2  UNL     1       1.956 -10.967  14.940  1.00  0.00    -0.344 OA
ATOM     23  H2  UNL     1       1.743 -11.469  15.718  1.00  0.00     0.219 HD
ENDBRANCH  20  22
ENDBRANCH  13  14
ENDBRANCH   9  13
BRANCH   4  24
HETATM   24  N2  UNL     1       2.678 -10.349   6.436  1.00  0.00    -0.159 N 
ATOM     25  H2  UNL     1       1.820 -10.097   5.948  1.00  0.00     0.187 HD
BRANCH  24  26
HETATM   26  C6  UNL     1       3.473 -11.401   5.927  1.00  0.00     0.190 C 
HETATM   27  N3  UNL     1       3.184 -12.653   6.129  1.00  0.00    -0.360 N 
HETATM   28  C7  UNL     1       4.159 -13.506   5.499  1.00  0.00     0.142 C 
ATOM     29  H3  UNL     1       2.379 -12.985   6.660  1.00  0.00     0.162 HD
HETATM   30  C8  UNL     1       5.323 -12.563   5.285  1.00  0.00     0.142 C 
HETATM   31  N4  UNL     1       4.652 -11.289   5.156  1.00  0.00    -0.360 N 
ATOM     32  H4  UNL     1       4.964 -10.479   4.620  1.00  0.00     0.162 HD
ENDBRANCH  24  26
ENDBRANCH   4  24
BRANCH   1  33
HETATM   33  C3  UNL     1       4.960  -6.656   8.351  1.00  0.00     0.077 C 
BRANCH  33  34
HETATM   34  C2  UNL     1       6.054  -6.936   7.336  1.00  0.00     0.003 C 
HETATM   35  C1  UNL     1       7.200  -7.575   8.098  1.00  0.00     0.005 C 
ENDBRANCH  33  34
ENDBRANCH   1  33
TORSDOF 7
ENDMDL
MODEL 4
REMARK VINA RESULT: -6.302210287      2.733      6.206
REMARK  7 active torsions:
REMARK  status: ('A' for Active; 'I' for Inactive)
REMARK    1  A    between atoms: C2_2  and  C3_3 
REMARK    2  A    between atoms: C3_3  and  C4_4 
REMARK    3  A    between atoms: C5_7  and  N2_8 
REMARK    4  A    between atoms: N2_8  and  C6_10 
REMARK    5  A    between atoms: C10_21  and  C11_22 
REMARK    6  A    between atoms: C11_22  and  C12_23 
REMARK    7  A    between atoms: C14_30  and  O2_31 
ROOT
HETATM    1  C4  UNL     1       5.187  -9.035   9.991  1.00  0.00     0.099 A 
HETATM    2  N1  UNL     1       5.070  -9.300  11.301  1.00  0.00    -0.178 N 
ATOM      3  H1  UNL     1       5.824  -9.059  11.943  1.00  0.00     0.185 HD
HETATM    4  C5  UNL     1       3.952  -9.887  11.762  1.00  0.00     0.709 A 
HETATM    5  N5  UNL     1       2.923 -10.229  10.965  1.00  0.00    -0.069 N 
HETATM    6  N6  UNL     1       1.762 -10.788  11.136  1.00  0.00    -0.288 N 
ATOM      7  H6  UNL     1       1.404 -11.098  12.039  1.00  0.00     0.187 HD
HETATM    8  C9  UNL     1       1.085 -10.909   9.969  1.00  0.00     0.123 A 
HETATM    9  C10 UNL     1       1.900 -10.377   8.991  1.00  0.00     0.030 A 
HETATM   10  C15 UNL     1       3.042  -9.959   9.640  1.00  0.00     0.158 A 
HETATM   11  N9  UNL     1       4.162  -9.375   9.190  1.00  0.00    -0.329 N 
ATOM     12  H9  UNL     1       4.241  -9.178   8.192  1.00  0.00     0.168 HD
ENDROOT
BRANCH   9  13
HETATM   13  C11 UNL     1       1.634 -10.288   7.682  1.00  0.00     0.051 C 
BRANCH  13  14
HETATM   14  C12 UNL     1       2.450 -10.956   6.695  1.00  0.00     0.088 A 
HETATM   15  N7  UNL     1       2.312 -12.241   6.318  1.00  0.00    -0.305 N 
HETATM   16  C13 UNL     1       3.238 -12.537   5.378  1.00  0.00     0.326 A 
ATOM     17  H7  UNL     1       1.616 -12.890   6.685  1.00  0.00     0.171 HD
HETATM   18  O1  UNL     1       3.390 -13.666   4.803  1.00  0.00    -0.247 OA
HETATM   19  N8  UNL     1       3.983 -11.450   5.137  1.00  0.00    -0.287 N 
HETATM   20  C14 UNL     1       3.503 -10.472   5.946  1.00  0.00     0.171 A 
ATOM     21  H8  UNL     1       4.758 -11.373   4.477  1.00  0.00     0.172 HD
BRANCH  20  22
HETATM   22  O2  UNL     1       4.009  -9.201   5.989  1.00  0.00    -0.344 OA
ATOM     23  H2  UNL     1       4.100  -8.607   5.253  1.00  0.00     0.219 HD
ENDBRANCH  20  22
ENDBRANCH  13  14
ENDBRANCH   9  13
BRANCH   4  24
HETATM   24  N2  UNL     1       3.875 -10.127  13.024  1.00  0.00    -0.159 N 
ATOM     25  H2  UNL     1       3.383  -9.464  13.624  1.00  0.00     0.187 HD
BRANCH  24  26
HETATM   26  C6  UNL     1       4.449 -11.280  13.604  1.00  0.00     0.190 C 
HETATM   27  N3  UNL     1       4.514 -11.453  14.892  1.00  0.00    -0.360 N 
HETATM   28  C7  UNL     1       5.146 -12.711  15.202  1.00  0.00     0.142 C 
ATOM     29  H3  UNL     1       4.165 -10.792  15.585  1.00  0.00     0.162 HD
HETATM   30  C8  UNL     1       5.861 -13.040  13.910  1.00  0.00     0.142 C 
HETATM   31  N4  UNL     1       5.024 -12.382  12.932  1.00  0.00    -0.360 N 
ATOM     32  H4  UNL     1       4.878 -12.657  11.960  1.00  0.00     0.162 HD
ENDBRANCH  24  26
ENDBRANCH   4  24
BRANCH   1  33
HETATM   33  C3  UNL     1       6.408  -8.383   9.411  1.00  0.00     0.077 C 
BRANCH  33  34
HETATM   34  C2  UNL     1       5.941  -7.529   8.245  1.00  0.00     0.003 C 
HETATM   35  C1  UNL     1       7.175  -7.215   7.417  1.00  0.00     0.005 C 
ENDBRANCH  33  34
ENDBRANCH   1  33
TORSDOF 7
ENDMDL
MODEL 5
REMARK VINA RESULT: -6.184926879      2.578      3.684
REMARK  7 active torsions:
REMARK  status: ('A' for Active; 'I' for Inactive)
REMARK    1  A    between atoms: C2_2  and  C3_3 
REMARK    2  A    between atoms: C3_3  and  C4_4 
REMARK    3  A    between atoms: C5_7  and  N2_8 
REMARK    4  A    between atoms: N2_8  and  C6_10 
REMARK    5  A    between atoms: C10_21  and  C11_22 
REMARK    6  A    between atoms: C11_22  and  C12_23 
REMARK    7  A    between atoms: C14_30  and  O2_31 
ROOT
HETATM    1  C4  UNL     1       6.173  -8.801   9.763  1.00  0.00     0.099 A 
HETATM    2  N1  UNL     1       4.935  -8.408   9.428  1.00  0.00    -0.178 N 
ATOM      3  H1  UNL     1       4.780  -7.872   8.575  1.00  0.00     0.185 HD
HETATM    4  C5  UNL     1       3.900  -8.723  10.225  1.00  0.00     0.709 A 
HETATM    5  N5  UNL     1       4.041  -9.428  11.363  1.00  0.00    -0.069 N 
HETATM    6  N6  UNL     1       3.242  -9.861  12.293  1.00  0.00    -0.288 N 
ATOM      7  H6  UNL     1       2.234  -9.706  12.298  1.00  0.00     0.187 HD
HETATM    8  C9  UNL     1       3.911 -10.541  13.254  1.00  0.00     0.123 A 
HETATM    9  C10 UNL     1       5.240 -10.528  12.886  1.00  0.00     0.030 A 
HETATM   10  C15 UNL     1       5.294  -9.826  11.700  1.00  0.00     0.158 A 
HETATM   11  N9  UNL     1       6.320  -9.504  10.898  1.00  0.00    -0.329 N 
ATOM     12  H9  UNL     1       7.258  -9.808  11.163  1.00  0.00     0.168 HD
ENDROOT
BRANCH   9  13
HETATM   13  C11 UNL     1       6.264 -11.082  13.545  1.00  0.00     0.051 C 
BRANCH  13  14
HETATM   14  C12 UNL     1       6.202 -12.439  14.040  1.00  0.00     0.088 A 
HETATM   15  N7  UNL     1       6.741 -13.510  13.429  1.00  0.00    -0.305 N 
HETATM   16  C13 UNL     1       6.496 -14.619  14.164  1.00  0.00     0.326 A 
ATOM     17  H7  UNL     1       7.254 -13.489  12.548  1.00  0.00     0.171 HD
HETATM   18  O1  UNL     1       6.864 -15.807  13.878  1.00  0.00    -0.247 OA
HETATM   19  N8  UNL     1       5.799 -14.277  15.257  1.00  0.00    -0.287 N 
HETATM   20  C14 UNL     1       5.615 -12.934  15.186  1.00  0.00     0.171 A 
ATOM     21  H8  UNL     1       5.472 -14.901  15.994  1.00  0.00     0.172 HD
BRANCH  20  22
HETATM   22  O2  UNL     1       4.940 -12.206  16.129  1.00  0.00    -0.344 OA
ATOM     23  H2  UNL     1       4.045 -12.350  16.414  1.00  0.00     0.219 HD
ENDBRANCH  20  22
ENDBRANCH  13  14
ENDBRANCH   9  13
BRANCH   4  24
HETATM   24  N2  UNL     1       2.726  -8.329   9.873  1.00  0.00    -0.159 N 
ATOM     25  H2  UNL     1       2.322  -7.512  10.330  1.00  0.00     0.187 HD
BRANCH  24  26
HETATM   26  C6  UNL     1       1.982  -8.994   8.873  1.00  0.00     0.190 C 
HETATM   27  N3  UNL     1       1.606 -10.234   8.994  1.00  0.00    -0.360 N 
HETATM   28  C7  UNL     1       0.865 -10.654   7.831  1.00  0.00     0.142 C 
ATOM     29  H3  UNL     1       1.808 -10.827   9.799  1.00  0.00     0.162 HD
HETATM   30  C8  UNL     1       1.258  -9.614   6.805  1.00  0.00     0.142 C 
HETATM   31  N4  UNL     1       1.540  -8.467   7.639  1.00  0.00    -0.360 N 
ATOM     32  H4  UNL     1       1.441  -7.483   7.388  1.00  0.00     0.162 HD
ENDBRANCH  24  26
ENDBRANCH   4  24
BRANCH   1  33
HETATM   33  C3  UNL     1       7.372  -8.481   8.919  1.00  0.00     0.077 C 
BRANCH  33  34
HETATM   34  C2  UNL     1       6.906  -7.526   7.834  1.00  0.00     0.003 C 
HETATM   35  C1  UNL     1       7.974  -7.543   6.754  1.00  0.00     0.005 C 
ENDBRANCH  33  34
ENDBRANCH   1  33
TORSDOF 7
ENDMDL
