MODEL 1
REMARK VINA RESULT: -7.530000790      0.000      0.000
REMARK  6 active torsions:
REMARK  status: ('A' for Active; 'I' for Inactive)
REMARK    1  A    between atoms: C2_2  and  N1_3 
REMARK    2  A    between atoms: C4_8  and  O2_9 
REMARK    3  A    between atoms: C5_11  and  C6_12 
REMARK    4  A    between atoms: C6_12  and  C8_14 
REMARK    5  A    between atoms: C8_14  and  C9_15 
REMARK    6  A    between atoms: C12_20  and  N4_21 
ROOT
HETATM    1  C9  UNL     1       2.186 -11.148  11.273  1.00  0.00     0.085 A 
HETATM    2  N3  UNL     1       3.320 -11.838  11.316  1.00  0.00    -0.326 N 
ATOM      3  H3  UNL     1       3.621 -12.258  10.436  1.00  0.00     0.169 HD
HETATM    4  C10 UNL     1       4.109 -12.050  12.357  1.00  0.00     0.165 A 
HETATM    5  C11 UNL     1       3.750 -11.506  13.569  1.00  0.00     0.126 A 
HETATM    6  C12 UNL     1       2.562 -10.766  13.580  1.00  0.00     0.120 A 
HETATM    7  N5  UNL     1       1.823 -10.598  12.485  1.00  0.00    -0.331 N 
ATOM      8  H5  UNL     1       0.965 -10.050  12.543  1.00  0.00     0.168 HD
HETATM    9  C13 UNL     1       4.550 -11.761  14.731  1.00  0.00     0.261 C 
HETATM   10  O3  UNL     1       4.239 -11.271  15.836  1.00  0.00    -0.267 OA
HETATM   11  N6  UNL     1       5.723 -12.596  14.588  1.00  0.00    -0.335 N 
ATOM     12  H6  UNL     1       6.181 -12.975  15.417  1.00  0.00     0.164 HD
HETATM   13  C14 UNL     1       6.245 -12.894  13.279  1.00  0.00     0.303 C 
HETATM   14  O4  UNL     1       5.283 -12.794  12.292  1.00  0.00    -0.315 OA
ENDROOT
BRANCH   1  15
HETATM   15  C8  UNL     1       1.300 -10.953  10.112  1.00  0.00     0.086 C 
BRANCH  15  16
HETATM   16  C6  UNL     1       2.034 -10.760   8.838  1.00  0.00     0.031 C 
HETATM   17  C7  UNL     1       1.028 -10.634   7.724  1.00  0.00     0.016 C 
BRANCH  16  18
HETATM   18  C5  UNL     1       2.886  -9.557   8.824  1.00  0.00     0.065 A 
HETATM   19  C4  UNL     1       2.198  -8.355   8.730  1.00  0.00     0.156 A 
HETATM   20  N2  UNL     1       2.825  -7.178   8.665  1.00  0.00    -0.288 N 
HETATM   21  C3  UNL     1       4.175  -7.181   8.695  1.00  0.00     0.331 A 
ATOM     22  H2  UNL     1       2.301  -6.304   8.596  1.00  0.00     0.172 HD
HETATM   23  N1  UNL     1       4.900  -8.279   8.784  1.00  0.00    -0.266 N 
HETATM   24  O1  UNL     1       4.767  -6.071   8.634  1.00  0.00    -0.246 OA
HETATM   25  C15 UNL     1       4.265  -9.494   8.851  1.00  0.00     0.262 A 
HETATM   26  O5  UNL     1       4.941 -10.545   8.928  1.00  0.00    -0.267 OA
BRANCH  19  27
HETATM   27  O2  UNL     1       0.788  -8.298   8.694  1.00  0.00    -0.345 OA
ATOM     28  H2  UNL     1       0.341  -9.131   8.791  1.00  0.00     0.219 HD
ENDBRANCH  19  27
BRANCH  23  29
HETATM   29  C2  UNL     1       6.318  -8.281   8.819  1.00  0.00     0.132 C 
HETATM   30  C1  UNL     1       7.015  -8.219   7.489  1.00  0.00     0.027 C 
ENDBRANCH  23  29
ENDBRANCH  16  18
ENDBRANCH  15  16
ENDBRANCH   1  15
BRANCH   6  31
HETATM   31  N4  UNL     1       2.257 -10.266  14.730  1.00  0.00    -0.384 N 
ATOM     32  H42 UNL     1       2.944 -10.057  15.453  1.00  0.00     0.157 HD
ATOM     33  H41 UNL     1       1.260 -10.097  14.863  1.00  0.00     0.157 HD
ENDBRANCH   6  31
TORSDOF 6
ENDMDL
MODEL 2
REMARK VINA RESULT: -7.495966004      3.381      6.469
REMARK  6 active torsions:
REMARK  status: ('A' for Active; 'I' for Inactive)
REMARK    1  A    between atoms: C2_2  and  N1_3 
REMARK    2  A    between atoms: C4_8  and  O2_9 
REMARK    3  A    between atoms: C5_11  and  C6_12 
REMARK    4  A    between atoms: C6_12  and  C8_14 
REMARK    5  A    between atoms: C8_14  and  C9_15 
REMARK    6  A    between atoms: C12_20  and  N4_21 
ROOT
HETATM    1  C9  UNL     1       2.385 -10.650   6.410  1.00  0.00     0.085 A 
HETATM    2  N3  UNL     1       3.562 -10.099   6.137  1.00  0.00    -0.326 N 
ATOM      3  H3  UNL     1       3.649  -9.104   6.347  1.00  0.00     0.169 HD
HETATM    4  C10 UNL     1       4.637 -10.678   5.626  1.00  0.00     0.165 A 
HETATM    5  C11 UNL     1       4.574 -12.019   5.323  1.00  0.00     0.126 A 
HETATM    6  C12 UNL     1       3.355 -12.651   5.593  1.00  0.00     0.120 A 
HETATM    7  N5  UNL     1       2.317 -11.995   6.111  1.00  0.00    -0.331 N 
ATOM      8  H5  UNL     1       1.450 -12.500   6.290  1.00  0.00     0.168 HD
HETATM    9  C13 UNL     1       5.700 -12.668   4.717  1.00  0.00     0.261 C 
HETATM   10  O3  UNL     1       5.658 -13.884   4.440  1.00  0.00    -0.267 OA
HETATM   11  N6  UNL     1       6.879 -11.878   4.437  1.00  0.00    -0.335 N 
ATOM     12  H6  UNL     1       7.600 -12.245   3.816  1.00  0.00     0.164 HD
HETATM   13  C14 UNL     1       7.037 -10.575   5.033  1.00  0.00     0.303 C 
HETATM   14  O4  UNL     1       5.829 -10.003   5.378  1.00  0.00    -0.315 OA
ENDROOT
BRANCH   1  15
HETATM   15  C8  UNL     1       1.185  -9.982   6.945  1.00  0.00     0.086 C 
BRANCH  15  16
HETATM   16  C6  UNL     1       1.492  -8.747   7.706  1.00  0.00     0.031 C 
HETATM   17  C7  UNL     1       0.203  -8.002   7.941  1.00  0.00     0.016 C 
BRANCH  16  18
HETATM   18  C5  UNL     1       2.118  -9.001   9.016  1.00  0.00     0.065 A 
HETATM   19  C4  UNL     1       3.237  -8.227   9.289  1.00  0.00     0.156 A 
HETATM   20  N2  UNL     1       3.942  -8.365  10.415  1.00  0.00    -0.288 N 
HETATM   21  C3  UNL     1       3.532  -9.295  11.304  1.00  0.00     0.331 A 
ATOM     22  H2  UNL     1       4.762  -7.786  10.598  1.00  0.00     0.172 HD
HETATM   23  N1  UNL     1       2.481 -10.069  11.119  1.00  0.00    -0.266 N 
HETATM   24  O1  UNL     1       4.197  -9.426  12.366  1.00  0.00    -0.246 OA
HETATM   25  C15 UNL     1       1.751  -9.935   9.964  1.00  0.00     0.262 A 
HETATM   26  O5  UNL     1       0.753 -10.668   9.771  1.00  0.00    -0.267 OA
BRANCH  19  27
HETATM   27  O2  UNL     1       3.705  -7.243   8.393  1.00  0.00    -0.345 OA
ATOM     28  H2  UNL     1       3.060  -6.606   8.108  1.00  0.00     0.219 HD
ENDBRANCH  19  27
BRANCH  23  29
HETATM   29  C2  UNL     1       2.050 -11.044  12.054  1.00  0.00     0.132 C 
HETATM   30  C1  UNL     1       1.223 -10.543  13.203  1.00  0.00     0.027 C 
ENDBRANCH  23  29
ENDBRANCH  16  18
ENDBRANCH  15  16
ENDBRANCH   1  15
BRANCH   6  31
HETATM   31  N4  UNL     1       3.331 -13.908   5.303  1.00  0.00    -0.384 N 
ATOM     32  H42 UNL     1       3.094 -14.268   4.379  1.00  0.00     0.157 HD
ATOM     33  H41 UNL     1       3.568 -14.524   6.080  1.00  0.00     0.157 HD
ENDBRANCH   6  31
TORSDOF 6
ENDMDL
MODEL 3
REMARK VINA RESULT: -7.347986435      1.826      3.721
REMARK  6 active torsions:
REMARK  status: ('A' for Active; 'I' for Inactive)
REMARK    1  A    between atoms: C2_2  and  N1_3 
REMARK    2  A    between atoms: C4_8  and  O2_9 
REMARK    3  A    between atoms: C5_11  and  C6_12 
REMARK    4  A    between atoms: C6_12  and  C8_14 
REMARK    5  A    between atoms: C8_14  and  C9_15 
REMARK    6  A    between atoms: C12_20  and  N4_21 
ROOT
HETATM    1  C9  UNL     1       5.618  -9.742  10.991  1.00  0.00     0.085 A 
HETATM    2  N3  UNL     1       4.337  -9.574  11.302  1.00  0.00    -0.326 N 
ATOM      3  H3  UNL     1       3.765  -9.107  10.598  1.00  0.00     0.169 HD
HETATM    4  C10 UNL     1       3.711  -9.937  12.409  1.00  0.00     0.165 A 
HETATM    5  C11 UNL     1       4.437 -10.570  13.392  1.00  0.00     0.126 A 
HETATM    6  C12 UNL     1       5.793 -10.774  13.116  1.00  0.00     0.120 A 
HETATM    7  N5  UNL     1       6.350 -10.378  11.972  1.00  0.00    -0.331 N 
ATOM      8  H5  UNL     1       7.343 -10.550  11.817  1.00  0.00     0.168 HD
HETATM    9  C13 UNL     1       3.805 -10.928  14.628  1.00  0.00     0.261 C 
HETATM   10  O3  UNL     1       4.450 -11.507  15.527  1.00  0.00    -0.267 OA
HETATM   11  N6  UNL     1       2.406 -10.603  14.804  1.00  0.00    -0.335 N 
ATOM     12  H6  UNL     1       1.989 -10.639  15.735  1.00  0.00     0.164 HD
HETATM   13  C14 UNL     1       1.601 -10.228  13.670  1.00  0.00     0.303 C 
HETATM   14  O4  UNL     1       2.356  -9.712  12.635  1.00  0.00    -0.315 OA
ENDROOT
BRANCH   1  15
HETATM   15  C8  UNL     1       6.308  -9.298   9.767  1.00  0.00     0.086 C 
BRANCH  15  16
HETATM   16  C6  UNL     1       5.736  -8.060   9.186  1.00  0.00     0.031 C 
HETATM   17  C7  UNL     1       6.602  -7.634   8.028  1.00  0.00     0.016 C 
BRANCH  16  18
HETATM   18  C5  UNL     1       4.357  -8.223   8.691  1.00  0.00     0.065 A 
HETATM   19  C4  UNL     1       3.414  -7.414   9.309  1.00  0.00     0.156 A 
HETATM   20  N2  UNL     1       2.115  -7.471   9.002  1.00  0.00    -0.288 N 
HETATM   21  C3  UNL     1       1.730  -8.353   8.055  1.00  0.00     0.331 A 
ATOM     22  H2  UNL     1       1.437  -6.868   9.468  1.00  0.00     0.172 HD
HETATM   23  N1  UNL     1       2.564  -9.154   7.422  1.00  0.00    -0.266 N 
HETATM   24  O1  UNL     1       0.506  -8.408   7.765  1.00  0.00    -0.246 OA
HETATM   25  C15 UNL     1       3.901  -9.104   7.730  1.00  0.00     0.262 A 
HETATM   26  O5  UNL     1       4.704  -9.865   7.142  1.00  0.00    -0.267 OA
BRANCH  19  27
HETATM   27  O2  UNL     1       3.766  -6.478  10.304  1.00  0.00    -0.345 OA
ATOM     28  H2  UNL     1       4.679  -6.478  10.564  1.00  0.00     0.219 HD
ENDBRANCH  19  27
BRANCH  23  29
HETATM   29  C2  UNL     1       2.159 -10.079   6.425  1.00  0.00     0.132 C 
HETATM   30  C1  UNL     1       1.961 -11.498   6.875  1.00  0.00     0.027 C 
ENDBRANCH  23  29
ENDBRANCH  16  18
ENDBRANCH  15  16
ENDBRANCH   1  15
BRANCH   6  31
HETATM   31  N4  UNL     1       6.444 -11.374  14.054  1.00  0.00    -0.384 N 
ATOM     32  H42 UNL     1       5.994 -11.897  14.806  1.00  0.00     0.157 HD
ATOM     33  H41 UNL     1       7.457 -11.283  13.989  1.00  0.00     0.157 HD
ENDBRANCH   6  31
TORSDOF 6
ENDMDL
MODEL 4
REMARK VINA RESULT: -7.056230072      1.807      3.256
REMARK  6 active torsions:
REMARK  status: ('A' for Active; 'I' for Inactive)
REMARK    1  A    between atoms: C2_2  and  N1_3 
REMARK    2  A    between atoms: C4_8  and  O2_9 
REMARK    3  A    between atoms: C5_11  and  C6_12 
REMARK    4  A    between atoms: C6_12  and  C8_14 
REMARK    5  A    between atoms: C8_14  and  C9_15 
REMARK    6  A    between atoms: C12_20  and  N4_21 
ROOT
HETATM    1  C9  UNL     1       5.965 -10.862  11.190  1.00  0.00     0.085 A 
HETATM    2  N3  UNL     1       6.326 -12.077  11.587  1.00  0.00    -0.326 N 
ATOM      3  H3  UNL     1       6.802 -12.652  10.891  1.00  0.00     0.169 HD
HETATM    4  C10 UNL     1       6.147 -12.637  12.773  1.00  0.00     0.165 A 
HETATM    5  C11 UNL     1       5.510 -11.905  13.750  1.00  0.00     0.126 A 
HETATM    6  C12 UNL     1       5.109 -10.615  13.385  1.00  0.00     0.120 A 
HETATM    7  N5  UNL     1       5.328 -10.124  12.166  1.00  0.00    -0.331 N 
ATOM      8  H5  UNL     1       5.017  -9.178  11.949  1.00  0.00     0.168 HD
HETATM    9  C13 UNL     1       5.249 -12.498  15.029  1.00  0.00     0.261 C 
HETATM   10  O3  UNL     1       4.675 -11.846  15.925  1.00  0.00    -0.267 OA
HETATM   11  N6  UNL     1       5.666 -13.865  15.251  1.00  0.00    -0.335 N 
ATOM     12  H6  UNL     1       5.305 -14.383  16.053  1.00  0.00     0.164 HD
HETATM   13  C14 UNL     1       6.589 -14.498  14.343  1.00  0.00     0.303 C 
HETATM   14  O4  UNL     1       6.568 -13.926  13.086  1.00  0.00    -0.315 OA
ENDROOT
BRANCH   1  15
HETATM   15  C8  UNL     1       6.139 -10.268   9.853  1.00  0.00     0.086 C 
BRANCH  15  16
HETATM   16  C6  UNL     1       5.685  -8.859   9.773  1.00  0.00     0.031 C 
HETATM   17  C7  UNL     1       6.593  -8.120   8.823  1.00  0.00     0.016 C 
BRANCH  16  18
HETATM   18  C5  UNL     1       4.301  -8.712   9.289  1.00  0.00     0.065 A 
HETATM   19  C4  UNL     1       3.673  -7.532   9.662  1.00  0.00     0.156 A 
HETATM   20  N2  UNL     1       2.404  -7.266   9.337  1.00  0.00    -0.288 N 
HETATM   21  C3  UNL     1       1.731  -8.191   8.620  1.00  0.00     0.331 A 
ATOM     22  H2  UNL     1       1.960  -6.393   9.621  1.00  0.00     0.172 HD
HETATM   23  N1  UNL     1       2.257  -9.334   8.227  1.00  0.00    -0.266 N 
HETATM   24  O1  UNL     1       0.535  -7.941   8.314  1.00  0.00    -0.246 OA
HETATM   25  C15 UNL     1       3.558  -9.617   8.556  1.00  0.00     0.262 A 
HETATM   26  O5  UNL     1       4.069 -10.703   8.196  1.00  0.00    -0.267 OA
BRANCH  19  27
HETATM   27  O2  UNL     1       4.333  -6.536  10.412  1.00  0.00    -0.345 OA
ATOM     28  H2  UNL     1       4.001  -5.652  10.302  1.00  0.00     0.219 HD
ENDBRANCH  19  27
BRANCH  23  29
HETATM   29  C2  UNL     1       1.549 -10.304   7.472  1.00  0.00     0.132 C 
HETATM   30  C1  UNL     1       1.653 -10.189   5.978  1.00  0.00     0.027 C 
ENDBRANCH  23  29
ENDBRANCH  16  18
ENDBRANCH  15  16
ENDBRANCH   1  15
BRANCH   6  31
HETATM   31  N4  UNL     1       4.519  -9.956  14.324  1.00  0.00    -0.384 N 
ATOM     32  H42 UNL     1       3.808  -9.245  14.153  1.00  0.00     0.157 HD
ATOM     33  H41 UNL     1       4.826 -10.200  15.266  1.00  0.00     0.157 HD
ENDBRANCH   6  31
TORSDOF 6
ENDMDL
MODEL 5
REMARK VINA RESULT: -7.038629539      2.559      3.798
REMARK  6 active torsions:
REMARK  status: ('A' for Active; 'I' for Inactive)
REMARK    1  A    between atoms: C2_2  and  N1_3 
REMARK    2  A    between atoms: C4_8  and  O2_9 
REMARK    3  A    between atoms: C5_11  and  C6_12 
REMARK    4  A    between atoms: C6_12  and  C8_14 
REMARK    5  A    between atoms: C8_14  and  C9_15 
REMARK    6  A    between atoms: C12_20  and  N4_21 
ROOT
HETATM    1  C9  UNL     1       5.035  -9.082  10.850  1.00  0.00     0.085 A 
HETATM    2  N3  UNL     1       3.737  -9.225  11.092  1.00  0.00    -0.326 N 
ATOM      3  H3  UNL     1       3.107  -8.870  10.372  1.00  0.00     0.169 HD
HETATM    4  C10 UNL     1       3.158  -9.771  12.149  1.00  0.00     0.165 A 
HETATM    5  C11 UNL     1       3.962 -10.266  13.150  1.00  0.00     0.126 A 
HETATM    6  C12 UNL     1       5.341 -10.143  12.946  1.00  0.00     0.120 A 
HETATM    7  N5  UNL     1       5.846  -9.579  11.849  1.00  0.00    -0.331 N 
ATOM      8  H5  UNL     1       6.858  -9.513  11.746  1.00  0.00     0.168 HD
HETATM    9  C13 UNL     1       3.370 -10.815  14.335  1.00  0.00     0.261 C 
HETATM   10  O3  UNL     1       4.087 -11.271  15.250  1.00  0.00    -0.267 OA
HETATM   11  N6  UNL     1       1.928 -10.825  14.442  1.00  0.00    -0.335 N 
ATOM     12  H6  UNL     1       1.486 -10.998  15.345  1.00  0.00     0.164 HD
HETATM   13  C14 UNL     1       1.114 -10.593  13.276  1.00  0.00     0.303 C 
HETATM   14  O4  UNL     1       1.778  -9.872  12.303  1.00  0.00    -0.315 OA
ENDROOT
BRANCH   1  15
HETATM   15  C8  UNL     1       5.663  -8.438   9.683  1.00  0.00     0.086 C 
BRANCH  15  16
HETATM   16  C6  UNL     1       4.684  -7.979   8.668  1.00  0.00     0.031 C 
HETATM   17  C7  UNL     1       5.323  -6.884   7.852  1.00  0.00     0.016 C 
BRANCH  16  18
HETATM   18  C5  UNL     1       4.250  -9.043   7.745  1.00  0.00     0.065 A 
HETATM   19  C4  UNL     1       2.880  -9.264   7.711  1.00  0.00     0.156 A 
HETATM   20  N2  UNL     1       2.331 -10.220   6.956  1.00  0.00    -0.288 N 
HETATM   21  C3  UNL     1       3.156 -10.984   6.209  1.00  0.00     0.331 A 
ATOM     22  H2  UNL     1       1.321 -10.367   6.944  1.00  0.00     0.172 HD
HETATM   23  N1  UNL     1       4.466 -10.836   6.186  1.00  0.00    -0.266 N 
HETATM   24  O1  UNL     1       2.639 -11.886   5.497  1.00  0.00    -0.246 OA
HETATM   25  C15 UNL     1       5.040  -9.857   6.958  1.00  0.00     0.262 A 
HETATM   26  O5  UNL     1       6.284  -9.710   6.952  1.00  0.00    -0.267 OA
BRANCH  19  27
HETATM   27  O2  UNL     1       1.977  -8.494   8.473  1.00  0.00    -0.345 OA
ATOM     28  H2  UNL     1       1.671  -8.897   9.277  1.00  0.00     0.219 HD
ENDBRANCH  19  27
BRANCH  23  29
HETATM   29  C2  UNL     1       5.332 -11.637   5.398  1.00  0.00     0.132 C 
HETATM   30  C1  UNL     1       5.587 -11.161   3.996  1.00  0.00     0.027 C 
ENDBRANCH  23  29
ENDBRANCH  16  18
ENDBRANCH  15  16
ENDBRANCH   1  15
BRANCH   6  31
HETATM   31  N4  UNL     1       6.066 -10.621  13.900  1.00  0.00    -0.384 N 
ATOM     32  H42 UNL     1       5.698 -10.861  14.820  1.00  0.00     0.157 HD
ATOM     33  H41 UNL     1       7.050 -10.739  13.662  1.00  0.00     0.157 HD
ENDBRANCH   6  31
TORSDOF 6
ENDMDL
