MODEL 1
REMARK VINA RESULT: -7.274198919      0.000      0.000
REMARK  5 active torsions:
REMARK  status: ('A' for Active; 'I' for Inactive)
REMARK    1  A    between atoms: N1_1  and  C1_4 
REMARK    2  A    between atoms: C2_7  and  N3_8 
REMARK    3  A    between atoms: N3_8  and  C3_10 
REMARK    4  A    between atoms: C3_10  and  C4_11 
REMARK    5  A    between atoms: C6_13  and  N4_14 
ROOT
HETATM    1  N3  UNL     1       1.422 -10.482  10.623  1.00  0.00    -0.368 N 
ATOM      2  H3  UNL     1       0.794  -9.731  10.908  1.00  0.00     0.161 HD
ENDROOT
BRANCH   1   3
HETATM    3  C2  UNL     1       1.997 -10.414   9.486  1.00  0.00     0.148 A 
HETATM    4  N2  UNL     1       1.859 -11.391   8.575  1.00  0.00    -0.175 N 
HETATM    5  C1  UNL     1       2.495 -11.255   7.394  1.00  0.00     0.679 A 
ATOM      6  H2  UNL     1       1.288 -12.213   8.772  1.00  0.00     0.186 HD
HETATM    7  N10 UNL     1       3.259 -10.161   7.121  1.00  0.00    -0.174 N 
HETATM    8  C15 UNL     1       3.401  -9.180   8.030  1.00  0.00     0.154 A 
ATOM      9  H10 UNL     1       3.729 -10.085   6.219  1.00  0.00     0.186 HD
HETATM   10  C12 UNL     1       2.773  -9.273   9.250  1.00  0.00     0.122 A 
HETATM   11  N9  UNL     1       4.148  -8.079   7.803  1.00  0.00    -0.306 N 
HETATM   12  N8  UNL     1       2.886  -8.305  10.200  1.00  0.00    -0.355 N 
HETATM   13  C13 UNL     1       3.639  -7.220   9.941  1.00  0.00     0.163 A 
ATOM     14  H8  UNL     1       2.407  -8.401  11.096  1.00  0.00     0.165 HD
HETATM   15  C14 UNL     1       4.281  -7.102   8.726  1.00  0.00     0.262 A 
HETATM   16  O1  UNL     1       4.999  -6.092   8.449  1.00  0.00    -0.267 OA
ATOM     17  H9  UNL     1       4.626  -7.982   6.907  1.00  0.00     0.170 HD
BRANCH   5  18
HETATM   18  N1  UNL     1       2.357 -12.196   6.525  1.00  0.00    -0.234 N 
ATOM     19  H12 UNL     1       1.662 -12.930   6.657  1.00  0.00     0.174 HD
ATOM     20  H11 UNL     1       2.965 -12.180   5.706  1.00  0.00     0.174 HD
ENDBRANCH   5  18
ENDBRANCH   1   3
BRANCH   1  21
HETATM   21  C3  UNL     1       1.638 -11.588  11.508  1.00  0.00     0.178 C 
BRANCH  21  22
HETATM   22  C4  UNL     1       2.474 -11.232  12.693  1.00  0.00     0.031 A 
HETATM   23  C5  UNL     1       3.769 -11.708  12.702  1.00  0.00     0.075 A 
HETATM   24  C6  UNL     1       4.625 -11.429  13.761  1.00  0.00     0.105 A 
HETATM   25  N6  UNL     1       4.138 -10.680  14.770  1.00  0.00    -0.339 N 
HETATM   26  C11 UNL     1       2.873 -10.225  14.743  1.00  0.00     0.182 A 
ATOM     27  H6  UNL     1       4.737 -10.456  15.564  1.00  0.00     0.168 HD
HETATM   28  N7  UNL     1       2.036 -10.496  13.711  1.00  0.00    -0.354 N 
ATOM     29  H7  UNL     1       1.080 -10.139  13.715  1.00  0.00     0.166 HD
BRANCH  24  30
HETATM   30  N4  UNL     1       5.961 -11.924  13.765  1.00  0.00    -0.364 N 
HETATM   31  C7  UNL     1       6.179 -13.289  14.123  1.00  0.00     0.152 C 
HETATM   32  C8  UNL     1       7.502 -13.527  14.800  1.00  0.00     0.252 C 
HETATM   33  N5  UNL     1       8.536 -12.640  14.379  1.00  0.00    -0.072 N 
HETATM   34  C9  UNL     1       8.262 -11.948  13.158  1.00  0.00     0.252 C 
ATOM     35  H52 UNL     1       8.759 -11.976  15.121  1.00  0.00     0.277 HD
ATOM     36  H51 UNL     1       9.425 -13.135  14.315  1.00  0.00     0.277 HD
HETATM   37  C10 UNL     1       7.043 -11.052  13.413  1.00  0.00     0.152 C 
ENDBRANCH  24  30
ENDBRANCH  21  22
ENDBRANCH   1  21
TORSDOF 5
ENDMDL
MODEL 2
REMARK VINA RESULT: -7.263309082      1.664      2.129
REMARK  5 active torsions:
REMARK  status: ('A' for Active; 'I' for Inactive)
REMARK    1  A    between atoms: N1_1  and  C1_4 
REMARK    2  A    between atoms: C2_7  and  N3_8 
REMARK    3  A    between atoms: N3_8  and  C3_10 
REMARK    4  A    between atoms: C3_10  and  C4_11 
REMARK    5  A    between atoms: C6_13  and  N4_14 
ROOT
HETATM    1  N3  UNL     1       2.010 -11.010  10.341  1.00  0.00    -0.368 N 
ATOM      2  H3  UNL     1       2.455 -11.857   9.989  1.00  0.00     0.161 HD
ENDROOT
BRANCH   1   3
HETATM    3  C2  UNL     1       2.121  -9.926   9.677  1.00  0.00     0.148 A 
HETATM    4  N2  UNL     1       1.048  -9.326   9.137  1.00  0.00    -0.175 N 
HETATM    5  C1  UNL     1       1.237  -8.183   8.447  1.00  0.00     0.679 A 
ATOM      6  H2  UNL     1       0.115  -9.725   9.245  1.00  0.00     0.186 HD
HETATM    7  N10 UNL     1       2.479  -7.642   8.297  1.00  0.00    -0.174 N 
HETATM    8  C15 UNL     1       3.556  -8.238   8.836  1.00  0.00     0.154 A 
ATOM      9  H10 UNL     1       2.592  -6.776   7.771  1.00  0.00     0.186 HD
HETATM   10  C12 UNL     1       3.415  -9.407   9.548  1.00  0.00     0.122 A 
HETATM   11  N9  UNL     1       4.803  -7.739   8.713  1.00  0.00    -0.306 N 
HETATM   12  N8  UNL     1       4.475 -10.046  10.112  1.00  0.00    -0.355 N 
HETATM   13  C13 UNL     1       5.707  -9.520   9.970  1.00  0.00     0.163 A 
ATOM     14  H8  UNL     1       4.339 -10.911  10.636  1.00  0.00     0.165 HD
HETATM   15  C14 UNL     1       5.877  -8.349   9.260  1.00  0.00     0.262 A 
HETATM   16  O1  UNL     1       7.023  -7.827   9.106  1.00  0.00    -0.267 OA
ATOM     17  H9  UNL     1       4.940  -6.873   8.190  1.00  0.00     0.170 HD
BRANCH   5  18
HETATM   18  N1  UNL     1       0.204  -7.613   7.932  1.00  0.00    -0.234 N 
ATOM     19  H12 UNL     1      -0.737  -7.872   8.229  1.00  0.00     0.174 HD
ATOM     20  H11 UNL     1       0.359  -6.898   7.222  1.00  0.00     0.174 HD
ENDBRANCH   5  18
ENDBRANCH   1   3
BRANCH   1  21
HETATM   21  C3  UNL     1       1.274 -11.064  11.570  1.00  0.00     0.178 C 
BRANCH  21  22
HETATM   22  C4  UNL     1       2.145 -10.945  12.777  1.00  0.00     0.031 A 
HETATM   23  C5  UNL     1       3.289 -11.715  12.792  1.00  0.00     0.075 A 
HETATM   24  C6  UNL     1       4.164 -11.675  13.871  1.00  0.00     0.105 A 
HETATM   25  N6  UNL     1       3.848 -10.855  14.893  1.00  0.00    -0.339 N 
HETATM   26  C11 UNL     1       2.728 -10.111  14.860  1.00  0.00     0.182 A 
ATOM     27  H6  UNL     1       4.466 -10.799  15.703  1.00  0.00     0.168 HD
HETATM   28  N7  UNL     1       1.873 -10.150  13.809  1.00  0.00    -0.354 N 
ATOM     29  H7  UNL     1       1.029  -9.577  13.808  1.00  0.00     0.166 HD
BRANCH  24  30
HETATM   30  N4  UNL     1       5.344 -12.473  13.881  1.00  0.00    -0.364 N 
HETATM   31  C7  UNL     1       6.194 -12.444  12.733  1.00  0.00     0.152 C 
HETATM   32  C8  UNL     1       6.917 -13.742  12.491  1.00  0.00     0.252 C 
HETATM   33  N5  UNL     1       7.211 -14.472  13.680  1.00  0.00    -0.072 N 
HETATM   34  C9  UNL     1       7.115 -13.706  14.885  1.00  0.00     0.252 C 
ATOM     35  H52 UNL     1       6.624 -15.304  13.740  1.00  0.00     0.277 HD
ATOM     36  H51 UNL     1       8.129 -14.911  13.610  1.00  0.00     0.277 HD
HETATM   37  C10 UNL     1       5.649 -13.277  15.028  1.00  0.00     0.152 C 
ENDBRANCH  24  30
ENDBRANCH  21  22
ENDBRANCH   1  21
TORSDOF 5
ENDMDL
MODEL 3
REMARK VINA RESULT: -7.118353946      0.949      1.414
REMARK  5 active torsions:
REMARK  status: ('A' for Active; 'I' for Inactive)
REMARK    1  A    between atoms: N1_1  and  C1_4 
REMARK    2  A    between atoms: C2_7  and  N3_8 
REMARK    3  A    between atoms: N3_8  and  C3_10 
REMARK    4  A    between atoms: C3_10  and  C4_11 
REMARK    5  A    between atoms: C6_13  and  N4_14 
ROOT
HETATM    1  N3  UNL     1       1.135 -10.387  10.166  1.00  0.00    -0.368 N 
ATOM      2  H3  UNL     1       0.452  -9.651  10.344  1.00  0.00     0.161 HD
ENDROOT
BRANCH   1   3
HETATM    3  C2  UNL     1       1.842 -10.339   9.105  1.00  0.00     0.148 A 
HETATM    4  N2  UNL     1       1.779 -11.310   8.180  1.00  0.00    -0.175 N 
HETATM    5  C1  UNL     1       2.555 -11.194   7.083  1.00  0.00     0.679 A 
ATOM      6  H2  UNL     1       1.162 -12.112   8.304  1.00  0.00     0.186 HD
HETATM    7  N10 UNL     1       3.382 -10.126   6.907  1.00  0.00    -0.174 N 
HETATM    8  C15 UNL     1       3.448  -9.151   7.830  1.00  0.00     0.154 A 
ATOM      9  H10 UNL     1       3.957 -10.065   6.067  1.00  0.00     0.186 HD
HETATM   10  C12 UNL     1       2.678  -9.224   8.968  1.00  0.00     0.122 A 
HETATM   11  N9  UNL     1       4.253  -8.076   7.699  1.00  0.00    -0.306 N 
HETATM   12  N8  UNL     1       2.710  -8.261   9.929  1.00  0.00    -0.355 N 
HETATM   13  C13 UNL     1       3.525  -7.201   9.766  1.00  0.00     0.163 A 
ATOM     14  H8  UNL     1       2.126  -8.342  10.762  1.00  0.00     0.165 HD
HETATM   15  C14 UNL     1       4.309  -7.105   8.635  1.00  0.00     0.262 A 
HETATM   16  O1  UNL     1       5.088  -6.120   8.450  1.00  0.00    -0.267 OA
ATOM     17  H9  UNL     1       4.837  -7.995   6.866  1.00  0.00     0.170 HD
BRANCH   5  18
HETATM   18  N1  UNL     1       2.490 -12.129   6.199  1.00  0.00    -0.234 N 
ATOM     19  H12 UNL     1       2.617 -11.921   5.209  1.00  0.00     0.174 HD
ATOM     20  H11 UNL     1       2.307 -13.079   6.524  1.00  0.00     0.174 HD
ENDBRANCH   5  18
ENDBRANCH   1   3
BRANCH   1  21
HETATM   21  C3  UNL     1       1.278 -11.453  11.114  1.00  0.00     0.178 C 
BRANCH  21  22
HETATM   22  C4  UNL     1       1.983 -11.032  12.362  1.00  0.00     0.031 A 
HETATM   23  C5  UNL     1       3.361 -11.050  12.330  1.00  0.00     0.075 A 
HETATM   24  C6  UNL     1       4.107 -10.675  13.441  1.00  0.00     0.105 A 
HETATM   25  N6  UNL     1       3.429 -10.297  14.542  1.00  0.00    -0.339 N 
HETATM   26  C11 UNL     1       2.084 -10.285  14.554  1.00  0.00     0.182 A 
ATOM     27  H6  UNL     1       3.942 -10.015  15.378  1.00  0.00     0.168 HD
HETATM   28  N7  UNL     1       1.354 -10.651  13.472  1.00  0.00    -0.354 N 
ATOM     29  H7  UNL     1       0.335 -10.635  13.506  1.00  0.00     0.166 HD
BRANCH  24  30
HETATM   30  N4  UNL     1       5.531 -10.696  13.402  1.00  0.00    -0.364 N 
HETATM   31  C7  UNL     1       6.235  -9.470  13.605  1.00  0.00     0.152 C 
HETATM   32  C8  UNL     1       7.541  -9.399  12.860  1.00  0.00     0.252 C 
HETATM   33  N5  UNL     1       8.178 -10.662  12.685  1.00  0.00    -0.072 N 
HETATM   34  C9  UNL     1       7.686 -11.698  13.540  1.00  0.00     0.252 C 
ATOM     35  H52 UNL     1       8.127 -10.953  11.708  1.00  0.00     0.277 HD
ATOM     36  H51 UNL     1       9.188 -10.567  12.786  1.00  0.00     0.277 HD
HETATM   37  C10 UNL     1       6.217 -11.932  13.162  1.00  0.00     0.152 C 
ENDBRANCH  24  30
ENDBRANCH  21  22
ENDBRANCH   1  21
TORSDOF 5
ENDMDL
MODEL 4
REMARK VINA RESULT: -7.017003644      2.179      2.928
REMARK  5 active torsions:
REMARK  status: ('A' for Active; 'I' for Inactive)
REMARK    1  A    between atoms: N1_1  and  C1_4 
REMARK    2  A    between atoms: C2_7  and  N3_8 
REMARK    3  A    between atoms: N3_8  and  C3_10 
REMARK    4  A    between atoms: C3_10  and  C4_11 
REMARK    5  A    between atoms: C6_13  and  N4_14 
ROOT
HETATM    1  N3  UNL     1       1.814 -11.180  10.229  1.00  0.00    -0.368 N 
ATOM      2  H3  UNL     1       2.373 -12.034  10.224  1.00  0.00     0.161 HD
ENDROOT
BRANCH   1   3
HETATM    3  C2  UNL     1       1.735 -10.481   9.165  1.00  0.00     0.148 A 
HETATM    4  N2  UNL     1       1.033  -9.337   9.134  1.00  0.00    -0.175 N 
HETATM    5  C1  UNL     1       0.992  -8.647   7.975  1.00  0.00     0.679 A 
ATOM      6  H2  UNL     1       0.545  -8.999   9.963  1.00  0.00     0.186 HD
HETATM    7  N10 UNL     1       1.641  -9.090   6.862  1.00  0.00    -0.174 N 
HETATM    8  C15 UNL     1       2.345 -10.235   6.889  1.00  0.00     0.154 A 
ATOM      9  H10 UNL     1       1.591  -8.548   6.000  1.00  0.00     0.186 HD
HETATM   10  C12 UNL     1       2.416 -10.974   8.046  1.00  0.00     0.122 A 
HETATM   11  N9  UNL     1       3.002 -10.711   5.811  1.00  0.00    -0.306 N 
HETATM   12  N8  UNL     1       3.117 -12.138   8.121  1.00  0.00    -0.355 N 
HETATM   13  C13 UNL     1       3.762 -12.585   7.027  1.00  0.00     0.163 A 
ATOM     14  H8  UNL     1       3.153 -12.665   8.995  1.00  0.00     0.165 HD
HETATM   15  C14 UNL     1       3.705 -11.863   5.853  1.00  0.00     0.262 A 
HETATM   16  O1  UNL     1       4.301 -12.255   4.803  1.00  0.00    -0.267 OA
ATOM     17  H9  UNL     1       2.967 -10.184   4.938  1.00  0.00     0.170 HD
BRANCH   5  18
HETATM   18  N1  UNL     1       0.317  -7.551   7.952  1.00  0.00    -0.234 N 
ATOM     19  H12 UNL     1      -0.703  -7.566   7.922  1.00  0.00     0.174 HD
ATOM     20  H11 UNL     1       0.835  -6.672   7.966  1.00  0.00     0.174 HD
ENDBRANCH   5  18
ENDBRANCH   1   3
BRANCH   1  21
HETATM   21  C3  UNL     1       1.136 -10.795  11.432  1.00  0.00     0.178 C 
BRANCH  21  22
HETATM   22  C4  UNL     1       2.024 -10.813  12.633  1.00  0.00     0.031 A 
HETATM   23  C5  UNL     1       3.155 -11.599  12.555  1.00  0.00     0.075 A 
HETATM   24  C6  UNL     1       4.043 -11.681  13.621  1.00  0.00     0.105 A 
HETATM   25  N6  UNL     1       3.753 -10.964  14.724  1.00  0.00    -0.339 N 
HETATM   26  C11 UNL     1       2.646 -10.203  14.781  1.00  0.00     0.182 A 
ATOM     27  H6  UNL     1       4.382 -10.999  15.527  1.00  0.00     0.168 HD
HETATM   28  N7  UNL     1       1.777 -10.122  13.743  1.00  0.00    -0.354 N 
ATOM     29  H7  UNL     1       0.944  -9.538  13.812  1.00  0.00     0.166 HD
BRANCH  24  30
HETATM   30  N4  UNL     1       5.209 -12.494  13.533  1.00  0.00    -0.364 N 
HETATM   31  C7  UNL     1       5.550 -13.316  14.651  1.00  0.00     0.152 C 
HETATM   32  C8  UNL     1       7.031 -13.529  14.808  1.00  0.00     0.252 C 
HETATM   33  N5  UNL     1       7.752 -13.522  13.577  1.00  0.00    -0.072 N 
HETATM   34  C9  UNL     1       6.937 -13.688  12.413  1.00  0.00     0.252 C 
ATOM     35  H52 UNL     1       8.314 -12.674  13.500  1.00  0.00     0.277 HD
ATOM     36  H51 UNL     1       8.493 -14.222  13.596  1.00  0.00     0.277 HD
HETATM   37  C10 UNL     1       6.004 -12.472  12.341  1.00  0.00     0.152 C 
ENDBRANCH  24  30
ENDBRANCH  21  22
ENDBRANCH   1  21
TORSDOF 5
ENDMDL
MODEL 5
REMARK VINA RESULT: -6.970629743      2.371      3.316
REMARK  5 active torsions:
REMARK  status: ('A' for Active; 'I' for Inactive)
REMARK    1  A    between atoms: N1_1  and  C1_4 
REMARK    2  A    between atoms: C2_7  and  N3_8 
REMARK    3  A    between atoms: N3_8  and  C3_10 
REMARK    4  A    between atoms: C3_10  and  C4_11 
REMARK    5  A    between atoms: C6_13  and  N4_14 
ROOT
HETATM    1  N3  UNL     1       1.985 -11.245  10.106  1.00  0.00    -0.368 N 
ATOM      2  H3  UNL     1       2.683 -11.981  10.203  1.00  0.00     0.161 HD
ENDROOT
BRANCH   1   3
HETATM    3  C2  UNL     1       1.889 -10.619   8.998  1.00  0.00     0.148 A 
HETATM    4  N2  UNL     1       1.244  -9.445   8.914  1.00  0.00    -0.175 N 
HETATM    5  C1  UNL     1       1.182  -8.838   7.711  1.00  0.00     0.679 A 
ATOM      6  H2  UNL     1       0.813  -9.024   9.737  1.00  0.00     0.186 HD
HETATM    7  N10 UNL     1       1.754  -9.392   6.605  1.00  0.00    -0.174 N 
HETATM    8  C15 UNL     1       2.401 -10.567   6.685  1.00  0.00     0.154 A 
ATOM      9  H10 UNL     1       1.690  -8.910   5.709  1.00  0.00     0.186 HD
HETATM   10  C12 UNL     1       2.491 -11.226   7.889  1.00  0.00     0.122 A 
HETATM   11  N9  UNL     1       2.982 -11.152   5.617  1.00  0.00    -0.306 N 
HETATM   12  N8  UNL     1       3.137 -12.417   8.018  1.00  0.00    -0.355 N 
HETATM   13  C13 UNL     1       3.706 -12.973   6.932  1.00  0.00     0.163 A 
ATOM     14  H8  UNL     1       3.189 -12.881   8.925  1.00  0.00     0.165 HD
HETATM   15  C14 UNL     1       3.629 -12.334   5.712  1.00  0.00     0.262 A 
HETATM   16  O1  UNL     1       4.154 -12.830   4.668  1.00  0.00    -0.267 OA
ATOM     17  H9  UNL     1       2.931 -10.688   4.710  1.00  0.00     0.170 HD
BRANCH   5  18
HETATM   18  N1  UNL     1       0.561  -7.712   7.637  1.00  0.00    -0.234 N 
ATOM     19  H12 UNL     1       0.514  -7.088   8.443  1.00  0.00     0.174 HD
ATOM     20  H11 UNL     1       0.121  -7.468   6.750  1.00  0.00     0.174 HD
ENDBRANCH   5  18
ENDBRANCH   1   3
BRANCH   1  21
HETATM   21  C3  UNL     1       1.132 -10.937  11.216  1.00  0.00     0.178 C 
BRANCH  21  22
HETATM   22  C4  UNL     1       1.887 -10.713  12.486  1.00  0.00     0.031 A 
HETATM   23  C5  UNL     1       3.263 -10.713  12.395  1.00  0.00     0.075 A 
HETATM   24  C6  UNL     1       4.053 -10.514  13.521  1.00  0.00     0.105 A 
HETATM   25  N6  UNL     1       3.420 -10.322  14.695  1.00  0.00    -0.339 N 
HETATM   26  C11 UNL     1       2.077 -10.325  14.763  1.00  0.00     0.182 A 
ATOM     27  H6  UNL     1       3.967 -10.172  15.543  1.00  0.00     0.168 HD
HETATM   28  N7  UNL     1       1.304 -10.520  13.666  1.00  0.00    -0.354 N 
ATOM     29  H7  UNL     1       0.287 -10.519  13.745  1.00  0.00     0.166 HD
BRANCH  24  30
HETATM   30  N4  UNL     1       5.474 -10.515  13.421  1.00  0.00    -0.364 N 
HETATM   31  C7  UNL     1       6.171  -9.285  13.622  1.00  0.00     0.152 C 
HETATM   32  C8  UNL     1       7.443  -9.179  12.824  1.00  0.00     0.252 C 
HETATM   33  N5  UNL     1       8.088 -10.430  12.594  1.00  0.00    -0.072 N 
HETATM   34  C9  UNL     1       7.645 -11.491  13.446  1.00  0.00     0.252 C 
ATOM     35  H52 UNL     1       7.999 -10.701  11.615  1.00  0.00     0.277 HD
ATOM     36  H51 UNL     1       9.100 -10.324  12.655  1.00  0.00     0.277 HD
HETATM   37  C10 UNL     1       6.165 -11.736  13.125  1.00  0.00     0.152 C 
ENDBRANCH  24  30
ENDBRANCH  21  22
ENDBRANCH   1  21
TORSDOF 5
ENDMDL
