MODEL 1
REMARK VINA RESULT: -10.756021971      0.000      0.000
REMARK  5 active torsions:
REMARK  status: ('A' for Active; 'I' for Inactive)
REMARK    1  A    between atoms: O1_1  and  C1_3 
REMARK    2  A    between atoms: C2_4  and  O2_5 
REMARK    3  A    between atoms: C2_4  and  C3_7 
REMARK    4  A    between atoms: C4_8  and  C5_9 
REMARK    5  A    between atoms: C9_13  and  C10_14 
ROOT
HETATM    1  C1  UNL     1      24.960   3.737  20.744  1.00  0.00     0.183 A 
HETATM    2  C2  UNL     1      23.957   4.748  21.123  1.00  0.00     0.162 A 
HETATM    3  C12 UNL     1      23.531   3.375  20.966  1.00  0.00     0.066 A 
HETATM    4  C13 UNL     1      22.866   2.994  19.631  1.00  0.00     0.061 C 
HETATM    5  C14 UNL     1      23.440   1.631  19.332  1.00  0.00    -0.043 A 
HETATM    6  C15 UNL     1      24.071   1.355  18.176  1.00  0.00     0.050 A 
HETATM    7  C16 UNL     1      24.479   0.048  17.924  1.00  0.00     0.117 A 
HETATM    8  F4  UNL     1      25.111  -0.228  16.760  1.00  0.00    -0.206 F 
HETATM    9  C17 UNL     1      24.228  -0.917  18.863  1.00  0.00     0.043 A 
HETATM   10  C18 UNL     1      23.582  -0.630  20.058  1.00  0.00     0.016 A 
HETATM   11  C19 UNL     1      23.176   0.675  20.296  1.00  0.00    -0.018 A 
HETATM   12  C20 UNL     1      22.939   1.079  21.662  1.00  0.00    -0.007 A 
HETATM   13  C21 UNL     1      23.068   2.458  22.003  1.00  0.00    -0.030 A 
HETATM   14  C22 UNL     1      22.812   2.891  23.270  1.00  0.00     0.010 A 
HETATM   15  C23 UNL     1      22.427   2.002  24.230  1.00  0.00     0.013 A 
HETATM   16  C24 UNL     1      22.287   0.660  23.907  1.00  0.00    -0.025 A 
HETATM   17  C25 UNL     1      21.749  -0.195  24.848  1.00  0.00     0.012 A 
HETATM   18  C26 UNL     1      21.440  -1.484  24.545  1.00  0.00     0.001 A 
HETATM   19  C27 UNL     1      21.660  -1.951  23.269  1.00  0.00     0.001 A 
HETATM   20  C28 UNL     1      22.210  -1.105  22.297  1.00  0.00     0.013 A 
HETATM   21  C29 UNL     1      22.534   0.178  22.611  1.00  0.00    -0.014 A 
ENDROOT
BRANCH   1  22
HETATM   22  O1  UNL     1      25.503   3.835  19.464  1.00  0.00    -0.390 OA
ATOM     23  H1  UNL     1      25.277   3.150  18.846  1.00  0.00     0.210 HD
ENDBRANCH   1  22
BRANCH   2  24
HETATM   24  O2  UNL     1      24.261   5.411  22.297  1.00  0.00    -0.373 OA
ATOM     25  H2  UNL     1      23.695   6.155  22.468  1.00  0.00     0.212 HD
ENDBRANCH   2  24
BRANCH   2  26
HETATM   26  C3  UNL     1      23.459   5.670  20.067  1.00  0.00    -0.059 C 
HETATM   27  C4  UNL     1      23.072   6.456  19.214  1.00  0.00    -0.064 C 
BRANCH  27  28
HETATM   28  C5  UNL     1      22.640   7.408  18.240  1.00  0.00     0.018 A 
HETATM   29  C6  UNL     1      23.284   7.534  17.029  1.00  0.00     0.020 A 
HETATM   30  C7  UNL     1      22.845   8.455  16.086  1.00  0.00     0.002 A 
HETATM   31  C8  UNL     1      21.772   9.276  16.297  1.00  0.00     0.016 A 
HETATM   32  C9  UNL     1      21.110   9.157  17.529  1.00  0.00     0.049 A 
HETATM   33  C11 UNL     1      21.556   8.235  18.460  1.00  0.00     0.036 A 
BRANCH  32  34
HETATM   34  C10 UNL     1      19.926   9.991  17.864  1.00  0.00     0.417 C 
HETATM   35  F1  UNL     1      19.832  10.221  19.227  1.00  0.00    -0.166 F 
HETATM   36  F2  UNL     1      20.017  11.172  17.157  1.00  0.00    -0.166 F 
HETATM   37  F3  UNL     1      18.749   9.362  17.490  1.00  0.00    -0.166 F 
ENDBRANCH  32  34
ENDBRANCH  27  28
ENDBRANCH   2  26
TORSDOF 5
ENDMDL
MODEL 2
REMARK VINA RESULT: -10.220891839      3.303      9.470
REMARK  5 active torsions:
REMARK  status: ('A' for Active; 'I' for Inactive)
REMARK    1  A    between atoms: O1_1  and  C1_3 
REMARK    2  A    between atoms: C2_4  and  O2_5 
REMARK    3  A    between atoms: C2_4  and  C3_7 
REMARK    4  A    between atoms: C4_8  and  C5_9 
REMARK    5  A    between atoms: C9_13  and  C10_14 
ROOT
HETATM    1  C1  UNL     1      24.762   4.661  21.084  1.00  0.00     0.183 A 
HETATM    2  C2  UNL     1      24.653   3.352  20.418  1.00  0.00     0.162 A 
HETATM    3  C12 UNL     1      23.829   4.441  19.942  1.00  0.00     0.066 A 
HETATM    4  C13 UNL     1      22.370   4.486  20.432  1.00  0.00     0.061 C 
HETATM    5  C14 UNL     1      22.132   5.954  20.687  1.00  0.00    -0.043 A 
HETATM    6  C15 UNL     1      21.703   6.415  21.876  1.00  0.00     0.050 A 
HETATM    7  C16 UNL     1      21.402   7.768  22.007  1.00  0.00     0.117 A 
HETATM    8  F4  UNL     1      20.967   8.230  23.202  1.00  0.00    -0.206 F 
HETATM    9  C17 UNL     1      21.555   8.589  20.922  1.00  0.00     0.043 A 
HETATM   10  C18 UNL     1      22.004   8.113  19.697  1.00  0.00     0.016 A 
HETATM   11  C19 UNL     1      22.296   6.762  19.577  1.00  0.00    -0.018 A 
HETATM   12  C20 UNL     1      23.173   6.344  18.508  1.00  0.00    -0.007 A 
HETATM   13  C21 UNL     1      23.919   5.139  18.662  1.00  0.00    -0.030 A 
HETATM   14  C22 UNL     1      24.726   4.684  17.662  1.00  0.00     0.010 A 
HETATM   15  C23 UNL     1      24.827   5.383  16.495  1.00  0.00     0.013 A 
HETATM   16  C24 UNL     1      24.096   6.550  16.329  1.00  0.00    -0.025 A 
HETATM   17  C25 UNL     1      24.090   7.158  15.089  1.00  0.00     0.012 A 
HETATM   18  C26 UNL     1      23.275   8.211  14.816  1.00  0.00     0.001 A 
HETATM   19  C27 UNL     1      22.428   8.683  15.793  1.00  0.00     0.001 A 
HETATM   20  C28 UNL     1      22.418   8.088  17.060  1.00  0.00     0.013 A 
HETATM   21  C29 UNL     1      23.248   7.047  17.334  1.00  0.00    -0.014 A 
ENDROOT
BRANCH   1  22
HETATM   22  O1  UNL     1      24.308   4.741  22.399  1.00  0.00    -0.390 OA
ATOM     23  H1  UNL     1      23.809   4.002  22.728  1.00  0.00     0.210 HD
ENDBRANCH   1  22
BRANCH   2  24
HETATM   24  O2  UNL     1      25.848   2.902  19.890  1.00  0.00    -0.373 OA
ATOM     25  H2  UNL     1      26.049   2.003  20.122  1.00  0.00     0.212 HD
ENDBRANCH   2  24
BRANCH   2  26
HETATM   26  C3  UNL     1      23.901   2.273  21.113  1.00  0.00    -0.059 C 
HETATM   27  C4  UNL     1      23.269   1.413  21.710  1.00  0.00    -0.064 C 
BRANCH  27  28
HETATM   28  C5  UNL     1      22.520   0.439  22.439  1.00  0.00     0.018 A 
HETATM   29  C6  UNL     1      21.320  -0.041  21.965  1.00  0.00     0.020 A 
HETATM   30  C7  UNL     1      20.609  -0.998  22.678  1.00  0.00     0.002 A 
HETATM   31  C8  UNL     1      21.045  -1.509  23.869  1.00  0.00     0.016 A 
HETATM   32  C9  UNL     1      22.267  -1.024  24.362  1.00  0.00     0.049 A 
HETATM   33  C11 UNL     1      22.966  -0.072  23.643  1.00  0.00     0.036 A 
BRANCH  32  34
HETATM   34  C10 UNL     1      22.843  -1.515  25.642  1.00  0.00     0.417 C 
HETATM   35  F1  UNL     1      21.919  -2.249  26.369  1.00  0.00    -0.166 F 
HETATM   36  F2  UNL     1      23.965  -2.262  25.351  1.00  0.00    -0.166 F 
HETATM   37  F3  UNL     1      23.233  -0.462  26.452  1.00  0.00    -0.166 F 
ENDBRANCH  32  34
ENDBRANCH  27  28
ENDBRANCH   2  26
TORSDOF 5
ENDMDL
MODEL 3
REMARK VINA RESULT: -9.195851676      4.174      9.058
REMARK  5 active torsions:
REMARK  status: ('A' for Active; 'I' for Inactive)
REMARK    1  A    between atoms: O1_1  and  C1_3 
REMARK    2  A    between atoms: C2_4  and  O2_5 
REMARK    3  A    between atoms: C2_4  and  C3_7 
REMARK    4  A    between atoms: C4_8  and  C5_9 
REMARK    5  A    between atoms: C9_13  and  C10_14 
ROOT
HETATM    1  C1  UNL     1      22.449   2.229  20.461  1.00  0.00     0.183 A 
HETATM    2  C2  UNL     1      22.331   2.890  21.773  1.00  0.00     0.162 A 
HETATM    3  C12 UNL     1      23.229   3.457  20.791  1.00  0.00     0.066 A 
HETATM    4  C13 UNL     1      24.724   3.115  20.925  1.00  0.00     0.061 C 
HETATM    5  C14 UNL     1      25.163   2.900  19.498  1.00  0.00    -0.043 A 
HETATM    6  C15 UNL     1      25.762   1.765  19.094  1.00  0.00     0.050 A 
HETATM    7  C16 UNL     1      26.237   1.679  17.788  1.00  0.00     0.117 A 
HETATM    8  F4  UNL     1      26.842   0.538  17.385  1.00  0.00    -0.206 F 
HETATM    9  C17 UNL     1      26.076   2.752  16.953  1.00  0.00     0.043 A 
HETATM   10  C18 UNL     1      25.452   3.920  17.368  1.00  0.00     0.016 A 
HETATM   11  C19 UNL     1      24.988   3.997  18.673  1.00  0.00    -0.018 A 
HETATM   12  C20 UNL     1      23.964   4.969  18.979  1.00  0.00    -0.007 A 
HETATM   13  C21 UNL     1      23.096   4.728  20.085  1.00  0.00    -0.030 A 
HETATM   14  C22 UNL     1      22.144   5.638  20.436  1.00  0.00     0.010 A 
HETATM   15  C23 UNL     1      22.012   6.796  19.729  1.00  0.00     0.013 A 
HETATM   16  C24 UNL     1      22.859   7.047  18.659  1.00  0.00    -0.025 A 
HETATM   17  C25 UNL     1      22.814   8.287  18.053  1.00  0.00     0.012 A 
HETATM   18  C26 UNL     1      23.719   8.651  17.107  1.00  0.00     0.001 A 
HETATM   19  C27 UNL     1      24.711   7.769  16.744  1.00  0.00     0.001 A 
HETATM   20  C28 UNL     1      24.776   6.502  17.338  1.00  0.00     0.013 A 
HETATM   21  C29 UNL     1      23.857   6.136  18.270  1.00  0.00    -0.014 A 
ENDROOT
BRANCH   1  22
HETATM   22  O1  UNL     1      23.039   0.967  20.440  1.00  0.00    -0.390 OA
ATOM     23  H1  UNL     1      22.455   0.219  20.387  1.00  0.00     0.210 HD
ENDBRANCH   1  22
BRANCH   2  24
HETATM   24  O2  UNL     1      21.043   3.291  22.073  1.00  0.00    -0.373 OA
ATOM     25  H2  UNL     1      21.006   4.020  22.682  1.00  0.00     0.212 HD
ENDBRANCH   2  24
BRANCH   2  26
HETATM   26  C3  UNL     1      23.013   2.261  22.936  1.00  0.00    -0.059 C 
HETATM   27  C4  UNL     1      23.552   1.712  23.886  1.00  0.00    -0.064 C 
BRANCH  27  28
HETATM   28  C5  UNL     1      24.153   1.037  24.992  1.00  0.00     0.018 A 
HETATM   29  C6  UNL     1      23.469   0.851  26.173  1.00  0.00     0.020 A 
HETATM   30  C7  UNL     1      24.061   0.181  27.237  1.00  0.00     0.002 A 
HETATM   31  C8  UNL     1      25.330  -0.324  27.179  1.00  0.00     0.016 A 
HETATM   32  C9  UNL     1      26.036  -0.139  25.980  1.00  0.00     0.049 A 
HETATM   33  C11 UNL     1      25.436   0.529  24.928  1.00  0.00     0.036 A 
BRANCH  32  34
HETATM   34  C10 UNL     1      27.419  -0.654  25.800  1.00  0.00     0.417 C 
HETATM   35  F1  UNL     1      27.703  -0.898  24.466  1.00  0.00    -0.166 F 
HETATM   36  F2  UNL     1      28.295   0.263  26.343  1.00  0.00    -0.166 F 
HETATM   37  F3  UNL     1      27.597  -1.855  26.466  1.00  0.00    -0.166 F 
ENDBRANCH  32  34
ENDBRANCH  27  28
ENDBRANCH   2  26
TORSDOF 5
ENDMDL
MODEL 4
REMARK VINA RESULT: -9.191026123      3.192      9.235
REMARK  5 active torsions:
REMARK  status: ('A' for Active; 'I' for Inactive)
REMARK    1  A    between atoms: O1_1  and  C1_3 
REMARK    2  A    between atoms: C2_4  and  O2_5 
REMARK    3  A    between atoms: C2_4  and  C3_7 
REMARK    4  A    between atoms: C4_8  and  C5_9 
REMARK    5  A    between atoms: C9_13  and  C10_14 
ROOT
HETATM    1  C1  UNL     1      24.316   5.605  21.004  1.00  0.00     0.183 A 
HETATM    2  C2  UNL     1      24.266   4.624  19.906  1.00  0.00     0.162 A 
HETATM    3  C12 UNL     1      23.148   5.525  20.081  1.00  0.00     0.066 A 
HETATM    4  C13 UNL     1      21.917   4.982  20.827  1.00  0.00     0.061 C 
HETATM    5  C14 UNL     1      21.490   6.144  21.690  1.00  0.00    -0.043 A 
HETATM    6  C15 UNL     1      21.349   6.034  23.024  1.00  0.00     0.050 A 
HETATM    7  C16 UNL     1      20.849   7.117  23.742  1.00  0.00     0.117 A 
HETATM    8  F4  UNL     1      20.705   7.004  25.082  1.00  0.00    -0.206 F 
HETATM    9  C17 UNL     1      20.520   8.263  23.068  1.00  0.00     0.043 A 
HETATM   10  C18 UNL     1      20.671   8.377  21.693  1.00  0.00     0.016 A 
HETATM   11  C19 UNL     1      21.165   7.290  20.987  1.00  0.00    -0.018 A 
HETATM   12  C20 UNL     1      21.752   7.527  19.689  1.00  0.00    -0.007 A 
HETATM   13  C21 UNL     1      22.725   6.608  19.196  1.00  0.00    -0.030 A 
HETATM   14  C22 UNL     1      23.274   6.768  17.959  1.00  0.00     0.010 A 
HETATM   15  C23 UNL     1      22.894   7.816  17.174  1.00  0.00     0.013 A 
HETATM   16  C24 UNL     1      21.939   8.710  17.638  1.00  0.00    -0.025 A 
HETATM   17  C25 UNL     1      21.455   9.671  16.773  1.00  0.00     0.012 A 
HETATM   18  C26 UNL     1      20.412  10.474  17.111  1.00  0.00     0.001 A 
HETATM   19  C27 UNL     1      19.815  10.325  18.343  1.00  0.00     0.001 A 
HETATM   20  C28 UNL     1      20.290   9.362  19.241  1.00  0.00     0.013 A 
HETATM   21  C29 UNL     1      21.346   8.574  18.905  1.00  0.00    -0.014 A 
ENDROOT
BRANCH   1  22
HETATM   22  O1  UNL     1      24.261   5.103  22.303  1.00  0.00    -0.390 OA
ATOM     23  H1  UNL     1      24.990   4.566  22.589  1.00  0.00     0.210 HD
ENDBRANCH   1  22
BRANCH   2  24
HETATM   24  O2  UNL     1      25.316   4.741  19.016  1.00  0.00    -0.373 OA
ATOM     25  H2  UNL     1      26.117   5.062  19.416  1.00  0.00     0.212 HD
ENDBRANCH   2  24
BRANCH   2  26
HETATM   26  C3  UNL     1      23.970   3.207  20.248  1.00  0.00    -0.059 C 
HETATM   27  C4  UNL     1      23.752   2.044  20.557  1.00  0.00    -0.064 C 
BRANCH  27  28
HETATM   28  C5  UNL     1      23.533   0.687  20.948  1.00  0.00     0.018 A 
HETATM   29  C6  UNL     1      24.197  -0.350  20.332  1.00  0.00     0.020 A 
HETATM   30  C7  UNL     1      23.984  -1.664  20.731  1.00  0.00     0.002 A 
HETATM   31  C8  UNL     1      23.120  -2.001  21.735  1.00  0.00     0.016 A 
HETATM   32  C9  UNL     1      22.436  -0.951  22.368  1.00  0.00     0.049 A 
HETATM   33  C11 UNL     1      22.657   0.353  21.963  1.00  0.00     0.036 A 
BRANCH  32  34
HETATM   34  C10 UNL     1      21.480  -1.199  23.479  1.00  0.00     0.417 C 
HETATM   35  F1  UNL     1      21.883  -2.262  24.271  1.00  0.00    -0.166 F 
HETATM   36  F2  UNL     1      21.362  -0.038  24.214  1.00  0.00    -0.166 F 
HETATM   37  F3  UNL     1      20.224  -1.525  22.995  1.00  0.00    -0.166 F 
ENDBRANCH  32  34
ENDBRANCH  27  28
ENDBRANCH   2  26
TORSDOF 5
ENDMDL
MODEL 5
REMARK VINA RESULT: -9.144125842      4.160      8.869
REMARK  5 active torsions:
REMARK  status: ('A' for Active; 'I' for Inactive)
REMARK    1  A    between atoms: O1_1  and  C1_3 
REMARK    2  A    between atoms: C2_4  and  O2_5 
REMARK    3  A    between atoms: C2_4  and  C3_7 
REMARK    4  A    between atoms: C4_8  and  C5_9 
REMARK    5  A    between atoms: C9_13  and  C10_14 
ROOT
HETATM    1  C1  UNL     1      21.713   2.368  21.064  1.00  0.00     0.183 A 
HETATM    2  C2  UNL     1      21.808   3.111  22.333  1.00  0.00     0.162 A 
HETATM    3  C12 UNL     1      22.727   3.442  21.267  1.00  0.00     0.066 A 
HETATM    4  C13 UNL     1      24.138   2.832  21.340  1.00  0.00     0.061 C 
HETATM    5  C14 UNL     1      24.433   2.459  19.908  1.00  0.00    -0.043 A 
HETATM    6  C15 UNL     1      24.783   1.210  19.549  1.00  0.00     0.050 A 
HETATM    7  C16 UNL     1      25.144   0.962  18.228  1.00  0.00     0.117 A 
HETATM    8  F4  UNL     1      25.498  -0.293  17.869  1.00  0.00    -0.206 F 
HETATM    9  C17 UNL     1      25.129   1.999  17.332  1.00  0.00     0.043 A 
HETATM   10  C18 UNL     1      24.762   3.285  17.703  1.00  0.00     0.016 A 
HETATM   11  C19 UNL     1      24.409   3.521  19.023  1.00  0.00    -0.018 A 
HETATM   12  C20 UNL     1      23.606   4.685  19.320  1.00  0.00    -0.007 A 
HETATM   13  C21 UNL     1      22.785   4.674  20.486  1.00  0.00    -0.030 A 
HETATM   14  C22 UNL     1      22.044   5.766  20.827  1.00  0.00     0.010 A 
HETATM   15  C23 UNL     1      22.082   6.887  20.052  1.00  0.00     0.013 A 
HETATM   16  C24 UNL     1      22.887   6.913  18.922  1.00  0.00    -0.025 A 
HETATM   17  C25 UNL     1      23.032   8.104  18.238  1.00  0.00     0.012 A 
HETATM   18  C26 UNL     1      23.923   8.237  17.220  1.00  0.00     0.001 A 
HETATM   19  C27 UNL     1      24.707   7.164  16.862  1.00  0.00     0.001 A 
HETATM   20  C28 UNL     1      24.576   5.943  17.536  1.00  0.00     0.013 A 
HETATM   21  C29 UNL     1      23.670   5.810  18.541  1.00  0.00    -0.014 A 
ENDROOT
BRANCH   1  22
HETATM   22  O1  UNL     1      22.056   1.018  21.095  1.00  0.00    -0.390 OA
ATOM     23  H1  UNL     1      21.620   0.477  21.744  1.00  0.00     0.210 HD
ENDBRANCH   1  22
BRANCH   2  24
HETATM   24  O2  UNL     1      20.640   3.765  22.677  1.00  0.00    -0.373 OA
ATOM     25  H2  UNL     1      20.766   4.448  23.325  1.00  0.00     0.212 HD
ENDBRANCH   2  24
BRANCH   2  26
HETATM   26  C3  UNL     1      22.438   2.430  23.496  1.00  0.00    -0.059 C 
HETATM   27  C4  UNL     1      22.990   1.873  24.434  1.00  0.00    -0.064 C 
BRANCH  27  28
HETATM   28  C5  UNL     1      23.673   1.219  25.505  1.00  0.00     0.018 A 
HETATM   29  C6  UNL     1      22.983   0.656  26.555  1.00  0.00     0.020 A 
HETATM   30  C7  UNL     1      23.659   0.011  27.583  1.00  0.00     0.002 A 
HETATM   31  C8  UNL     1      25.021  -0.099  27.618  1.00  0.00     0.016 A 
HETATM   32  C9  UNL     1      25.735   0.474  26.553  1.00  0.00     0.049 A 
HETATM   33  C11 UNL     1      25.050   1.112  25.534  1.00  0.00     0.036 A 
BRANCH  32  34
HETATM   34  C10 UNL     1      27.218   0.405  26.480  1.00  0.00     0.417 C 
HETATM   35  F1  UNL     1      27.756  -0.210  27.599  1.00  0.00    -0.166 F 
HETATM   36  F2  UNL     1      27.563  -0.260  25.322  1.00  0.00    -0.166 F 
HETATM   37  F3  UNL     1      27.775   1.672  26.423  1.00  0.00    -0.166 F 
ENDBRANCH  32  34
ENDBRANCH  27  28
ENDBRANCH   2  26
TORSDOF 5
ENDMDL
