MODEL 1
REMARK VINA RESULT: -7.405545942      0.000      0.000
REMARK  1 active torsions:
REMARK  status: ('A' for Active; 'I' for Inactive)
REMARK    1  A    between atoms: C20_26  and  C21_27 
ROOT
HETATM    1  C1  UNL     1      20.799   1.052  21.863  1.00  0.00     0.021 C 
HETATM    2  C2  UNL     1      22.058   1.633  22.527  1.00  0.00     0.007 C 
HETATM    3  C3  UNL     1      21.523   2.861  23.196  1.00  0.00     0.044 A 
HETATM    4  C4  UNL     1      21.834   3.969  22.425  1.00  0.00     0.039 A 
HETATM    5  N1  UNL     1      21.327   5.053  23.072  1.00  0.00    -0.301 N 
ATOM      6  H1  UNL     1      21.406   6.012  22.734  1.00  0.00     0.186 HD
HETATM    7  N2  UNL     1      20.731   4.714  24.171  1.00  0.00    -0.266 N 
ATOM      8  H2  UNL     1      20.273   5.343  24.830  1.00  0.00     0.190 HD
HETATM    9  C5  UNL     1      20.833   3.359  24.278  1.00  0.00     0.268 A 
HETATM   10  O1  UNL     1      20.358   2.694  25.227  1.00  0.00    -0.266 OA
HETATM   11  C6  UNL     1      22.564   3.548  21.202  1.00  0.00     0.065 C 
HETATM   12  C7  UNL     1      23.027   2.159  21.561  1.00  0.00     0.009 C 
HETATM   13  C8  UNL     1      23.263   1.312  20.343  1.00  0.00    -0.005 C 
HETATM   14  C9  UNL     1      24.431   2.007  19.607  1.00  0.00     0.006 C 
HETATM   15  C10 UNL     1      24.412   1.459  18.203  1.00  0.00     0.005 C 
HETATM   16  C11 UNL     1      23.869   0.081  18.161  1.00  0.00    -0.009 C 
HETATM   17  C12 UNL     1      24.440  -0.643  16.962  1.00  0.00     0.020 C 
HETATM   18  C13 UNL     1      25.935  -0.690  17.026  1.00  0.00     0.058 C 
HETATM   19 BR1  UNL     1      26.508  -2.207  15.942  1.00  0.00    -0.091 Br
HETATM   20  C14 UNL     1      26.461  -0.812  18.432  1.00  0.00     0.016 C 
HETATM   21  C15 UNL     1      25.483  -1.398  19.389  1.00  0.00     0.006 C 
HETATM   22  C16 UNL     1      24.120  -0.767  19.357  1.00  0.00    -0.006 C 
HETATM   23  C17 UNL     1      23.797  -0.045  20.687  1.00  0.00    -0.006 C 
HETATM   24  C18 UNL     1      22.893  -0.912  21.464  1.00  0.00     0.006 C 
HETATM   25  C19 UNL     1      22.686  -0.752  22.894  1.00  0.00     0.015 C 
HETATM   26  C20 UNL     1      22.517   0.617  23.500  1.00  0.00     0.107 C 
ENDROOT
BRANCH  26  27
HETATM   27  C21 UNL     1      23.665   0.865  24.389  1.00  0.00     0.392 C 
HETATM   28  F1  UNL     1      24.924   0.838  23.838  1.00  0.00    -0.171 F 
HETATM   29  F2  UNL     1      23.642   1.996  25.173  1.00  0.00    -0.171 F 
HETATM   30  F3  UNL     1      23.718  -0.191  25.333  1.00  0.00    -0.171 F 
ENDBRANCH  26  27
TORSDOF 1
ENDMDL
MODEL 2
REMARK VINA RESULT: -7.186111135      4.428      6.279
REMARK  1 active torsions:
REMARK  status: ('A' for Active; 'I' for Inactive)
REMARK    1  A    between atoms: C20_26  and  C21_27 
ROOT
HETATM    1  C1  UNL     1      22.833   1.780  18.355  1.00  0.00     0.021 C 
HETATM    2  C2  UNL     1      23.884   2.569  19.152  1.00  0.00     0.007 C 
HETATM    3  C3  UNL     1      24.895   2.901  18.099  1.00  0.00     0.044 A 
HETATM    4  C4  UNL     1      25.966   2.029  18.207  1.00  0.00     0.039 A 
HETATM    5  N1  UNL     1      26.851   2.370  17.232  1.00  0.00    -0.301 N 
ATOM      6  H1  UNL     1      27.740   1.895  17.072  1.00  0.00     0.186 HD
HETATM    7  N2  UNL     1      26.423   3.372  16.531  1.00  0.00    -0.266 N 
ATOM      8  H2  UNL     1      26.903   3.812  15.746  1.00  0.00     0.190 HD
HETATM    9  C5  UNL     1      25.210   3.726  17.042  1.00  0.00     0.268 A 
HETATM   10  O1  UNL     1      24.508   4.662  16.595  1.00  0.00    -0.266 OA
HETATM   11  C6  UNL     1      25.725   1.063  19.309  1.00  0.00     0.065 C 
HETATM   12  C7  UNL     1      24.632   1.737  20.099  1.00  0.00     0.009 C 
HETATM   13  C8  UNL     1      23.819   0.752  20.889  1.00  0.00    -0.005 C 
HETATM   14  C9  UNL     1      24.815   0.152  21.907  1.00  0.00     0.006 C 
HETATM   15  C10 UNL     1      24.171  -1.115  22.411  1.00  0.00     0.005 C 
HETATM   16  C11 UNL     1      22.693  -1.027  22.376  1.00  0.00    -0.009 C 
HETATM   17  C12 UNL     1      22.115  -1.949  23.427  1.00  0.00     0.020 C 
HETATM   18  C13 UNL     1      22.612  -1.586  24.792  1.00  0.00     0.058 C 
HETATM   19 BR1  UNL     1      21.308  -2.262  26.075  1.00  0.00    -0.091 Br
HETATM   20  C14 UNL     1      22.814  -0.105  24.969  1.00  0.00     0.016 C 
HETATM   21  C15 UNL     1      22.006   0.727  24.035  1.00  0.00     0.006 C 
HETATM   22  C16 UNL     1      22.103   0.321  22.592  1.00  0.00    -0.006 C 
HETATM   23  C17 UNL     1      22.780   1.419  21.736  1.00  0.00    -0.006 C 
HETATM   24  C18 UNL     1      21.721   2.140  21.007  1.00  0.00     0.006 C 
HETATM   25  C19 UNL     1      21.926   3.453  20.417  1.00  0.00     0.015 C 
HETATM   26  C20 UNL     1      23.193   3.771  19.667  1.00  0.00     0.107 C 
ENDROOT
BRANCH  26  27
HETATM   27  C21 UNL     1      23.915   4.814  20.418  1.00  0.00     0.392 C 
HETATM   28  F1  UNL     1      23.245   5.460  21.429  1.00  0.00    -0.171 F 
HETATM   29  F2  UNL     1      25.143   4.493  20.949  1.00  0.00    -0.171 F 
HETATM   30  F3  UNL     1      24.209   5.869  19.518  1.00  0.00    -0.171 F 
ENDBRANCH  26  27
TORSDOF 1
ENDMDL
MODEL 3
REMARK VINA RESULT: -6.938864141      4.976      7.401
REMARK  1 active torsions:
REMARK  status: ('A' for Active; 'I' for Inactive)
REMARK    1  A    between atoms: C20_26  and  C21_27 
ROOT
HETATM    1  C1  UNL     1      23.931   0.261  17.216  1.00  0.00     0.021 C 
HETATM    2  C2  UNL     1      25.199   0.567  18.029  1.00  0.00     0.007 C 
HETATM    3  C3  UNL     1      26.203  -0.350  17.405  1.00  0.00     0.044 A 
HETATM    4  C4  UNL     1      26.366  -1.463  18.215  1.00  0.00     0.039 A 
HETATM    5  N1  UNL     1      27.282  -2.262  17.605  1.00  0.00    -0.301 N 
ATOM      6  H1  UNL     1      27.601  -3.157  17.977  1.00  0.00     0.186 HD
HETATM    7  N2  UNL     1      27.698  -1.745  16.493  1.00  0.00    -0.266 N 
ATOM      8  H2  UNL     1      28.383  -2.151  15.855  1.00  0.00     0.190 HD
HETATM    9  C5  UNL     1      27.047  -0.558  16.336  1.00  0.00     0.268 A 
HETATM   10  O1  UNL     1      27.210   0.206  15.358  1.00  0.00    -0.266 OA
HETATM   11  C6  UNL     1      25.475  -1.363  19.399  1.00  0.00     0.065 C 
HETATM   12  C7  UNL     1      25.119   0.102  19.417  1.00  0.00     0.009 C 
HETATM   13  C8  UNL     1      23.817   0.357  20.119  1.00  0.00    -0.005 C 
HETATM   14  C9  UNL     1      24.074  -0.069  21.583  1.00  0.00     0.006 C 
HETATM   15  C10 UNL     1      22.712  -0.237  22.205  1.00  0.00     0.005 C 
HETATM   16  C11 UNL     1      21.709   0.651  21.573  1.00  0.00    -0.009 C 
HETATM   17  C12 UNL     1      20.608   0.946  22.568  1.00  0.00     0.020 C 
HETATM   18  C13 UNL     1      21.157   1.596  23.799  1.00  0.00     0.058 C 
HETATM   19 BR1  UNL     1      19.693   2.585  24.627  1.00  0.00    -0.091 Br
HETATM   20  C14 UNL     1      22.321   2.508  23.514  1.00  0.00     0.016 C 
HETATM   21  C15 UNL     1      22.356   3.015  22.115  1.00  0.00     0.006 C 
HETATM   22  C16 UNL     1      22.208   1.956  21.061  1.00  0.00    -0.006 C 
HETATM   23  C17 UNL     1      23.493   1.816  20.209  1.00  0.00    -0.006 C 
HETATM   24  C18 UNL     1      23.262   2.504  18.926  1.00  0.00     0.006 C 
HETATM   25  C19 UNL     1      24.345   2.910  18.045  1.00  0.00     0.015 C 
HETATM   26  C20 UNL     1      25.511   1.993  17.784  1.00  0.00     0.107 C 
ENDROOT
BRANCH  26  27
HETATM   27  C21 UNL     1      26.720   2.624  18.341  1.00  0.00     0.392 C 
HETATM   28  F1  UNL     1      26.709   2.972  19.671  1.00  0.00    -0.171 F 
HETATM   29  F2  UNL     1      27.926   1.994  18.145  1.00  0.00    -0.171 F 
HETATM   30  F3  UNL     1      26.891   3.875  17.697  1.00  0.00    -0.171 F 
ENDBRANCH  26  27
TORSDOF 1
ENDMDL
MODEL 4
REMARK VINA RESULT: -6.774491705      2.493      3.474
REMARK  1 active torsions:
REMARK  status: ('A' for Active; 'I' for Inactive)
REMARK    1  A    between atoms: C20_26  and  C21_27 
ROOT
HETATM    1  C1  UNL     1      23.937   1.700  22.846  1.00  0.00     0.021 C 
HETATM    2  C2  UNL     1      22.872   2.138  21.829  1.00  0.00     0.007 C 
HETATM    3  C3  UNL     1      21.636   2.195  22.672  1.00  0.00     0.044 A 
HETATM    4  C4  UNL     1      20.884   1.052  22.451  1.00  0.00     0.039 A 
HETATM    5  N1  UNL     1      19.779   1.150  23.238  1.00  0.00    -0.301 N 
ATOM      6  H1  UNL     1      19.041   0.447  23.283  1.00  0.00     0.186 HD
HETATM    7  N2  UNL     1      19.781   2.249  23.924  1.00  0.00    -0.266 N 
ATOM      8  H2  UNL     1      19.064   2.553  24.583  1.00  0.00     0.190 HD
HETATM    9  C5  UNL     1      20.920   2.921  23.598  1.00  0.00     0.268 A 
HETATM   10  O1  UNL     1      21.244   4.028  24.085  1.00  0.00    -0.266 OA
HETATM   11  C6  UNL     1      21.577   0.168  21.479  1.00  0.00     0.065 C 
HETATM   12  C7  UNL     1      22.566   1.105  20.834  1.00  0.00     0.009 C 
HETATM   13  C8  UNL     1      23.747   0.373  20.266  1.00  0.00    -0.005 C 
HETATM   14  C9  UNL     1      23.156  -0.509  19.144  1.00  0.00     0.006 C 
HETATM   15  C10 UNL     1      24.204  -1.552  18.849  1.00  0.00     0.005 C 
HETATM   16  C11 UNL     1      25.569  -1.047  19.123  1.00  0.00    -0.009 C 
HETATM   17  C12 UNL     1      26.558  -1.792  18.254  1.00  0.00     0.020 C 
HETATM   18  C13 UNL     1      26.235  -1.618  16.802  1.00  0.00     0.058 C 
HETATM   19 BR1  UNL     1      27.885  -1.926  15.807  1.00  0.00    -0.091 Br
HETATM   20  C14 UNL     1      25.668  -0.260  16.485  1.00  0.00     0.016 C 
HETATM   21  C15 UNL     1      26.033   0.789  17.476  1.00  0.00     0.006 C 
HETATM   22  C16 UNL     1      25.794   0.407  18.908  1.00  0.00    -0.006 C 
HETATM   23  C17 UNL     1      24.698   1.288  19.556  1.00  0.00    -0.006 C 
HETATM   24  C18 UNL     1      25.367   2.297  20.397  1.00  0.00     0.006 C 
HETATM   25  C19 UNL     1      24.705   3.512  20.845  1.00  0.00     0.015 C 
HETATM   26  C20 UNL     1      23.286   3.475  21.348  1.00  0.00     0.107 C 
ENDROOT
BRANCH  26  27
HETATM   27  C21 UNL     1      22.452   4.250  20.413  1.00  0.00     0.392 C 
HETATM   28  F1  UNL     1      21.500   3.575  19.688  1.00  0.00    -0.171 F 
HETATM   29  F2  UNL     1      21.810   5.367  20.896  1.00  0.00    -0.171 F 
HETATM   30  F3  UNL     1      23.301   4.767  19.403  1.00  0.00    -0.171 F 
ENDBRANCH  26  27
TORSDOF 1
ENDMDL
MODEL 5
REMARK VINA RESULT: -6.757307696      2.443      3.594
REMARK  1 active torsions:
REMARK  status: ('A' for Active; 'I' for Inactive)
REMARK    1  A    between atoms: C20_26  and  C21_27 
ROOT
HETATM    1  C1  UNL     1      24.676   1.040  23.227  1.00  0.00     0.021 C 
HETATM    2  C2  UNL     1      23.245   0.891  22.688  1.00  0.00     0.007 C 
HETATM    3  C3  UNL     1      22.476   0.540  23.923  1.00  0.00     0.044 A 
HETATM    4  C4  UNL     1      22.245  -0.826  23.941  1.00  0.00     0.039 A 
HETATM    5  N1  UNL     1      21.550  -1.093  25.079  1.00  0.00    -0.301 N 
ATOM      6  H1  UNL     1      21.239  -2.024  25.357  1.00  0.00     0.186 HD
HETATM    7  N2  UNL     1      21.331  -0.016  25.765  1.00  0.00    -0.266 N 
ATOM      8  H2  UNL     1      20.832   0.047  26.652  1.00  0.00     0.190 HD
HETATM    9  C5  UNL     1      21.894   1.017  25.077  1.00  0.00     0.268 A 
HETATM   10  O1  UNL     1      21.873   2.209  25.461  1.00  0.00    -0.266 OA
HETATM   11  C6  UNL     1      22.858  -1.460  22.745  1.00  0.00     0.065 C 
HETATM   12  C7  UNL     1      23.073  -0.283  21.827  1.00  0.00     0.009 C 
HETATM   13  C8  UNL     1      24.173  -0.536  20.837  1.00  0.00    -0.005 C 
HETATM   14  C9  UNL     1      23.655  -1.704  19.969  1.00  0.00     0.006 C 
HETATM   15  C10 UNL     1      24.867  -2.262  19.267  1.00  0.00     0.005 C 
HETATM   16  C11 UNL     1      25.898  -1.221  19.049  1.00  0.00    -0.009 C 
HETATM   17  C12 UNL     1      26.738  -1.597  17.848  1.00  0.00     0.020 C 
HETATM   18  C13 UNL     1      25.890  -1.736  16.622  1.00  0.00     0.058 C 
HETATM   19 BR1  UNL     1      27.058  -1.464  15.083  1.00  0.00    -0.091 Br
HETATM   20  C14 UNL     1      24.736  -0.768  16.592  1.00  0.00     0.016 C 
HETATM   21  C15 UNL     1      24.950   0.445  17.428  1.00  0.00     0.006 C 
HETATM   22  C16 UNL     1      25.406   0.165  18.832  1.00  0.00    -0.006 C 
HETATM   23  C17 UNL     1      24.343   0.597  19.872  1.00  0.00    -0.006 C 
HETATM   24  C18 UNL     1      24.776   1.879  20.455  1.00  0.00     0.006 C 
HETATM   25  C19 UNL     1      23.869   2.766  21.166  1.00  0.00     0.015 C 
HETATM   26  C20 UNL     1      22.868   2.216  22.149  1.00  0.00     0.107 C 
ENDROOT
BRANCH  26  27
HETATM   27  C21 UNL     1      21.519   2.477  21.616  1.00  0.00     0.392 C 
HETATM   28  F1  UNL     1      20.788   1.405  21.163  1.00  0.00    -0.171 F 
HETATM   29  F2  UNL     1      20.648   3.203  22.394  1.00  0.00    -0.171 F 
HETATM   30  F3  UNL     1      21.661   3.270  20.449  1.00  0.00    -0.171 F 
ENDBRANCH  26  27
TORSDOF 1
ENDMDL
