MODEL 1
REMARK VINA RESULT: -7.466808309      0.000      0.000
REMARK  2 active torsions:
REMARK  status: ('A' for Active; 'I' for Inactive)
REMARK    1  A    between atoms: C20_21  and  O1_22 
REMARK    2  A    between atoms: C20_21  and  C21_24 
ROOT
HETATM    1  C1  UNL     1     -13.735   1.667   4.677  1.00  0.00     0.013 C 
HETATM    2  C2  UNL     1     -12.677   1.983   4.195  1.00  0.00    -0.108 C 
HETATM    3  C3  UNL     1     -11.365   2.352   3.612  1.00  0.00     0.019 C 
HETATM    4  C4  UNL     1     -10.346   2.130   4.711  1.00  0.00     0.029 C 
HETATM    5  C5  UNL     1     -11.098   1.331   2.521  1.00  0.00     0.022 C 
HETATM    6  C6  UNL     1     -12.141   1.591   1.448  1.00  0.00     0.007 C 
HETATM    7  C7  UNL     1     -11.891   2.917   0.787  1.00  0.00    -0.010 C 
HETATM    8  C8  UNL     1     -13.148   3.654   0.450  1.00  0.00     0.006 C 
HETATM    9  C9  UNL     1     -12.768   4.708  -0.575  1.00  0.00     0.014 C 
HETATM   10  C10 UNL     1     -11.493   5.417  -0.285  1.00  0.00     0.015 C 
HETATM   11  C11 UNL     1     -11.616   6.858  -0.665  1.00  0.00     0.030 C 
HETATM   12  C12 UNL     1     -11.832   7.858   0.375  1.00  0.00     0.025 C 
HETATM   13  C13 UNL     1     -11.201   7.573   1.705  1.00  0.00     0.059 C 
HETATM   14 BR1  UNL     1     -11.781   8.860   3.010  1.00  0.00    -0.091 Br
HETATM   15  C14 UNL     1     -11.729   6.181   2.091  1.00  0.00     0.021 C 
HETATM   16  C15 UNL     1     -11.013   5.231   1.136  1.00  0.00     0.004 C 
HETATM   17  C16 UNL     1     -11.017   3.820   1.591  1.00  0.00    -0.004 C 
HETATM   18  C17 UNL     1     -11.369   3.749   3.083  1.00  0.00     0.027 C 
HETATM   19  C18 UNL     1     -10.227   6.864  -1.176  1.00  0.00    -0.041 C 
HETATM   20  C19 UNL     1      -9.298   7.754  -1.451  1.00  0.00     0.018 C 
HETATM   21  C20 UNL     1     -10.366   5.358  -1.239  1.00  0.00     0.187 C 
ENDROOT
BRANCH  21  22
HETATM   22  O1  UNL     1      -9.162   4.829  -0.725  1.00  0.00    -0.376 OA
ATOM     23  H1  UNL     1      -8.445   4.768  -1.344  1.00  0.00     0.211 HD
ENDBRANCH  21  22
BRANCH  21  24
HETATM   24  C21 UNL     1     -10.521   4.966  -2.647  1.00  0.00     0.423 C 
HETATM   25  F1  UNL     1      -9.217   4.967  -3.189  1.00  0.00    -0.167 F 
HETATM   26  F2  UNL     1     -11.228   5.845  -3.444  1.00  0.00    -0.167 F 
HETATM   27  F3  UNL     1     -10.931   3.651  -2.858  1.00  0.00    -0.167 F 
ENDBRANCH  21  24
TORSDOF 2
ENDMDL
MODEL 2
REMARK VINA RESULT: -7.374316790      4.531      7.252
REMARK  2 active torsions:
REMARK  status: ('A' for Active; 'I' for Inactive)
REMARK    1  A    between atoms: C20_21  and  O1_22 
REMARK    2  A    between atoms: C20_21  and  C21_24 
ROOT
HETATM    1  C1  UNL     1     -12.970   9.138  -0.054  1.00  0.00     0.013 C 
HETATM    2  C2  UNL     1     -12.017   8.637   0.486  1.00  0.00    -0.108 C 
HETATM    3  C3  UNL     1     -10.830   8.038   1.142  1.00  0.00     0.019 C 
HETATM    4  C4  UNL     1      -9.704   8.144   0.135  1.00  0.00     0.029 C 
HETATM    5  C5  UNL     1     -10.498   8.953   2.306  1.00  0.00     0.022 C 
HETATM    6  C6  UNL     1     -11.654   8.815   3.283  1.00  0.00     0.007 C 
HETATM    7  C7  UNL     1     -11.667   7.437   3.884  1.00  0.00    -0.010 C 
HETATM    8  C8  UNL     1     -13.047   6.896   4.084  1.00  0.00     0.006 C 
HETATM    9  C9  UNL     1     -12.920   5.750   5.072  1.00  0.00     0.014 C 
HETATM   10  C10 UNL     1     -11.751   4.860   4.837  1.00  0.00     0.015 C 
HETATM   11  C11 UNL     1     -12.127   3.442   5.124  1.00  0.00     0.030 C 
HETATM   12  C12 UNL     1     -12.410   2.537   4.016  1.00  0.00     0.025 C 
HETATM   13  C13 UNL     1     -11.635   2.776   2.754  1.00  0.00     0.059 C 
HETATM   14 BR1  UNL     1     -12.299   1.658   1.338  1.00  0.00    -0.091 Br
HETATM   15  C14 UNL     1     -11.908   4.252   2.410  1.00  0.00     0.021 C 
HETATM   16  C15 UNL     1     -11.133   5.031   3.468  1.00  0.00     0.004 C 
HETATM   17  C16 UNL     1     -10.881   6.443   3.095  1.00  0.00    -0.004 C 
HETATM   18  C17 UNL     1     -11.094   6.636   1.588  1.00  0.00     0.027 C 
HETATM   19  C18 UNL     1     -10.801   3.192   5.735  1.00  0.00    -0.041 C 
HETATM   20  C19 UNL     1     -10.047   2.153   6.026  1.00  0.00     0.018 C 
HETATM   21  C20 UNL     1     -10.710   4.697   5.873  1.00  0.00     0.187 C 
ENDROOT
BRANCH  21  22
HETATM   22  O1  UNL     1      -9.401   5.050   5.480  1.00  0.00    -0.376 OA
ATOM     23  H1  UNL     1      -8.903   4.364   5.052  1.00  0.00     0.211 HD
ENDBRANCH  21  22
BRANCH  21  24
HETATM   24  C21 UNL     1     -10.917   5.044   7.286  1.00  0.00     0.423 C 
HETATM   25  F1  UNL     1      -9.634   5.023   7.876  1.00  0.00    -0.167 F 
HETATM   26  F2  UNL     1     -11.654   4.143   8.028  1.00  0.00    -0.167 F 
HETATM   27  F3  UNL     1     -11.332   6.353   7.523  1.00  0.00    -0.167 F 
ENDBRANCH  21  24
TORSDOF 2
ENDMDL
MODEL 3
REMARK VINA RESULT: -7.362951240      1.617      2.081
REMARK  2 active torsions:
REMARK  status: ('A' for Active; 'I' for Inactive)
REMARK    1  A    between atoms: C20_21  and  O1_22 
REMARK    2  A    between atoms: C20_21  and  C21_24 
ROOT
HETATM    1  C1  UNL     1     -13.768   1.660   4.713  1.00  0.00     0.013 C 
HETATM    2  C2  UNL     1     -12.720   2.188   4.436  1.00  0.00    -0.108 C 
HETATM    3  C3  UNL     1     -11.420   2.816   4.103  1.00  0.00     0.019 C 
HETATM    4  C4  UNL     1     -10.460   2.386   5.192  1.00  0.00     0.029 C 
HETATM    5  C5  UNL     1     -10.970   2.168   2.807  1.00  0.00     0.022 C 
HETATM    6  C6  UNL     1     -11.961   2.626   1.750  1.00  0.00     0.007 C 
HETATM    7  C7  UNL     1     -11.812   4.100   1.499  1.00  0.00    -0.010 C 
HETATM    8  C8  UNL     1     -13.117   4.790   1.257  1.00  0.00     0.006 C 
HETATM    9  C9  UNL     1     -12.786   6.117   0.597  1.00  0.00     0.014 C 
HETATM   10  C10 UNL     1     -11.618   6.824   1.188  1.00  0.00     0.015 C 
HETATM   11  C11 UNL     1     -11.872   8.298   1.202  1.00  0.00     0.030 C 
HETATM   12  C12 UNL     1     -12.266   8.946   2.449  1.00  0.00     0.025 C 
HETATM   13  C13 UNL     1     -11.698   8.357   3.706  1.00  0.00     0.059 C 
HETATM   14 BR1  UNL     1     -12.503   9.173   5.250  1.00  0.00    -0.091 Br
HETATM   15  C14 UNL     1     -12.096   6.871   3.648  1.00  0.00     0.021 C 
HETATM   16  C15 UNL     1     -11.218   6.292   2.545  1.00  0.00     0.004 C 
HETATM   17  C16 UNL     1     -11.099   4.815   2.598  1.00  0.00    -0.004 C 
HETATM   18  C17 UNL     1     -11.541   4.301   3.974  1.00  0.00     0.027 C 
HETATM   19  C18 UNL     1     -10.460   8.566   0.846  1.00  0.00    -0.041 C 
HETATM   20  C19 UNL     1      -9.617   9.575   0.913  1.00  0.00     0.018 C 
HETATM   21  C20 UNL     1     -10.430   7.131   0.366  1.00  0.00     0.187 C 
ENDROOT
BRANCH  21  22
HETATM   22  O1  UNL     1      -9.213   6.585   0.829  1.00  0.00    -0.376 OA
ATOM     23  H1  UNL     1      -8.465   7.170   0.800  1.00  0.00     0.211 HD
ENDBRANCH  21  22
BRANCH  21  24
HETATM   24  C21 UNL     1     -10.446   7.136  -1.105  1.00  0.00     0.423 C 
HETATM   25  F1  UNL     1     -10.496   5.779  -1.490  1.00  0.00    -0.167 F 
HETATM   26  F2  UNL     1      -9.311   7.629  -1.719  1.00  0.00    -0.167 F 
HETATM   27  F3  UNL     1     -11.601   7.654  -1.686  1.00  0.00    -0.167 F 
ENDBRANCH  21  24
TORSDOF 2
ENDMDL
MODEL 4
REMARK VINA RESULT: -7.193260889      2.917      4.558
REMARK  2 active torsions:
REMARK  status: ('A' for Active; 'I' for Inactive)
REMARK    1  A    between atoms: C20_21  and  O1_22 
REMARK    2  A    between atoms: C20_21  and  C21_24 
ROOT
HETATM    1  C1  UNL     1     -14.034   9.944   6.211  1.00  0.00     0.013 C 
HETATM    2  C2  UNL     1     -12.994   9.584   5.720  1.00  0.00    -0.108 C 
HETATM    3  C3  UNL     1     -11.704   9.142   5.139  1.00  0.00     0.019 C 
HETATM    4  C4  UNL     1     -10.635   9.959   5.835  1.00  0.00     0.029 C 
HETATM    5  C5  UNL     1     -11.534   7.697   5.568  1.00  0.00     0.022 C 
HETATM    6  C6  UNL     1     -12.625   6.921   4.851  1.00  0.00     0.007 C 
HETATM    7  C7  UNL     1     -12.365   6.903   3.370  1.00  0.00    -0.010 C 
HETATM    8  C8  UNL     1     -13.613   7.012   2.552  1.00  0.00     0.006 C 
HETATM    9  C9  UNL     1     -13.254   6.540   1.155  1.00  0.00     0.014 C 
HETATM   10  C10 UNL     1     -11.940   7.031   0.658  1.00  0.00     0.015 C 
HETATM   11  C11 UNL     1     -12.034   7.339  -0.802  1.00  0.00     0.030 C 
HETATM   12  C12 UNL     1     -12.156   8.727  -1.236  1.00  0.00     0.025 C 
HETATM   13  C13 UNL     1     -11.463   9.748  -0.384  1.00  0.00     0.059 C 
HETATM   14 BR1  UNL     1     -11.924  11.524  -0.958  1.00  0.00    -0.091 Br
HETATM   15  C14 UNL     1     -12.017   9.508   1.032  1.00  0.00     0.021 C 
HETATM   16  C15 UNL     1     -11.389   8.187   1.460  1.00  0.00     0.004 C 
HETATM   17  C16 UNL     1     -11.417   7.966   2.926  1.00  0.00    -0.004 C 
HETATM   18  C17 UNL     1     -11.688   9.291   3.652  1.00  0.00     0.027 C 
HETATM   19  C18 UNL     1     -10.675   6.795  -1.026  1.00  0.00    -0.041 C 
HETATM   20  C19 UNL     1      -9.732   6.884  -1.940  1.00  0.00     0.018 C 
HETATM   21  C20 UNL     1     -10.871   6.079   0.293  1.00  0.00     0.187 C 
ENDROOT
BRANCH  21  22
HETATM   22  O1  UNL     1      -9.660   6.224   1.004  1.00  0.00    -0.376 OA
ATOM     23  H1  UNL     1      -9.145   5.432   1.103  1.00  0.00     0.211 HD
ENDBRANCH  21  22
BRANCH  21  24
HETATM   24  C21 UNL     1     -11.117   4.656   0.015  1.00  0.00     0.423 C 
HETATM   25  F1  UNL     1      -9.844   4.083  -0.197  1.00  0.00    -0.167 F 
HETATM   26  F2  UNL     1     -11.818   4.381  -1.142  1.00  0.00    -0.167 F 
HETATM   27  F3  UNL     1     -11.603   3.915   1.090  1.00  0.00    -0.167 F 
ENDBRANCH  21  24
TORSDOF 2
ENDMDL
MODEL 5
REMARK VINA RESULT: -6.887962413      3.887      6.288
REMARK  2 active torsions:
REMARK  status: ('A' for Active; 'I' for Inactive)
REMARK    1  A    between atoms: C20_21  and  O1_22 
REMARK    2  A    between atoms: C20_21  and  C21_24 
ROOT
HETATM    1  C1  UNL     1     -12.652   5.021  -3.284  1.00  0.00     0.013 C 
HETATM    2  C2  UNL     1     -11.817   5.331  -2.473  1.00  0.00    -0.108 C 
HETATM    3  C3  UNL     1     -10.775   5.721  -1.494  1.00  0.00     0.019 C 
HETATM    4  C4  UNL     1      -9.450   5.369  -2.136  1.00  0.00     0.029 C 
HETATM    5  C5  UNL     1     -10.852   7.233  -1.392  1.00  0.00     0.022 C 
HETATM    6  C6  UNL     1     -12.194   7.537  -0.748  1.00  0.00     0.007 C 
HETATM    7  C7  UNL     1     -12.205   7.067   0.680  1.00  0.00    -0.010 C 
HETATM    8  C8  UNL     1     -13.522   6.495   1.101  1.00  0.00     0.006 C 
HETATM    9  C9  UNL     1     -13.522   6.488   2.619  1.00  0.00     0.014 C 
HETATM   10  C10 UNL     1     -12.240   6.050   3.234  1.00  0.00     0.015 C 
HETATM   11  C11 UNL     1     -12.516   5.234   4.456  1.00  0.00     0.030 C 
HETATM   12  C12 UNL     1     -12.407   3.781   4.388  1.00  0.00     0.025 C 
HETATM   13  C13 UNL     1     -11.370   3.240   3.448  1.00  0.00     0.059 C 
HETATM   14 BR1  UNL     1     -11.526   1.329   3.306  1.00  0.00    -0.091 Br
HETATM   15  C14 UNL     1     -11.709   3.882   2.091  1.00  0.00     0.021 C 
HETATM   16  C15 UNL     1     -11.319   5.346   2.263  1.00  0.00     0.004 C 
HETATM   17  C16 UNL     1     -11.140   6.065   0.978  1.00  0.00    -0.004 C 
HETATM   18  C17 UNL     1     -10.986   5.060  -0.170  1.00  0.00     0.027 C 
HETATM   19  C18 UNL     1     -11.368   5.855   5.155  1.00  0.00    -0.041 C 
HETATM   20  C19 UNL     1     -10.601   5.586   6.191  1.00  0.00     0.018 C 
HETATM   21  C20 UNL     1     -11.483   6.955   4.122  1.00  0.00     0.187 C 
ENDROOT
BRANCH  21  22
HETATM   22  O1  UNL     1     -10.165   7.249   3.711  1.00  0.00    -0.376 OA
ATOM     23  H1  UNL     1      -9.944   6.985   2.825  1.00  0.00     0.211 HD
ENDBRANCH  21  22
BRANCH  21  24
HETATM   24  C21 UNL     1     -12.078   8.135   4.768  1.00  0.00     0.423 C 
HETATM   25  F1  UNL     1     -12.047   9.158   3.795  1.00  0.00    -0.167 F 
HETATM   26  F2  UNL     1     -11.378   8.655   5.838  1.00  0.00    -0.167 F 
HETATM   27  F3  UNL     1     -13.438   8.035   5.053  1.00  0.00    -0.167 F 
ENDBRANCH  21  24
TORSDOF 2
ENDMDL
