MODEL 1
REMARK VINA RESULT: -6.232071370      0.000      0.000
REMARK  3 active torsions:
REMARK  status: ('A' for Active; 'I' for Inactive)
REMARK    1  A    between atoms: C12_14  and  O1_15 
REMARK    2  A    between atoms: C12_14  and  C13_17 
REMARK    3  A    between atoms: C17_24  and  C19_26 
ROOT
HETATM    1  C1  UNL     1     -12.988   8.031   4.717  1.00  0.00     0.221 C 
HETATM    2  N1  UNL     1     -12.302   7.972   3.754  1.00  0.00    -0.465 NA
HETATM    3  C2  UNL     1     -11.456   7.924   2.589  1.00  0.00     0.181 C 
HETATM    4  C3  UNL     1     -11.130   6.486   2.472  1.00  0.00     0.099 C 
HETATM    5 BR1  UNL     1     -11.238   5.570   4.195  1.00  0.00    -0.087 Br
HETATM    6  C4  UNL     1     -11.856   5.680   1.509  1.00  0.00     0.011 C 
HETATM    7  C5  UNL     1     -13.262   6.151   1.170  1.00  0.00     0.012 C 
HETATM    8  C6  UNL     1     -12.627   6.767  -0.058  1.00  0.00    -0.000 C 
HETATM    9  C7  UNL     1     -11.482   5.786   0.130  1.00  0.00     0.018 C 
HETATM   10  C8  UNL     1     -10.337   6.469  -0.445  1.00  0.00    -0.018 C 
HETATM   11  C9  UNL     1     -10.166   7.729  -0.702  1.00  0.00    -0.070 C 
HETATM   12  C10 UNL     1      -9.047   8.495  -1.292  1.00  0.00     0.038 C 
HETATM   13  C11 UNL     1      -9.767   9.437  -2.198  1.00  0.00     0.052 C 
HETATM   14  C12 UNL     1     -11.233   9.353  -1.844  1.00  0.00     0.168 C 
HETATM   15  C14 UNL     1     -11.187   8.844  -0.466  1.00  0.00     0.035 C 
HETATM   16  C15 UNL     1     -12.360   8.168   0.169  1.00  0.00     0.015 C 
HETATM   17  C16 UNL     1     -12.044   8.668   1.501  1.00  0.00     0.037 C 
HETATM   18  C17 UNL     1     -11.088   9.625   0.755  1.00  0.00    -0.022 C 
HETATM   19  C18 UNL     1      -9.738   9.754   1.446  1.00  0.00     0.017 C 
ENDROOT
BRANCH  18  20
HETATM   20  C19 UNL     1     -11.712  11.003   0.836  1.00  0.00     0.006 C 
HETATM   21  C20 UNL     1     -10.604  12.083   0.951  1.00  0.00     0.006 C 
ENDBRANCH  18  20
BRANCH  14  22
HETATM   22  O1  UNL     1     -11.684   8.196  -2.604  1.00  0.00    -0.380 OA
ATOM     23  H1  UNL     1     -12.623   8.328  -2.653  1.00  0.00     0.211 HD
ENDBRANCH  14  22
BRANCH  14  24
HETATM   24  C13 UNL     1     -11.929  10.475  -2.390  1.00  0.00     0.419 C 
HETATM   25  F1  UNL     1     -13.327  10.476  -2.221  1.00  0.00    -0.168 F 
HETATM   26  F2  UNL     1     -11.987  10.275  -3.831  1.00  0.00    -0.168 F 
HETATM   27  F3  UNL     1     -11.387  11.724  -2.398  1.00  0.00    -0.168 F 
ENDBRANCH  14  24
TORSDOF 3
ENDMDL
MODEL 2
REMARK VINA RESULT: -6.191372069      3.969      5.484
REMARK  3 active torsions:
REMARK  status: ('A' for Active; 'I' for Inactive)
REMARK    1  A    between atoms: C12_14  and  O1_15 
REMARK    2  A    between atoms: C12_14  and  C13_17 
REMARK    3  A    between atoms: C17_24  and  C19_26 
ROOT
HETATM    1  C1  UNL     1      -8.417   9.337  -2.023  1.00  0.00     0.221 C 
HETATM    2  N1  UNL     1      -9.371   8.852  -1.516  1.00  0.00    -0.465 NA
HETATM    3  C2  UNL     1     -10.538   8.289  -0.888  1.00  0.00     0.181 C 
HETATM    4  C3  UNL     1     -11.004   7.296  -1.880  1.00  0.00     0.099 C 
HETATM    5 BR1  UNL     1     -10.443   7.757  -3.694  1.00  0.00    -0.087 Br
HETATM    6  C4  UNL     1     -10.685   5.897  -1.672  1.00  0.00     0.011 C 
HETATM    7  C5  UNL     1      -9.419   5.612  -0.877  1.00  0.00     0.012 C 
HETATM    8  C6  UNL     1     -10.350   5.413   0.299  1.00  0.00    -0.000 C 
HETATM    9  C7  UNL     1     -11.459   5.168  -0.711  1.00  0.00     0.018 C 
HETATM   10  C8  UNL     1     -12.664   5.588  -0.018  1.00  0.00    -0.018 C 
HETATM   11  C9  UNL     1     -12.799   6.349   1.024  1.00  0.00    -0.070 C 
HETATM   12  C10 UNL     1     -13.977   6.808   1.790  1.00  0.00     0.038 C 
HETATM   13  C11 UNL     1     -13.498   6.672   3.197  1.00  0.00     0.052 C 
HETATM   14  C12 UNL     1     -12.007   6.438   3.132  1.00  0.00     0.168 C 
HETATM   15  C14 UNL     1     -11.666   7.000   1.818  1.00  0.00     0.035 C 
HETATM   16  C15 UNL     1     -10.415   6.617   1.093  1.00  0.00     0.015 C 
HETATM   17  C16 UNL     1     -10.257   7.931   0.482  1.00  0.00     0.037 C 
HETATM   18  C17 UNL     1     -11.313   8.377   1.517  1.00  0.00    -0.022 C 
HETATM   19  C18 UNL     1     -12.365   9.298   0.915  1.00  0.00     0.017 C 
ENDROOT
BRANCH  18  20
HETATM   20  C19 UNL     1     -10.581   9.221   2.540  1.00  0.00     0.006 C 
HETATM   21  C20 UNL     1     -11.444  10.449   2.933  1.00  0.00     0.006 C 
ENDBRANCH  18  20
BRANCH  14  22
HETATM   22  O1  UNL     1     -11.915   5.002   2.907  1.00  0.00    -0.380 OA
ATOM     23  H1  UNL     1     -12.345   4.892   2.067  1.00  0.00     0.211 HD
ENDBRANCH  14  22
BRANCH  14  24
HETATM   24  C13 UNL     1     -11.424   6.671   4.416  1.00  0.00     0.419 C 
HETATM   25  F1  UNL     1     -10.201   6.018   4.665  1.00  0.00    -0.168 F 
HETATM   26  F2  UNL     1     -12.177   5.873   5.372  1.00  0.00    -0.168 F 
HETATM   27  F3  UNL     1     -11.532   7.871   5.048  1.00  0.00    -0.168 F 
ENDBRANCH  14  24
TORSDOF 3
ENDMDL
MODEL 3
REMARK VINA RESULT: -6.151568398      4.493      6.339
REMARK  3 active torsions:
REMARK  status: ('A' for Active; 'I' for Inactive)
REMARK    1  A    between atoms: C12_14  and  O1_15 
REMARK    2  A    between atoms: C12_14  and  C13_17 
REMARK    3  A    between atoms: C17_24  and  C19_26 
ROOT
HETATM    1  C1  UNL     1      -8.613   9.168  -1.171  1.00  0.00     0.221 C 
HETATM    2  N1  UNL     1      -9.475   8.376  -1.344  1.00  0.00    -0.465 NA
HETATM    3  C2  UNL     1     -10.538   7.422  -1.532  1.00  0.00     0.181 C 
HETATM    4  C3  UNL     1     -10.620   7.299  -3.003  1.00  0.00     0.099 C 
HETATM    5 BR1  UNL     1      -9.966   8.903  -3.908  1.00  0.00    -0.087 Br
HETATM    6  C4  UNL     1      -9.996   6.157  -3.645  1.00  0.00     0.011 C 
HETATM    7  C5  UNL     1      -8.809   5.548  -2.915  1.00  0.00     0.012 C 
HETATM    8  C6  UNL     1      -9.803   4.524  -2.410  1.00  0.00    -0.000 C 
HETATM    9  C7  UNL     1     -10.683   4.901  -3.591  1.00  0.00     0.018 C 
HETATM   10  C8  UNL     1     -12.030   4.628  -3.125  1.00  0.00    -0.018 C 
HETATM   11  C9  UNL     1     -12.477   4.485  -1.915  1.00  0.00    -0.070 C 
HETATM   12  C10 UNL     1     -13.818   4.197  -1.364  1.00  0.00     0.038 C 
HETATM   13  C11 UNL     1     -13.500   3.210  -0.290  1.00  0.00     0.052 C 
HETATM   14  C12 UNL     1     -12.001   3.231  -0.104  1.00  0.00     0.168 C 
HETATM   15  C14 UNL     1     -11.646   4.555  -0.633  1.00  0.00     0.035 C 
HETATM   16  C15 UNL     1     -10.258   4.881  -1.088  1.00  0.00     0.015 C 
HETATM   17  C16 UNL     1     -10.352   6.275  -0.675  1.00  0.00     0.037 C 
HETATM   18  C17 UNL     1     -11.605   5.810   0.097  1.00  0.00    -0.022 C 
HETATM   19  C18 UNL     1     -12.767   6.785  -0.037  1.00  0.00     0.017 C 
ENDROOT
BRANCH  18  20
HETATM   20  C19 UNL     1     -11.236   5.830   1.566  1.00  0.00     0.006 C 
HETATM   21  C20 UNL     1     -12.475   6.204   2.422  1.00  0.00     0.006 C 
ENDBRANCH  18  20
BRANCH  14  22
HETATM   22  O1  UNL     1     -11.533   2.327  -1.146  1.00  0.00    -0.380 OA
ATOM     23  H1  UNL     1     -10.859   1.826  -0.703  1.00  0.00     0.211 HD
ENDBRANCH  14  22
BRANCH  14  24
HETATM   24  C13 UNL     1     -11.658   2.610   1.136  1.00  0.00     0.419 C 
HETATM   25  F1  UNL     1     -10.283   2.395   1.358  1.00  0.00    -0.168 F 
HETATM   26  F2  UNL     1     -11.974   1.195   1.001  1.00  0.00    -0.168 F 
HETATM   27  F3  UNL     1     -12.357   2.849   2.278  1.00  0.00    -0.168 F 
ENDBRANCH  14  24
TORSDOF 3
ENDMDL
MODEL 4
REMARK VINA RESULT: -6.109124915      3.542      4.944
REMARK  3 active torsions:
REMARK  status: ('A' for Active; 'I' for Inactive)
REMARK    1  A    between atoms: C12_14  and  O1_15 
REMARK    2  A    between atoms: C12_14  and  C13_17 
REMARK    3  A    between atoms: C17_24  and  C19_26 
ROOT
HETATM    1  C1  UNL     1     -12.868   6.761   5.171  1.00  0.00     0.221 C 
HETATM    2  N1  UNL     1     -12.261   6.178   4.338  1.00  0.00    -0.465 NA
HETATM    3  C2  UNL     1     -11.520   5.493   3.311  1.00  0.00     0.181 C 
HETATM    4  C3  UNL     1     -10.755   4.480   4.070  1.00  0.00     0.099 C 
HETATM    5 BR1  UNL     1     -10.453   5.029   5.921  1.00  0.00    -0.087 Br
HETATM    6  C4  UNL     1     -11.241   3.114   4.098  1.00  0.00     0.011 C 
HETATM    7  C5  UNL     1     -12.742   2.935   3.930  1.00  0.00     0.012 C 
HETATM    8  C6  UNL     1     -12.419   2.625   2.485  1.00  0.00    -0.000 C 
HETATM    9  C7  UNL     1     -11.008   2.296   2.945  1.00  0.00     0.018 C 
HETATM   10  C8  UNL     1     -10.184   2.584   1.785  1.00  0.00    -0.018 C 
HETATM   11  C9  UNL     1     -10.446   3.307   0.741  1.00  0.00    -0.070 C 
HETATM   12  C10 UNL     1      -9.674   3.637  -0.476  1.00  0.00     0.038 C 
HETATM   13  C11 UNL     1     -10.715   3.519  -1.539  1.00  0.00     0.052 C 
HETATM   14  C12 UNL     1     -12.050   3.430  -0.837  1.00  0.00     0.168 C 
HETATM   15  C14 UNL     1     -11.755   4.048   0.463  1.00  0.00     0.035 C 
HETATM   16  C15 UNL     1     -12.604   3.801   1.669  1.00  0.00     0.015 C 
HETATM   17  C16 UNL     1     -12.384   5.136   2.210  1.00  0.00     0.037 C 
HETATM   18  C17 UNL     1     -11.838   5.458   0.803  1.00  0.00    -0.022 C 
HETATM   19  C18 UNL     1     -10.561   6.287   0.849  1.00  0.00     0.017 C 
ENDROOT
BRANCH  18  20
HETATM   20  C19 UNL     1     -12.867   6.348   0.136  1.00  0.00     0.006 C 
HETATM   21  C20 UNL     1     -12.171   7.320  -0.852  1.00  0.00     0.006 C 
ENDBRANCH  18  20
BRANCH  14  22
HETATM   22  O1  UNL     1     -12.149   2.014  -0.510  1.00  0.00    -0.380 OA
ATOM     23  H1  UNL     1     -13.035   1.936  -0.178  1.00  0.00     0.211 HD
ENDBRANCH  14  22
BRANCH  14  24
HETATM   24  C13 UNL     1     -13.103   3.692  -1.767  1.00  0.00     0.419 C 
HETATM   25  F1  UNL     1     -14.414   3.550  -1.268  1.00  0.00    -0.168 F 
HETATM   26  F2  UNL     1     -13.189   2.534  -2.645  1.00  0.00    -0.168 F 
HETATM   27  F3  UNL     1     -12.993   4.647  -2.729  1.00  0.00    -0.168 F 
ENDBRANCH  14  24
TORSDOF 3
ENDMDL
MODEL 5
REMARK VINA RESULT: -6.082384925      3.320      4.904
REMARK  3 active torsions:
REMARK  status: ('A' for Active; 'I' for Inactive)
REMARK    1  A    between atoms: C12_14  and  O1_15 
REMARK    2  A    between atoms: C12_14  and  C13_17 
REMARK    3  A    between atoms: C17_24  and  C19_26 
ROOT
HETATM    1  C1  UNL     1     -10.987  10.193   4.004  1.00  0.00     0.221 C 
HETATM    2  N1  UNL     1     -11.334   9.656   3.008  1.00  0.00    -0.465 NA
HETATM    3  C2  UNL     1     -11.775   8.987   1.811  1.00  0.00     0.181 C 
HETATM    4  C3  UNL     1     -11.790  10.073   0.808  1.00  0.00     0.099 C 
HETATM    5 BR1  UNL     1     -12.036  11.827   1.633  1.00  0.00    -0.087 Br
HETATM    6  C4  UNL     1     -10.680  10.184  -0.119  1.00  0.00     0.011 C 
HETATM    7  C5  UNL     1      -9.344   9.648   0.372  1.00  0.00     0.012 C 
HETATM    8  C6  UNL     1      -9.685   8.410  -0.429  1.00  0.00    -0.000 C 
HETATM    9  C7  UNL     1     -10.641   9.279  -1.229  1.00  0.00     0.018 C 
HETATM   10  C8  UNL     1     -11.666   8.353  -1.675  1.00  0.00    -0.018 C 
HETATM   11  C9  UNL     1     -11.974   7.176  -1.224  1.00  0.00    -0.070 C 
HETATM   12  C10 UNL     1     -12.986   6.176  -1.627  1.00  0.00     0.038 C 
HETATM   13  C11 UNL     1     -12.210   4.904  -1.536  1.00  0.00     0.052 C 
HETATM   14  C12 UNL     1     -10.924   5.226  -0.811  1.00  0.00     0.168 C 
HETATM   15  C14 UNL     1     -11.285   6.444  -0.072  1.00  0.00     0.035 C 
HETATM   16  C15 UNL     1     -10.252   7.400   0.433  1.00  0.00     0.015 C 
HETATM   17  C16 UNL     1     -11.033   7.765   1.608  1.00  0.00     0.037 C 
HETATM   18  C17 UNL     1     -11.879   6.523   1.252  1.00  0.00    -0.022 C 
HETATM   19  C18 UNL     1     -13.373   6.781   1.381  1.00  0.00     0.017 C 
ENDROOT
BRANCH  18  20
HETATM   20  C19 UNL     1     -11.562   5.474   2.297  1.00  0.00     0.006 C 
HETATM   21  C20 UNL     1     -12.407   5.723   3.574  1.00  0.00     0.006 C 
ENDBRANCH  18  20
BRANCH  14  22
HETATM   22  O1  UNL     1     -10.070   5.732  -1.877  1.00  0.00    -0.380 OA
ATOM     23  H1  UNL     1     -10.583   6.445  -2.238  1.00  0.00     0.211 HD
ENDBRANCH  14  22
BRANCH  14  24
HETATM   24  C13 UNL     1     -10.309   4.019  -0.357  1.00  0.00     0.419 C 
HETATM   25  F1  UNL     1      -9.053   4.163   0.265  1.00  0.00    -0.168 F 
HETATM   26  F2  UNL     1      -9.778   3.347  -1.534  1.00  0.00    -0.168 F 
HETATM   27  F3  UNL     1     -11.038   2.981   0.136  1.00  0.00    -0.168 F 
ENDBRANCH  14  24
TORSDOF 3
ENDMDL
