MODEL 1
REMARK VINA RESULT: -6.149810853      0.000      0.000
REMARK  1 active torsions:
REMARK  status: ('A' for Active; 'I' for Inactive)
REMARK    1  A    between atoms: C7_9  and  O1_10 
ROOT
HETATM    1  C1  UNL     1     -12.832   2.552  -3.907  1.00  0.00     0.015 C 
HETATM    2  C2  UNL     1     -11.981   2.952  -3.152  1.00  0.00    -0.072 C 
HETATM    3  C3  UNL     1     -10.944   3.465  -2.226  1.00  0.00     0.178 C 
HETATM    4  F1  UNL     1      -9.816   2.658  -2.411  1.00  0.00    -0.228 F 
HETATM    5  C4  UNL     1     -10.599   4.836  -2.644  1.00  0.00     0.060 C 
HETATM    6  C5  UNL     1      -9.876   5.660  -1.612  1.00  0.00     0.028 C 
HETATM    7  C6  UNL     1     -10.791   5.648  -0.368  1.00  0.00     0.051 C 
HETATM    8 BR1  UNL     1     -12.512   6.175  -1.070  1.00  0.00    -0.082 Br
HETATM    9  C7  UNL     1     -10.221   6.596   0.603  1.00  0.00     0.156 C 
HETATM   10  C8  UNL     1     -11.127   7.167   1.627  1.00  0.00     0.116 C 
HETATM   11 CL1  UNL     1     -12.403   8.212   0.909  1.00  0.00    -0.122 Cl
HETATM   12  C9  UNL     1     -11.687   6.224   2.623  1.00  0.00     0.003 C 
HETATM   13  C10 UNL     1     -12.887   6.913   3.285  1.00  0.00     0.011 C 
HETATM   14  C11 UNL     1     -12.191   4.917   2.081  1.00  0.00     0.010 C 
HETATM   15  C12 UNL     1     -11.100   4.043   1.541  1.00  0.00    -0.011 C 
HETATM   16  C13 UNL     1     -11.406   2.598   1.844  1.00  0.00     0.010 C 
HETATM   17  C14 UNL     1     -10.756   4.222   0.114  1.00  0.00     0.030 C 
HETATM   18  C15 UNL     1     -11.463   3.294  -0.842  1.00  0.00     0.116 C 
HETATM   19 BR2  UNL     1     -13.362   3.383  -0.790  1.00  0.00    -0.086 Br
ENDROOT
BRANCH   9  20
HETATM   20  O1  UNL     1      -9.669   7.680  -0.119  1.00  0.00    -0.392 OA
ATOM     21  H1  UNL     1     -10.296   7.936  -0.785  1.00  0.00     0.210 HD
ENDBRANCH   9  20
TORSDOF 1
ENDMDL
MODEL 2
REMARK VINA RESULT: -6.041255456      2.880      3.955
REMARK  1 active torsions:
REMARK  status: ('A' for Active; 'I' for Inactive)
REMARK    1  A    between atoms: C7_9  and  O1_10 
ROOT
HETATM    1  C1  UNL     1      -9.777   6.722  -3.246  1.00  0.00     0.015 C 
HETATM    2  C2  UNL     1     -10.677   6.113  -2.720  1.00  0.00    -0.072 C 
HETATM    3  C3  UNL     1     -11.766   5.349  -2.068  1.00  0.00     0.178 C 
HETATM    4  F1  UNL     1     -12.922   5.591  -2.819  1.00  0.00    -0.228 F 
HETATM    5  C4  UNL     1     -11.443   3.914  -2.177  1.00  0.00     0.060 C 
HETATM    6  C5  UNL     1     -12.205   3.012  -1.242  1.00  0.00     0.028 C 
HETATM    7  C6  UNL     1     -11.924   3.562   0.173  1.00  0.00     0.051 C 
HETATM    8 BR1  UNL     1      -9.997   3.697   0.230  1.00  0.00    -0.082 Br
HETATM    9  C7  UNL     1     -12.489   2.602   1.135  1.00  0.00     0.156 C 
HETATM   10  C8  UNL     1     -11.937   2.593   2.510  1.00  0.00     0.116 C 
HETATM   11 CL1  UNL     1     -10.215   2.076   2.555  1.00  0.00    -0.122 Cl
HETATM   12  C9  UNL     1     -12.167   3.806   3.329  1.00  0.00     0.003 C 
HETATM   13  C10 UNL     1     -11.180   3.763   4.502  1.00  0.00     0.011 C 
HETATM   14  C11 UNL     1     -11.949   5.120   2.635  1.00  0.00     0.010 C 
HETATM   15  C12 UNL     1     -12.952   5.391   1.557  1.00  0.00    -0.011 C 
HETATM   16  C13 UNL     1     -13.286   6.861   1.527  1.00  0.00     0.010 C 
HETATM   17  C14 UNL     1     -12.616   4.899   0.203  1.00  0.00     0.030 C 
HETATM   18  C15 UNL     1     -11.932   5.900  -0.697  1.00  0.00     0.116 C 
HETATM   19 BR2  UNL     1     -10.300   6.602  -0.021  1.00  0.00    -0.086 Br
ENDROOT
BRANCH   9  20
HETATM   20  O1  UNL     1     -12.317   1.302   0.606  1.00  0.00    -0.392 OA
ATOM     21  H1  UNL     1     -11.398   1.196   0.388  1.00  0.00     0.210 HD
ENDBRANCH   9  20
TORSDOF 1
ENDMDL
MODEL 3
REMARK VINA RESULT: -5.982596198      2.726      5.009
REMARK  1 active torsions:
REMARK  status: ('A' for Active; 'I' for Inactive)
REMARK    1  A    between atoms: C7_9  and  O1_10 
ROOT
HETATM    1  C1  UNL     1     -11.932   5.213   3.774  1.00  0.00     0.015 C 
HETATM    2  C2  UNL     1     -12.270   5.506   2.653  1.00  0.00    -0.072 C 
HETATM    3  C3  UNL     1     -12.662   5.868   1.271  1.00  0.00     0.178 C 
HETATM    4  F1  UNL     1     -13.900   6.513   1.367  1.00  0.00    -0.228 F 
HETATM    5  C4  UNL     1     -11.679   6.842   0.760  1.00  0.00     0.060 C 
HETATM    6  C5  UNL     1     -11.670   7.022  -0.735  1.00  0.00     0.028 C 
HETATM    7  C6  UNL     1     -11.438   5.610  -1.314  1.00  0.00     0.051 C 
HETATM    8 BR1  UNL     1      -9.885   4.978  -0.353  1.00  0.00    -0.082 Br
HETATM    9  C7  UNL     1     -11.231   5.759  -2.763  1.00  0.00     0.156 C 
HETATM   10  C8  UNL     1     -10.494   4.686  -3.472  1.00  0.00     0.116 C 
HETATM   11 CL1  UNL     1      -8.780   4.563  -2.939  1.00  0.00    -0.122 Cl
HETATM   12  C9  UNL     1     -11.146   3.358  -3.533  1.00  0.00     0.003 C 
HETATM   13  C10 UNL     1     -10.068   2.333  -3.906  1.00  0.00     0.011 C 
HETATM   14  C11 UNL     1     -11.772   2.873  -2.257  1.00  0.00     0.010 C 
HETATM   15  C12 UNL     1     -12.962   3.681  -1.839  1.00  0.00    -0.011 C 
HETATM   16  C13 UNL     1     -14.000   2.780  -1.219  1.00  0.00     0.010 C 
HETATM   17  C14 UNL     1     -12.696   4.852  -0.976  1.00  0.00     0.030 C 
HETATM   18  C15 UNL     1     -12.813   4.601   0.507  1.00  0.00     0.116 C 
HETATM   19 BR2  UNL     1     -11.675   3.236   1.182  1.00  0.00    -0.086 Br
ENDROOT
BRANCH   9  20
HETATM   20  O1  UNL     1     -10.525   6.966  -2.979  1.00  0.00    -0.392 OA
ATOM     21  H1  UNL     1     -10.603   7.494  -2.193  1.00  0.00     0.210 HD
ENDBRANCH   9  20
TORSDOF 1
ENDMDL
MODEL 4
REMARK VINA RESULT: -5.964042404      2.627      4.334
REMARK  1 active torsions:
REMARK  status: ('A' for Active; 'I' for Inactive)
REMARK    1  A    between atoms: C7_9  and  O1_10 
ROOT
HETATM    1  C1  UNL     1     -11.299   2.412   1.363  1.00  0.00     0.015 C 
HETATM    2  C2  UNL     1     -11.830   3.328   0.784  1.00  0.00    -0.072 C 
HETATM    3  C3  UNL     1     -12.470   4.469   0.089  1.00  0.00     0.178 C 
HETATM    4  F1  UNL     1     -13.678   3.987  -0.429  1.00  0.00    -0.228 F 
HETATM    5  C4  UNL     1     -12.784   5.498   1.097  1.00  0.00     0.060 C 
HETATM    6  C5  UNL     1     -13.064   6.871   0.547  1.00  0.00     0.028 C 
HETATM    7  C6  UNL     1     -11.816   7.239  -0.284  1.00  0.00     0.051 C 
HETATM    8 BR1  UNL     1     -10.351   6.905   0.931  1.00  0.00    -0.082 Br
HETATM    9  C7  UNL     1     -11.956   8.648  -0.685  1.00  0.00     0.156 C 
HETATM   10  C8  UNL     1     -10.725   9.398  -1.025  1.00  0.00     0.116 C 
HETATM   11 CL1  UNL     1      -9.632   9.601   0.389  1.00  0.00    -0.122 Cl
HETATM   12  C9  UNL     1      -9.986   8.954  -2.230  1.00  0.00     0.003 C 
HETATM   13  C10 UNL     1      -8.576   9.552  -2.150  1.00  0.00     0.011 C 
HETATM   14  C11 UNL     1      -9.812   7.471  -2.387  1.00  0.00     0.010 C 
HETATM   15  C12 UNL     1     -11.100   6.750  -2.643  1.00  0.00    -0.011 C 
HETATM   16  C13 UNL     1     -10.866   5.613  -3.605  1.00  0.00     0.010 C 
HETATM   17  C14 UNL     1     -11.848   6.290  -1.453  1.00  0.00     0.030 C 
HETATM   18  C15 UNL     1     -11.570   4.870  -1.025  1.00  0.00     0.116 C 
HETATM   19 BR2  UNL     1      -9.750   4.494  -0.625  1.00  0.00    -0.086 Br
ENDROOT
BRANCH   9  20
HETATM   20  O1  UNL     1     -12.590   9.341   0.374  1.00  0.00    -0.392 OA
ATOM     21  H1  UNL     1     -13.529   9.244   0.264  1.00  0.00     0.210 HD
ENDBRANCH   9  20
TORSDOF 1
ENDMDL
MODEL 5
REMARK VINA RESULT: -5.803234392      2.974      5.106
REMARK  1 active torsions:
REMARK  status: ('A' for Active; 'I' for Inactive)
REMARK    1  A    between atoms: C7_9  and  O1_10 
ROOT
HETATM    1  C1  UNL     1     -11.907   5.280   4.170  1.00  0.00     0.015 C 
HETATM    2  C2  UNL     1     -12.375   5.856   3.219  1.00  0.00    -0.072 C 
HETATM    3  C3  UNL     1     -12.929   6.574   2.048  1.00  0.00     0.178 C 
HETATM    4  F1  UNL     1     -14.293   6.751   2.302  1.00  0.00    -0.228 F 
HETATM    5  C4  UNL     1     -12.298   7.906   1.991  1.00  0.00     0.060 C 
HETATM    6  C5  UNL     1     -12.424   8.621   0.672  1.00  0.00     0.028 C 
HETATM    7  C6  UNL     1     -11.825   7.654  -0.372  1.00  0.00     0.051 C 
HETATM    8 BR1  UNL     1     -10.106   7.189   0.377  1.00  0.00    -0.082 Br
HETATM    9  C7  UNL     1     -11.748   8.382  -1.650  1.00  0.00     0.156 C 
HETATM   10  C8  UNL     1     -10.773   7.909  -2.659  1.00  0.00     0.116 C 
HETATM   11 CL1  UNL     1      -9.070   8.097  -2.110  1.00  0.00    -0.122 Cl
HETATM   12  C9  UNL     1     -11.015   6.570  -3.244  1.00  0.00     0.003 C 
HETATM   13  C10 UNL     1      -9.708   6.114  -3.906  1.00  0.00     0.011 C 
HETATM   14  C11 UNL     1     -11.404   5.489  -2.277  1.00  0.00     0.010 C 
HETATM   15  C12 UNL     1     -12.752   5.706  -1.662  1.00  0.00    -0.011 C 
HETATM   16  C13 UNL     1     -13.449   4.381  -1.480  1.00  0.00     0.010 C 
HETATM   17  C14 UNL     1     -12.789   6.498  -0.414  1.00  0.00     0.030 C 
HETATM   18  C15 UNL     1     -12.748   5.694   0.863  1.00  0.00     0.116 C 
HETATM   19 BR2  UNL     1     -11.229   4.566   1.052  1.00  0.00    -0.086 Br
ENDROOT
BRANCH   9  20
HETATM   20  O1  UNL     1     -11.434   9.731  -1.363  1.00  0.00    -0.392 OA
ATOM     21  H1  UNL     1     -10.509   9.858  -1.536  1.00  0.00     0.210 HD
ENDBRANCH   9  20
TORSDOF 1
ENDMDL
