MODEL 1
REMARK VINA RESULT: -6.711918191      0.000      0.000
REMARK  5 active torsions:
REMARK  status: ('A' for Active; 'I' for Inactive)
REMARK    1  A    between atoms: C2_2  and  C4_5 
REMARK    2  A    between atoms: C5_6  and  C6_7 
REMARK    3  A    between atoms: C7_9  and  C8_10 
REMARK    4  A    between atoms: C9_11  and  C10_12 
REMARK    5  A    between atoms: C10_12  and  C11_15 
ROOT
HETATM    1  C6  UNL     1     -11.969   5.193   1.772  1.00  0.00     0.189 A 
HETATM    2  F1  UNL     1     -12.835   6.226   2.000  1.00  0.00    -0.227 F 
HETATM    3  C7  UNL     1     -10.752   5.479   1.024  1.00  0.00     0.130 A 
HETATM    4  C12 UNL     1     -11.800   4.696   0.327  1.00  0.00     0.020 A 
HETATM    5  C13 UNL     1     -12.741   5.338  -0.647  1.00  0.00     0.021 C 
HETATM    6  C14 UNL     1     -11.567   3.214   0.128  1.00  0.00     0.021 C 
ENDROOT
BRANCH   3   7
HETATM    7  C8  UNL     1     -10.549   6.838   0.467  1.00  0.00    -0.093 C 
HETATM    8  C9  UNL     1     -10.375   7.949   0.031  1.00  0.00    -0.061 C 
BRANCH   8   9
HETATM    9  C10 UNL     1     -10.155   9.300  -0.473  1.00  0.00     0.225 C 
HETATM   10 BR1  UNL     1      -9.123   9.148  -2.122  1.00  0.00    -0.046 Br
HETATM   11 BR2  UNL     1     -11.911  10.026  -0.917  1.00  0.00    -0.046 Br
BRANCH   9  12
HETATM   12  C11 UNL     1      -9.461  10.158   0.504  1.00  0.00     0.217 C 
HETATM   13  O1  UNL     1     -10.113  10.807   1.353  1.00  0.00    -0.645 OA
HETATM   14  O2  UNL     1      -8.084  10.270   0.512  1.00  0.00    -0.645 OA
ENDBRANCH   9  12
ENDBRANCH   8   9
ENDBRANCH   3   7
BRANCH   1  15
HETATM   15  C5  UNL     1     -11.888   4.115   2.786  1.00  0.00    -0.058 C 
HETATM   16  C4  UNL     1     -11.842   3.238   3.614  1.00  0.00    -0.077 C 
BRANCH  16  17
HETATM   17  C2  UNL     1     -11.813   2.164   4.621  1.00  0.00     0.093 C 
HETATM   18  C1  UNL     1     -13.222   1.634   4.728  1.00  0.00     0.046 C 
HETATM   19  C3  UNL     1     -10.822   1.098   4.290  1.00  0.00     0.046 C 
HETATM   20 CL1  UNL     1     -11.389   2.825   6.234  1.00  0.00    -0.106 Cl
ENDBRANCH  16  17
ENDBRANCH   1  15
TORSDOF 5
ENDMDL
MODEL 2
REMARK VINA RESULT: -6.618039119      1.016      1.274
REMARK  5 active torsions:
REMARK  status: ('A' for Active; 'I' for Inactive)
REMARK    1  A    between atoms: C2_2  and  C4_5 
REMARK    2  A    between atoms: C5_6  and  C6_7 
REMARK    3  A    between atoms: C7_9  and  C8_10 
REMARK    4  A    between atoms: C9_11  and  C10_12 
REMARK    5  A    between atoms: C10_12  and  C11_15 
ROOT
HETATM    1  C6  UNL     1     -11.992   5.190   1.725  1.00  0.00     0.189 A 
HETATM    2  F1  UNL     1     -12.877   6.216   1.907  1.00  0.00    -0.227 F 
HETATM    3  C7  UNL     1     -10.766   5.472   0.989  1.00  0.00     0.130 A 
HETATM    4  C12 UNL     1     -11.791   4.652   0.299  1.00  0.00     0.020 A 
HETATM    5  C13 UNL     1     -12.724   5.250  -0.710  1.00  0.00     0.021 C 
HETATM    6  C14 UNL     1     -11.533   3.168   0.150  1.00  0.00     0.021 C 
ENDROOT
BRANCH   3   7
HETATM    7  C8  UNL     1     -10.573   6.815   0.395  1.00  0.00    -0.093 C 
HETATM    8  C9  UNL     1     -10.397   7.910  -0.080  1.00  0.00    -0.061 C 
BRANCH   8   9
HETATM    9  C10 UNL     1     -10.163   9.236  -0.641  1.00  0.00     0.225 C 
HETATM   10 BR1  UNL     1     -11.406   9.471  -2.126  1.00  0.00    -0.046 Br
HETATM   11 BR2  UNL     1     -10.624  10.523   0.751  1.00  0.00    -0.046 Br
BRANCH   9  12
HETATM   12  C11 UNL     1      -8.770   9.418  -1.088  1.00  0.00     0.217 C 
HETATM   13  O1  UNL     1      -7.845   9.525  -0.251  1.00  0.00    -0.645 OA
HETATM   14  O2  UNL     1      -8.447   9.477  -2.430  1.00  0.00    -0.645 OA
ENDBRANCH   9  12
ENDBRANCH   8   9
ENDBRANCH   3   7
BRANCH   1  15
HETATM   15  C5  UNL     1     -11.913   4.144   2.773  1.00  0.00    -0.058 C 
HETATM   16  C4  UNL     1     -11.860   3.281   3.615  1.00  0.00    -0.077 C 
BRANCH  16  17
HETATM   17  C2  UNL     1     -11.806   2.211   4.625  1.00  0.00     0.093 C 
HETATM   18  C1  UNL     1     -13.212   1.677   4.762  1.00  0.00     0.046 C 
HETATM   19  C3  UNL     1     -10.819   1.147   4.277  1.00  0.00     0.046 C 
HETATM   20 CL1  UNL     1     -11.351   2.878   6.226  1.00  0.00    -0.106 Cl
ENDBRANCH  16  17
ENDBRANCH   1  15
TORSDOF 5
ENDMDL
MODEL 3
REMARK VINA RESULT: -6.499906853      4.005      4.849
REMARK  5 active torsions:
REMARK  status: ('A' for Active; 'I' for Inactive)
REMARK    1  A    between atoms: C2_2  and  C4_5 
REMARK    2  A    between atoms: C5_6  and  C6_7 
REMARK    3  A    between atoms: C7_9  and  C8_10 
REMARK    4  A    between atoms: C9_11  and  C10_12 
REMARK    5  A    between atoms: C10_12  and  C11_15 
ROOT
HETATM    1  C6  UNL     1     -11.205   6.109   3.497  1.00  0.00     0.189 A 
HETATM    2  F1  UNL     1     -10.169   6.440   2.668  1.00  0.00    -0.227 F 
HETATM    3  C7  UNL     1     -12.326   5.377   2.923  1.00  0.00     0.130 A 
HETATM    4  C12 UNL     1     -12.560   6.798   3.272  1.00  0.00     0.020 A 
HETATM    5  C13 UNL     1     -12.525   7.877   2.232  1.00  0.00     0.021 C 
HETATM    6  C14 UNL     1     -13.393   7.102   4.498  1.00  0.00     0.021 C 
ENDROOT
BRANCH   3   7
HETATM    7  C8  UNL     1     -12.343   5.107   1.465  1.00  0.00    -0.093 C 
HETATM    8  C9  UNL     1     -12.337   4.882   0.280  1.00  0.00    -0.061 C 
BRANCH   8   9
HETATM    9  C10 UNL     1     -12.304   4.606  -1.152  1.00  0.00     0.225 C 
HETATM   10 BR1  UNL     1     -10.435   4.365  -1.658  1.00  0.00    -0.046 Br
HETATM   11 BR2  UNL     1     -13.233   2.911  -1.418  1.00  0.00    -0.046 Br
BRANCH   9  12
HETATM   12  C11 UNL     1     -12.928   5.680  -1.945  1.00  0.00     0.217 C 
HETATM   13  O1  UNL     1     -13.689   5.403  -2.899  1.00  0.00    -0.645 OA
HETATM   14  O2  UNL     1     -12.694   7.012  -1.661  1.00  0.00    -0.645 OA
ENDBRANCH   9  12
ENDBRANCH   8   9
ENDBRANCH   3   7
BRANCH   1  15
HETATM   15  C5  UNL     1     -10.900   5.845   4.923  1.00  0.00    -0.058 C 
HETATM   16  C4  UNL     1     -10.655   5.651   6.089  1.00  0.00    -0.077 C 
BRANCH  16  17
HETATM   17  C2  UNL     1     -10.366   5.436   7.517  1.00  0.00     0.093 C 
HETATM   18  C1  UNL     1     -10.870   6.658   8.246  1.00  0.00     0.046 C 
HETATM   19  C3  UNL     1     -10.963   4.171   8.037  1.00  0.00     0.046 C 
HETATM   20 CL1  UNL     1      -8.596   5.364   7.798  1.00  0.00    -0.106 Cl
ENDBRANCH  16  17
ENDBRANCH   1  15
TORSDOF 5
ENDMDL
MODEL 4
REMARK VINA RESULT: -6.448447106      5.383      7.637
REMARK  5 active torsions:
REMARK  status: ('A' for Active; 'I' for Inactive)
REMARK    1  A    between atoms: C2_2  and  C4_5 
REMARK    2  A    between atoms: C5_6  and  C6_7 
REMARK    3  A    between atoms: C7_9  and  C8_10 
REMARK    4  A    between atoms: C9_11  and  C10_12 
REMARK    5  A    between atoms: C10_12  and  C11_15 
ROOT
HETATM    1  C6  UNL     1     -10.746   4.735   0.154  1.00  0.00     0.189 A 
HETATM    2  F1  UNL     1      -9.699   3.879   0.362  1.00  0.00    -0.227 F 
HETATM    3  C7  UNL     1     -11.773   4.812   1.184  1.00  0.00     0.130 A 
HETATM    4  C12 UNL     1     -12.139   4.130  -0.080  1.00  0.00     0.020 A 
HETATM    5  C13 UNL     1     -12.138   2.635  -0.192  1.00  0.00     0.021 C 
HETATM    6  C14 UNL     1     -13.055   4.855  -1.041  1.00  0.00     0.021 C 
ENDROOT
BRANCH   3   7
HETATM    7  C8  UNL     1     -11.694   3.905   2.354  1.00  0.00    -0.093 C 
HETATM    8  C9  UNL     1     -11.646   3.156   3.298  1.00  0.00    -0.061 C 
BRANCH   8   9
HETATM    9  C10 UNL     1     -11.608   2.239   4.431  1.00  0.00     0.225 C 
HETATM   10 BR1  UNL     1     -10.916   3.229   5.963  1.00  0.00    -0.046 Br
HETATM   11 BR2  UNL     1     -13.455   1.739   4.811  1.00  0.00    -0.046 Br
BRANCH   9  12
HETATM   12  C11 UNL     1     -10.784   1.047   4.160  1.00  0.00     0.217 C 
HETATM   13  O1  UNL     1     -10.885   0.440   3.070  1.00  0.00    -0.645 OA
HETATM   14  O2  UNL     1      -9.885   0.567   5.093  1.00  0.00    -0.645 OA
ENDBRANCH   9  12
ENDBRANCH   8   9
ENDBRANCH   3   7
BRANCH   1  15
HETATM   15  C5  UNL     1     -10.493   5.969  -0.626  1.00  0.00    -0.058 C 
HETATM   16  C4  UNL     1     -10.305   6.972  -1.271  1.00  0.00    -0.077 C 
BRANCH  16  17
HETATM   17  C2  UNL     1     -10.102   8.197  -2.063  1.00  0.00     0.093 C 
HETATM   18  C1  UNL     1      -9.813   7.752  -3.476  1.00  0.00     0.046 C 
HETATM   19  C3  UNL     1     -11.265   9.129  -1.981  1.00  0.00     0.046 C 
HETATM   20 CL1  UNL     1      -8.649   9.081  -1.494  1.00  0.00    -0.106 Cl
ENDBRANCH  16  17
ENDBRANCH   1  15
TORSDOF 5
ENDMDL
MODEL 5
REMARK VINA RESULT: -6.447282332      4.416      5.061
REMARK  5 active torsions:
REMARK  status: ('A' for Active; 'I' for Inactive)
REMARK    1  A    between atoms: C2_2  and  C4_5 
REMARK    2  A    between atoms: C5_6  and  C6_7 
REMARK    3  A    between atoms: C7_9  and  C8_10 
REMARK    4  A    between atoms: C9_11  and  C10_12 
REMARK    5  A    between atoms: C10_12  and  C11_15 
ROOT
HETATM    1  C6  UNL     1     -12.591   6.768   4.188  1.00  0.00     0.189 A 
HETATM    2  F1  UNL     1     -13.905   7.126   4.310  1.00  0.00    -0.227 F 
HETATM    3  C7  UNL     1     -11.582   7.779   4.479  1.00  0.00     0.130 A 
HETATM    4  C12 UNL     1     -11.770   7.408   3.057  1.00  0.00     0.020 A 
HETATM    5  C13 UNL     1     -12.581   8.257   2.125  1.00  0.00     0.021 C 
HETATM    6  C14 UNL     1     -10.712   6.549   2.399  1.00  0.00     0.021 C 
ENDROOT
BRANCH   3   7
HETATM    7  C8  UNL     1     -12.014   9.160   4.801  1.00  0.00    -0.093 C 
HETATM    8  C9  UNL     1     -12.359  10.290   5.044  1.00  0.00    -0.061 C 
BRANCH   8   9
HETATM    9  C10 UNL     1     -12.766  11.664   5.316  1.00  0.00     0.225 C 
HETATM   10 BR1  UNL     1     -11.748  12.280   6.863  1.00  0.00    -0.046 Br
HETATM   11 BR2  UNL     1     -12.228  12.725   3.769  1.00  0.00    -0.046 Br
BRANCH   9  12
HETATM   12  C11 UNL     1     -14.215  11.782   5.560  1.00  0.00     0.217 C 
HETATM   13  O1  UNL     1     -14.741  11.214   6.543  1.00  0.00    -0.645 OA
HETATM   14  O2  UNL     1     -15.028  12.516   4.717  1.00  0.00    -0.645 OA
ENDBRANCH   9  12
ENDBRANCH   8   9
ENDBRANCH   3   7
BRANCH   1  15
HETATM   15  C5  UNL     1     -12.223   5.361   4.469  1.00  0.00    -0.058 C 
HETATM   16  C4  UNL     1     -11.937   4.208   4.685  1.00  0.00    -0.077 C 
BRANCH  16  17
HETATM   17  C2  UNL     1     -11.601   2.794   4.926  1.00  0.00     0.093 C 
HETATM   18  C1  UNL     1     -10.742   2.352   3.767  1.00  0.00     0.046 C 
HETATM   19  C3  UNL     1     -10.938   2.583   6.246  1.00  0.00     0.046 C 
HETATM   20 CL1  UNL     1     -13.080   1.781   4.886  1.00  0.00    -0.106 Cl
ENDBRANCH  16  17
ENDBRANCH   1  15
TORSDOF 5
ENDMDL
