MODEL 1
REMARK VINA RESULT: -6.884278826      0.000      0.000
REMARK  3 active torsions:
REMARK  status: ('A' for Active; 'I' for Inactive)
REMARK    1  A    between atoms: C8_8  and  C9_10 
REMARK    2  A    between atoms: C10_11  and  C11_12 
REMARK    3  A    between atoms: C14_18  and  O1_19 
ROOT
HETATM    1  C1  UNL     1     -10.032   9.751  -1.752  1.00  0.00     0.010 C 
HETATM    2  C2  UNL     1     -10.660   8.356  -1.792  1.00  0.00    -0.017 C 
HETATM    3  C3  UNL     1     -12.136   8.530  -1.707  1.00  0.00     0.012 C 
HETATM    4  C4  UNL     1     -12.753   7.579  -0.716  1.00  0.00     0.024 C 
HETATM    5  C5  UNL     1     -12.211   7.954   0.655  1.00  0.00     0.022 C 
HETATM    6  C6  UNL     1     -11.526   6.693   1.066  1.00  0.00     0.026 C 
HETATM    7  C7  UNL     1     -10.613   6.777   2.206  1.00  0.00     0.021 C 
HETATM    8  C8  UNL     1     -12.613   5.633   1.194  1.00  0.00     0.190 C 
HETATM    9  F1  UNL     1     -13.750   6.232   1.703  1.00  0.00    -0.227 F 
HETATM   10  C13 UNL     1     -12.888   5.200  -0.233  1.00  0.00     0.147 C 
HETATM   11 BR1  UNL     1     -12.421   3.391  -0.580  1.00  0.00    -0.083 Br
HETATM   12  C14 UNL     1     -12.152   6.206  -1.035  1.00  0.00     0.097 C 
HETATM   13  C15 UNL     1     -10.832   6.357  -0.265  1.00  0.00     0.062 C 
HETATM   14 BR2  UNL     1      -9.839   4.742  -0.185  1.00  0.00    -0.081 Br
HETATM   15  C16 UNL     1     -10.031   7.523  -0.752  1.00  0.00     0.029 C 
ENDROOT
BRANCH   8  16
HETATM   16  C9  UNL     1     -12.168   4.501   1.993  1.00  0.00    -0.054 C 
HETATM   17  C10 UNL     1     -11.812   3.564   2.673  1.00  0.00    -0.026 C 
BRANCH  17  18
HETATM   18  C11 UNL     1     -11.392   2.427   3.502  1.00  0.00     0.302 C 
HETATM   19  C12 UNL     1     -12.659   1.725   3.953  1.00  0.00     0.105 C 
HETATM   20  F2  UNL     1     -10.719   2.846   4.638  1.00  0.00    -0.192 F 
HETATM   21  F3  UNL     1     -10.548   1.573   2.824  1.00  0.00    -0.192 F 
ENDBRANCH  17  18
ENDBRANCH   8  16
BRANCH  12  22
HETATM   22  O1  UNL     1     -11.995   5.962  -2.347  1.00  0.00    -0.386 OA
ATOM     23  H1  UNL     1     -12.245   5.085  -2.614  1.00  0.00     0.210 HD
ENDBRANCH  12  22
TORSDOF 3
ENDMDL
MODEL 2
REMARK VINA RESULT: -6.537619128      0.854      1.013
REMARK  3 active torsions:
REMARK  status: ('A' for Active; 'I' for Inactive)
REMARK    1  A    between atoms: C8_8  and  C9_10 
REMARK    2  A    between atoms: C10_11  and  C11_12 
REMARK    3  A    between atoms: C14_18  and  O1_19 
ROOT
HETATM    1  C1  UNL     1      -9.423   9.026  -2.475  1.00  0.00     0.010 C 
HETATM    2  C2  UNL     1     -10.196   7.712  -2.347  1.00  0.00    -0.017 C 
HETATM    3  C3  UNL     1     -11.646   8.045  -2.365  1.00  0.00     0.012 C 
HETATM    4  C4  UNL     1     -12.400   7.319  -1.282  1.00  0.00     0.024 C 
HETATM    5  C5  UNL     1     -11.871   7.836   0.047  1.00  0.00     0.022 C 
HETATM    6  C6  UNL     1     -11.341   6.587   0.671  1.00  0.00     0.026 C 
HETATM    7  C7  UNL     1     -10.468   6.747   1.833  1.00  0.00     0.021 C 
HETATM    8  C8  UNL     1     -12.541   5.674   0.893  1.00  0.00     0.190 C 
HETATM    9  F1  UNL     1     -13.625   6.454   1.250  1.00  0.00    -0.227 F 
HETATM   10  C13 UNL     1     -12.808   5.064  -0.470  1.00  0.00     0.147 C 
HETATM   11 BR1  UNL     1     -12.526   3.185  -0.528  1.00  0.00    -0.083 Br
HETATM   12  C14 UNL     1     -11.939   5.860  -1.368  1.00  0.00     0.097 C 
HETATM   13  C15 UNL     1     -10.639   5.989  -0.560  1.00  0.00     0.062 C 
HETATM   14 BR2  UNL     1      -9.830   4.311  -0.197  1.00  0.00    -0.081 Br
HETATM   15  C16 UNL     1      -9.699   6.982  -1.167  1.00  0.00     0.029 C 
ENDROOT
BRANCH   8  16
HETATM   16  C9  UNL     1     -12.251   4.634   1.868  1.00  0.00    -0.054 C 
HETATM   17  C10 UNL     1     -11.991   3.778   2.686  1.00  0.00    -0.026 C 
BRANCH  17  18
HETATM   18  C11 UNL     1     -11.671   2.751   3.684  1.00  0.00     0.302 C 
HETATM   19  C12 UNL     1     -10.963   1.630   2.947  1.00  0.00     0.105 C 
HETATM   20  F2  UNL     1     -12.818   2.218   4.252  1.00  0.00    -0.192 F 
HETATM   21  F3  UNL     1     -10.903   3.249   4.716  1.00  0.00    -0.192 F 
ENDBRANCH  17  18
ENDBRANCH   8  16
BRANCH  12  22
HETATM   22  O1  UNL     1     -11.760   5.409  -2.621  1.00  0.00    -0.386 OA
ATOM     23  H1  UNL     1     -11.869   6.071  -3.294  1.00  0.00     0.210 HD
ENDBRANCH  12  22
TORSDOF 3
ENDMDL
MODEL 3
REMARK VINA RESULT: -6.385254361      1.071      1.227
REMARK  3 active torsions:
REMARK  status: ('A' for Active; 'I' for Inactive)
REMARK    1  A    between atoms: C8_8  and  C9_10 
REMARK    2  A    between atoms: C10_11  and  C11_12 
REMARK    3  A    between atoms: C14_18  and  O1_19 
ROOT
HETATM    1  C1  UNL     1      -9.568   8.441  -2.842  1.00  0.00     0.010 C 
HETATM    2  C2  UNL     1     -10.312   7.138  -2.540  1.00  0.00    -0.017 C 
HETATM    3  C3  UNL     1     -11.768   7.444  -2.548  1.00  0.00     0.012 C 
HETATM    4  C4  UNL     1     -12.474   6.835  -1.365  1.00  0.00     0.024 C 
HETATM    5  C5  UNL     1     -11.915   7.510  -0.122  1.00  0.00     0.022 C 
HETATM    6  C6  UNL     1     -11.342   6.350   0.623  1.00  0.00     0.026 C 
HETATM    7  C7  UNL     1     -10.437   6.656   1.730  1.00  0.00     0.021 C 
HETATM    8  C8  UNL     1     -12.517   5.449   0.987  1.00  0.00     0.190 C 
HETATM    9  F1  UNL     1     -13.604   6.248   1.288  1.00  0.00    -0.227 F 
HETATM   10  C13 UNL     1     -12.813   4.682  -0.287  1.00  0.00     0.147 C 
HETATM   11 BR1  UNL     1     -12.496   2.814  -0.140  1.00  0.00    -0.083 Br
HETATM   12  C14 UNL     1     -11.987   5.384  -1.299  1.00  0.00     0.097 C 
HETATM   13  C15 UNL     1     -10.667   5.625  -0.553  1.00  0.00     0.062 C 
HETATM   14 BR2  UNL     1      -9.815   4.014  -0.027  1.00  0.00    -0.081 Br
HETATM   15  C16 UNL     1      -9.765   6.557  -1.300  1.00  0.00     0.029 C 
ENDROOT
BRANCH   8  16
HETATM   16  C9  UNL     1     -12.177   4.533   2.065  1.00  0.00    -0.054 C 
HETATM   17  C10 UNL     1     -11.914   3.771   2.970  1.00  0.00    -0.026 C 
BRANCH  17  18
HETATM   18  C11 UNL     1     -11.607   2.843   4.065  1.00  0.00     0.302 C 
HETATM   19  C12 UNL     1     -11.130   3.685   5.231  1.00  0.00     0.105 C 
HETATM   20  F2  UNL     1     -10.579   1.977   3.725  1.00  0.00    -0.192 F 
HETATM   21  F3  UNL     1     -12.694   2.065   4.406  1.00  0.00    -0.192 F 
ENDBRANCH  17  18
ENDBRANCH   8  16
BRANCH  12  22
HETATM   22  O1  UNL     1     -11.839   4.795  -2.497  1.00  0.00    -0.386 OA
ATOM     23  H1  UNL     1     -11.549   5.380  -3.187  1.00  0.00     0.210 HD
ENDBRANCH  12  22
TORSDOF 3
ENDMDL
MODEL 4
REMARK VINA RESULT: -6.192149102      1.598      1.779
REMARK  3 active torsions:
REMARK  status: ('A' for Active; 'I' for Inactive)
REMARK    1  A    between atoms: C8_8  and  C9_10 
REMARK    2  A    between atoms: C10_11  and  C11_12 
REMARK    3  A    between atoms: C14_18  and  O1_19 
ROOT
HETATM    1  C1  UNL     1      -9.752   7.398  -3.564  1.00  0.00     0.010 C 
HETATM    2  C2  UNL     1     -10.410   6.141  -2.990  1.00  0.00    -0.017 C 
HETATM    3  C3  UNL     1     -11.883   6.344  -3.045  1.00  0.00     0.012 C 
HETATM    4  C4  UNL     1     -12.550   5.950  -1.753  1.00  0.00     0.024 C 
HETATM    5  C5  UNL     1     -12.039   6.903  -0.684  1.00  0.00     0.022 C 
HETATM    6  C6  UNL     1     -11.394   5.962   0.279  1.00  0.00     0.026 C 
HETATM    7  C7  UNL     1     -10.513   6.548   1.288  1.00  0.00     0.021 C 
HETATM    8  C8  UNL     1     -12.508   5.083   0.835  1.00  0.00     0.190 C 
HETATM    9  F1  UNL     1     -13.646   5.855   0.976  1.00  0.00    -0.227 F 
HETATM   10  C13 UNL     1     -12.751   4.051  -0.250  1.00  0.00     0.147 C 
HETATM   11 BR1  UNL     1     -12.314   2.278   0.278  1.00  0.00    -0.083 Br
HETATM   12  C14 UNL     1     -11.970   4.579  -1.394  1.00  0.00     0.097 C 
HETATM   13  C15 UNL     1     -10.670   5.054  -0.729  1.00  0.00     0.062 C 
HETATM   14 BR2  UNL     1      -9.716   3.645   0.109  1.00  0.00    -0.081 Br
HETATM   15  C16 UNL     1      -9.830   5.866  -1.664  1.00  0.00     0.029 C 
ENDROOT
BRANCH   8  16
HETATM   16  C9  UNL     1     -12.111   4.434   2.075  1.00  0.00    -0.054 C 
HETATM   17  C10 UNL     1     -11.791   3.875   3.102  1.00  0.00    -0.026 C 
BRANCH  17  18
HETATM   18  C11 UNL     1     -11.402   3.187   4.339  1.00  0.00     0.302 C 
HETATM   19  C12 UNL     1     -10.708   1.904   3.925  1.00  0.00     0.105 C 
HETATM   20  F2  UNL     1     -12.508   2.838   5.097  1.00  0.00    -0.192 F 
HETATM   21  F3  UNL     1     -10.595   3.971   5.138  1.00  0.00    -0.192 F 
ENDBRANCH  17  18
ENDBRANCH   8  16
BRANCH  12  22
HETATM   22  O1  UNL     1     -11.781   3.765  -2.446  1.00  0.00    -0.386 OA
ATOM     23  H1  UNL     1     -11.568   4.215  -3.255  1.00  0.00     0.210 HD
ENDBRANCH  12  22
TORSDOF 3
ENDMDL
MODEL 5
REMARK VINA RESULT: -5.805037677      2.906      5.488
REMARK  3 active torsions:
REMARK  status: ('A' for Active; 'I' for Inactive)
REMARK    1  A    between atoms: C8_8  and  C9_10 
REMARK    2  A    between atoms: C10_11  and  C11_12 
REMARK    3  A    between atoms: C14_18  and  O1_19 
ROOT
HETATM    1  C1  UNL     1     -13.549   2.926  -1.283  1.00  0.00     0.010 C 
HETATM    2  C2  UNL     1     -12.447   3.988  -1.267  1.00  0.00    -0.017 C 
HETATM    3  C3  UNL     1     -11.352   3.480  -0.396  1.00  0.00     0.012 C 
HETATM    4  C4  UNL     1     -10.863   4.535   0.560  1.00  0.00     0.024 C 
HETATM    5  C5  UNL     1     -12.021   4.856   1.494  1.00  0.00     0.022 C 
HETATM    6  C6  UNL     1     -12.228   6.311   1.232  1.00  0.00     0.026 C 
HETATM    7  C7  UNL     1     -13.473   6.901   1.724  1.00  0.00     0.021 C 
HETATM    8  C8  UNL     1     -10.959   7.018   1.693  1.00  0.00     0.190 C 
HETATM    9  F1  UNL     1     -10.488   6.378   2.824  1.00  0.00    -0.227 F 
HETATM   10  C13 UNL     1      -9.973   6.798   0.562  1.00  0.00     0.147 C 
HETATM   11 BR1  UNL     1      -9.467   8.399  -0.327  1.00  0.00    -0.083 Br
HETATM   12  C14 UNL     1     -10.657   5.794  -0.288  1.00  0.00     0.097 C 
HETATM   13  C15 UNL     1     -12.110   6.294  -0.302  1.00  0.00     0.062 C 
HETATM   14 BR2  UNL     1     -12.286   8.020  -1.069  1.00  0.00    -0.081 Br
HETATM   15  C16 UNL     1     -13.042   5.283  -0.892  1.00  0.00     0.029 C 
ENDROOT
BRANCH   8  16
HETATM   16  C9  UNL     1     -11.183   8.440   1.903  1.00  0.00    -0.054 C 
HETATM   17  C10 UNL     1     -11.348   9.628   2.077  1.00  0.00    -0.026 C 
BRANCH  17  18
HETATM   18  C11 UNL     1     -11.537  11.069   2.281  1.00  0.00     0.302 C 
HETATM   19  C12 UNL     1     -11.629  11.291   3.778  1.00  0.00     0.105 C 
HETATM   20  F2  UNL     1     -12.725  11.510   1.719  1.00  0.00    -0.192 F 
HETATM   21  F3  UNL     1     -10.522  11.812   1.714  1.00  0.00    -0.192 F 
ENDBRANCH  17  18
ENDBRANCH   8  16
BRANCH  12  22
HETATM   22  O1  UNL     1     -10.148   5.562  -1.509  1.00  0.00    -0.386 OA
ATOM     23  H1  UNL     1     -10.258   6.279  -2.122  1.00  0.00     0.210 HD
ENDBRANCH  12  22
TORSDOF 3
ENDMDL
