MODEL 1
REMARK VINA RESULT: -10.281894589      0.000      0.000
REMARK  1 active torsions:
REMARK  status: ('A' for Active; 'I' for Inactive)
REMARK       I    between atoms: N1_2  and  C2_4 
REMARK       I    between atoms: C2_4  and  N2_6 
REMARK    1  A    between atoms: C13_18  and  C15_20 
ROOT
HETATM    1  C1  UNL     1      -9.807   5.770   8.403  1.00  0.00     0.151 C 
HETATM    2  N1  UNL     1     -10.234   4.936   7.314  1.00  0.00    -0.347 N 
ATOM      3  H1  UNL     1     -10.054   3.933   7.355  1.00  0.00     0.163 HD
HETATM    4  C2  UNL     1     -10.898   5.475   6.187  1.00  0.00     0.317 C 
HETATM    5  O1  UNL     1     -11.107   6.731   6.166  1.00  0.00    -0.247 OA
HETATM    6  N2  UNL     1     -11.332   4.688   5.095  1.00  0.00    -0.333 N 
HETATM    7  C3  UNL     1     -12.005   5.309   3.974  1.00  0.00     0.133 C 
HETATM    8  C4  UNL     1     -11.476   4.664   2.740  1.00  0.00     0.017 C 
HETATM    9  C5  UNL     1     -12.060   3.264   2.788  1.00  0.00     0.002 C 
HETATM   10  C6  UNL     1     -11.639   2.423   1.626  1.00  0.00     0.006 C 
HETATM   11  C7  UNL     1     -11.025   3.273   0.538  1.00  0.00     0.007 C 
HETATM   12  C8  UNL     1     -11.861   4.524   0.273  1.00  0.00     0.012 C 
HETATM   13  C9  UNL     1     -11.801   5.386   1.468  1.00  0.00    -0.033 C 
HETATM   14  C10 UNL     1     -13.053   6.188   1.746  1.00  0.00     0.016 C 
HETATM   15  C11 UNL     1     -10.764   6.423   1.100  1.00  0.00     0.027 C 
HETATM   16  C12 UNL     1     -10.842   6.513  -0.427  1.00  0.00     0.076 C 
HETATM   17 BR1  UNL     1     -11.904   8.009  -0.912  1.00  0.00    -0.090 Br
HETATM   18  C13 UNL     1     -11.230   5.193  -0.920  1.00  0.00     0.071 C 
HETATM   19  C14 UNL     1      -9.954   4.493  -1.390  1.00  0.00     0.026 C 
HETATM   20  C16 UNL     1     -11.790   2.522   4.036  1.00  0.00    -0.020 A 
HETATM   21  C17 UNL     1     -11.692   1.049   4.097  1.00  0.00     0.012 A 
HETATM   22  C18 UNL     1     -12.985   1.674   4.569  1.00  0.00     0.012 A 
HETATM   23  C19 UNL     1     -11.093   3.283   5.126  1.00  0.00     0.137 C 
ENDROOT
BRANCH  18  24
HETATM   24  C15 UNL     1     -12.147   5.086  -2.093  1.00  0.00     0.396 C 
HETATM   25  F1  UNL     1     -12.206   3.790  -2.599  1.00  0.00    -0.170 F 
HETATM   26  F2  UNL     1     -11.803   5.833  -3.180  1.00  0.00    -0.170 F 
HETATM   27  F3  UNL     1     -13.477   5.350  -1.803  1.00  0.00    -0.170 F 
ENDBRANCH  18  24
TORSDOF 1
ENDMDL
MODEL 2
REMARK VINA RESULT: -7.667039820      3.135      4.452
REMARK  1 active torsions:
REMARK  status: ('A' for Active; 'I' for Inactive)
REMARK       I    between atoms: N1_2  and  C2_4 
REMARK       I    between atoms: C2_4  and  N2_6 
REMARK    1  A    between atoms: C13_18  and  C15_20 
ROOT
HETATM    1  C1  UNL     1     -11.038   0.621   4.222  1.00  0.00     0.151 C 
HETATM    2  N1  UNL     1     -11.246   1.315   2.982  1.00  0.00    -0.347 N 
ATOM      3  H1  UNL     1     -11.080   0.825   2.103  1.00  0.00     0.163 HD
HETATM    4  C2  UNL     1     -11.676   2.663   2.953  1.00  0.00     0.317 C 
HETATM    5  O1  UNL     1     -11.875   3.246   4.067  1.00  0.00    -0.247 OA
HETATM    6  N2  UNL     1     -11.891   3.381   1.753  1.00  0.00    -0.333 N 
HETATM    7  C3  UNL     1     -12.332   4.758   1.800  1.00  0.00     0.133 C 
HETATM    8  C4  UNL     1     -11.574   5.491   0.749  1.00  0.00     0.017 C 
HETATM    9  C5  UNL     1     -12.159   4.964  -0.549  1.00  0.00     0.002 C 
HETATM   10  C6  UNL     1     -11.522   5.570  -1.758  1.00  0.00     0.006 C 
HETATM   11  C7  UNL     1     -10.706   6.785  -1.387  1.00  0.00     0.007 C 
HETATM   12  C8  UNL     1     -11.471   7.696  -0.427  1.00  0.00     0.012 C 
HETATM   13  C9  UNL     1     -11.643   6.985   0.852  1.00  0.00    -0.033 C 
HETATM   14  C10 UNL     1     -12.924   7.296   1.595  1.00  0.00     0.016 C 
HETATM   15  C11 UNL     1     -10.553   7.563   1.725  1.00  0.00     0.027 C 
HETATM   16  C12 UNL     1     -10.331   8.974   1.170  1.00  0.00     0.076 C 
HETATM   17 BR1  UNL     1     -11.275  10.223   2.242  1.00  0.00    -0.090 Br
HETATM   18  C13 UNL     1     -10.619   8.927  -0.263  1.00  0.00     0.071 C 
HETATM   19  C14 UNL     1      -9.277   8.823  -0.990  1.00  0.00     0.026 C 
HETATM   20  C16 UNL     1     -12.140   3.493  -0.685  1.00  0.00    -0.020 A 
HETATM   21  C17 UNL     1     -12.058   2.803  -1.990  1.00  0.00     0.012 A 
HETATM   22  C18 UNL     1     -13.417   2.875  -1.331  1.00  0.00     0.012 A 
HETATM   23  C19 UNL     1     -11.667   2.720   0.510  1.00  0.00     0.137 C 
ENDROOT
BRANCH  18  24
HETATM   24  C15 UNL     1     -11.290  10.089  -0.917  1.00  0.00     0.396 C 
HETATM   25  F1  UNL     1     -11.295   9.981  -2.305  1.00  0.00    -0.170 F 
HETATM   26  F2  UNL     1     -10.712  11.303  -0.697  1.00  0.00    -0.170 F 
HETATM   27  F3  UNL     1     -12.641  10.205  -0.626  1.00  0.00    -0.170 F 
ENDBRANCH  18  24
TORSDOF 1
ENDMDL
MODEL 3
REMARK VINA RESULT: -7.527784749      5.252      7.636
REMARK  1 active torsions:
REMARK  status: ('A' for Active; 'I' for Inactive)
REMARK       I    between atoms: N1_2  and  C2_4 
REMARK       I    between atoms: C2_4  and  N2_6 
REMARK    1  A    between atoms: C13_18  and  C15_20 
ROOT
HETATM    1  C1  UNL     1     -10.957  11.851   0.338  1.00  0.00     0.151 C 
HETATM    2  N1  UNL     1     -11.166  11.454   1.702  1.00  0.00    -0.347 N 
ATOM      3  H1  UNL     1     -11.009  12.133   2.448  1.00  0.00     0.163 HD
HETATM    4  C2  UNL     1     -11.583  10.144   2.036  1.00  0.00     0.317 C 
HETATM    5  O1  UNL     1     -11.770   9.321   1.082  1.00  0.00    -0.247 OA
HETATM    6  N2  UNL     1     -11.797   9.715   3.366  1.00  0.00    -0.333 N 
HETATM    7  C3  UNL     1     -12.224   8.358   3.631  1.00  0.00     0.133 C 
HETATM    8  C4  UNL     1     -11.465   7.891   4.825  1.00  0.00     0.017 C 
HETATM    9  C5  UNL     1     -12.063   8.692   5.967  1.00  0.00     0.002 C 
HETATM   10  C6  UNL     1     -11.426   8.384   7.284  1.00  0.00     0.006 C 
HETATM   11  C7  UNL     1     -10.596   7.125   7.201  1.00  0.00     0.007 C 
HETATM   12  C8  UNL     1     -11.348   6.012   6.471  1.00  0.00     0.012 C 
HETATM   13  C9  UNL     1     -11.519   6.412   5.063  1.00  0.00    -0.033 C 
HETATM   14  C10 UNL     1     -12.793   5.926   4.406  1.00  0.00     0.016 C 
HETATM   15  C11 UNL     1     -10.418   5.663   4.348  1.00  0.00     0.027 C 
HETATM   16  C12 UNL     1     -10.186   4.417   5.209  1.00  0.00     0.076 C 
HETATM   17 BR1  UNL     1     -11.112   2.947   4.446  1.00  0.00    -0.090 Br
HETATM   18  C13 UNL     1     -10.482   4.785   6.593  1.00  0.00     0.071 C 
HETATM   19  C14 UNL     1      -9.145   5.065   7.282  1.00  0.00     0.026 C 
HETATM   20  C16 UNL     1     -12.058  10.156   5.766  1.00  0.00    -0.020 A 
HETATM   21  C17 UNL     1     -11.991  11.125   6.879  1.00  0.00     0.012 A 
HETATM   22  C18 UNL     1     -13.345  10.891   6.250  1.00  0.00     0.012 A 
HETATM   23  C19 UNL     1     -11.586  10.643   4.427  1.00  0.00     0.137 C 
ENDROOT
BRANCH  18  24
HETATM   24  C15 UNL     1     -11.145   3.795   7.492  1.00  0.00     0.396 C 
HETATM   25  F1  UNL     1     -10.339   2.689   7.744  1.00  0.00    -0.170 F 
HETATM   26  F2  UNL     1     -12.297   3.244   7.013  1.00  0.00    -0.170 F 
HETATM   27  F3  UNL     1     -11.404   4.269   8.770  1.00  0.00    -0.170 F 
ENDBRANCH  18  24
TORSDOF 1
ENDMDL
MODEL 4
REMARK VINA RESULT: -7.435204745      4.141      5.988
REMARK  1 active torsions:
REMARK  status: ('A' for Active; 'I' for Inactive)
REMARK       I    between atoms: N1_2  and  C2_4 
REMARK       I    between atoms: C2_4  and  N2_6 
REMARK    1  A    between atoms: C13_18  and  C15_20 
ROOT
HETATM    1  C1  UNL     1     -13.065   0.873  -2.462  1.00  0.00     0.151 C 
HETATM    2  N1  UNL     1     -12.800   1.167  -1.081  1.00  0.00    -0.347 N 
ATOM      3  H1  UNL     1     -13.065   0.488  -0.368  1.00  0.00     0.163 HD
HETATM    4  C2  UNL     1     -12.180   2.377  -0.689  1.00  0.00     0.317 C 
HETATM    5  O1  UNL     1     -11.861   3.203  -1.603  1.00  0.00    -0.247 OA
HETATM    6  N2  UNL     1     -11.903   2.702   0.660  1.00  0.00    -0.333 N 
HETATM    7  C3  UNL     1     -11.266   3.960   0.986  1.00  0.00     0.133 C 
HETATM    8  C4  UNL     1     -11.945   4.486   2.204  1.00  0.00     0.017 C 
HETATM    9  C5  UNL     1     -11.486   3.546   3.304  1.00  0.00     0.002 C 
HETATM   10  C6  UNL     1     -12.069   3.889   4.637  1.00  0.00     0.006 C 
HETATM   11  C7  UNL     1     -12.687   5.267   4.617  1.00  0.00     0.007 C 
HETATM   12  C8  UNL     1     -11.766   6.279   3.937  1.00  0.00     0.012 C 
HETATM   13  C9  UNL     1     -11.656   5.923   2.511  1.00  0.00    -0.033 C 
HETATM   14  C10 UNL     1     -10.319   6.230   1.872  1.00  0.00     0.016 C 
HETATM   15  C11 UNL     1     -12.621   6.872   1.837  1.00  0.00     0.027 C 
HETATM   16  C12 UNL     1     -12.654   8.097   2.757  1.00  0.00     0.076 C 
HETATM   17 BR1  UNL     1     -11.503   9.434   2.060  1.00  0.00    -0.090 Br
HETATM   18  C13 UNL     1     -12.425   7.621   4.120  1.00  0.00     0.071 C 
HETATM   19  C14 UNL     1     -13.791   7.526   4.802  1.00  0.00     0.026 C 
HETATM   20  C16 UNL     1     -11.723   2.113   3.034  1.00  0.00    -0.020 A 
HETATM   21  C17 UNL     1     -11.948   1.115   4.101  1.00  0.00     0.012 A 
HETATM   22  C18 UNL     1     -10.572   1.160   3.478  1.00  0.00     0.012 A 
HETATM   23  C19 UNL     1     -12.263   1.771   1.676  1.00  0.00     0.137 C 
ENDROOT
BRANCH  18  24
HETATM   24  C15 UNL     1     -11.614   8.449   5.062  1.00  0.00     0.396 C 
HETATM   25  F1  UNL     1     -12.410   9.219   5.905  1.00  0.00    -0.170 F 
HETATM   26  F2  UNL     1     -10.790   9.366   4.481  1.00  0.00    -0.170 F 
HETATM   27  F3  UNL     1     -10.858   7.714   5.962  1.00  0.00    -0.170 F 
ENDBRANCH  18  24
TORSDOF 1
ENDMDL
MODEL 5
REMARK VINA RESULT: -7.412378429      4.025      6.000
REMARK  1 active torsions:
REMARK  status: ('A' for Active; 'I' for Inactive)
REMARK       I    between atoms: N1_2  and  C2_4 
REMARK       I    between atoms: C2_4  and  N2_6 
REMARK    1  A    between atoms: C13_18  and  C15_20 
ROOT
HETATM    1  C1  UNL     1      -9.264  11.009   0.179  1.00  0.00     0.151 C 
HETATM    2  N1  UNL     1      -9.827  10.307   1.298  1.00  0.00    -0.347 N 
ATOM      3  H1  UNL     1      -9.689  10.678   2.239  1.00  0.00     0.163 HD
HETATM    4  C2  UNL     1     -10.567   9.114   1.127  1.00  0.00     0.317 C 
HETATM    5  O1  UNL     1     -10.721   8.678  -0.059  1.00  0.00    -0.247 OA
HETATM    6  N2  UNL     1     -11.135   8.393   2.204  1.00  0.00    -0.333 N 
HETATM    7  C3  UNL     1     -11.879   7.179   1.951  1.00  0.00     0.133 C 
HETATM    8  C4  UNL     1     -11.496   6.207   3.013  1.00  0.00     0.017 C 
HETATM    9  C5  UNL     1     -12.135   6.775   4.267  1.00  0.00     0.002 C 
HETATM   10  C6  UNL     1     -11.861   5.947   5.481  1.00  0.00     0.006 C 
HETATM   11  C7  UNL     1     -11.312   4.593   5.099  1.00  0.00     0.007 C 
HETATM   12  C8  UNL     1     -12.112   3.973   3.953  1.00  0.00     0.012 C 
HETATM   13  C9  UNL     1     -11.904   4.791   2.745  1.00  0.00    -0.033 C 
HETATM   14  C10 UNL     1     -13.088   4.865   1.806  1.00  0.00     0.016 C 
HETATM   15  C11 UNL     1     -10.860   4.016   1.973  1.00  0.00     0.027 C 
HETATM   16  C12 UNL     1     -11.074   2.561   2.401  1.00  0.00     0.076 C 
HETATM   17 BR1  UNL     1     -12.108   1.668   1.085  1.00  0.00    -0.090 Br
HETATM   18  C13 UNL     1     -11.565   2.581   3.778  1.00  0.00     0.071 C 
HETATM   19  C14 UNL     1     -10.370   2.292   4.688  1.00  0.00     0.026 C 
HETATM   20  C16 UNL     1     -11.785   8.181   4.559  1.00  0.00    -0.020 A 
HETATM   21  C17 UNL     1     -11.748   8.737   5.928  1.00  0.00     0.012 A 
HETATM   22  C18 UNL     1     -12.962   9.057   5.087  1.00  0.00     0.012 A 
HETATM   23  C19 UNL     1     -10.957   8.889   3.528  1.00  0.00     0.137 C 
ENDROOT
BRANCH  18  24
HETATM   24  C15 UNL     1     -12.590   1.585   4.208  1.00  0.00     0.396 C 
HETATM   25  F1  UNL     1     -13.082   1.853   5.482  1.00  0.00    -0.170 F 
HETATM   26  F2  UNL     1     -12.156   0.296   4.302  1.00  0.00    -0.170 F 
HETATM   27  F3  UNL     1     -13.744   1.586   3.440  1.00  0.00    -0.170 F 
ENDBRANCH  18  24
TORSDOF 1
ENDMDL
