MODEL 1
REMARK VINA RESULT: -8.513074367      0.000      0.000
REMARK  4 active torsions:
REMARK  status: ('A' for Active; 'I' for Inactive)
REMARK    1  A    between atoms: C2_7  and  C3_8 
REMARK    2  A    between atoms: C5_15  and  C6_16 
REMARK       I    between atoms: C6_16  and  N7_18 
REMARK    3  A    between atoms: N7_18  and  C7_20 
REMARK    4  A    between atoms: C10_26  and  O2_27 
ROOT
HETATM    1  C3  UNL     1      24.159  58.893 -30.392  1.00  0.00     0.126 A 
HETATM    2  N4  UNL     1      23.879  57.865 -31.217  1.00  0.00    -0.265 N 
ATOM      3  H4  UNL     1      23.707  56.945 -30.812  1.00  0.00     0.190 HD
HETATM    4  N5  UNL     1      23.820  58.002 -32.524  1.00  0.00    -0.189 N 
HETATM    5  N6  UNL     1      23.565  57.151 -33.524  1.00  0.00    -0.289 N 
ATOM      6  H6  UNL     1      23.357  56.159 -33.409  1.00  0.00     0.188 HD
HETATM    7  C4  UNL     1      23.623  57.789 -34.690  1.00  0.00     0.129 A 
HETATM    8  C5  UNL     1      23.935  59.133 -34.417  1.00  0.00     0.084 A 
HETATM    9  C11 UNL     1      24.050  59.221 -33.043  1.00  0.00     0.159 A 
HETATM   10  C12 UNL     1      24.342  60.300 -32.206  1.00  0.00     0.278 A 
HETATM   11  O3  UNL     1      24.558  61.431 -32.685  1.00  0.00    -0.265 OA
HETATM   12  N9  UNL     1      24.396  60.131 -30.872  1.00  0.00    -0.308 N 
ATOM     13  H9  UNL     1      24.609  60.909 -30.248  1.00  0.00     0.170 HD
ENDROOT
BRANCH   8  14
HETATM   14  C6  UNL     1      24.096  60.194 -35.397  1.00  0.00     0.256 C 
HETATM   15  O1  UNL     1      23.234  60.492 -36.243  1.00  0.00    -0.268 OA
HETATM   16  N7  UNL     1      25.305  60.939 -35.398  1.00  0.00    -0.348 N 
ATOM     17  H7  UNL     1      26.022  60.705 -34.711  1.00  0.00     0.163 HD
BRANCH  16  18
HETATM   18  C7  UNL     1      25.565  62.017 -36.332  1.00  0.00     0.140 C 
HETATM   19  C8  UNL     1      24.903  63.263 -35.809  1.00  0.00     0.260 C 
HETATM   20  N8  UNL     1      25.735  63.728 -34.739  1.00  0.00    -0.071 N 
HETATM   21  C9  UNL     1      27.020  63.088 -34.835  1.00  0.00     0.266 C 
ATOM     22  H82 UNL     1      25.807  64.745 -34.718  1.00  0.00     0.277 HD
ATOM     23  H81 UNL     1      25.302  63.596 -33.825  1.00  0.00     0.277 HD
HETATM   24  C10 UNL     1      27.046  62.375 -36.173  1.00  0.00     0.168 C 
BRANCH  24  25
HETATM   25  O2  UNL     1      27.757  61.193 -36.141  1.00  0.00    -0.392 OA
ATOM     26  H2  UNL     1      27.940  60.945 -37.040  1.00  0.00     0.210 HD
ENDBRANCH  24  25
ENDBRANCH  16  18
ENDBRANCH   8  14
BRANCH   1  27
HETATM   27  C2  UNL     1      24.195  58.605 -28.959  1.00  0.00     0.186 C 
HETATM   28  N3  UNL     1      24.411  57.194 -28.684  1.00  0.00    -0.320 N 
HETATM   29  N2  UNL     1      24.679  56.722 -27.402  1.00  0.00    -0.277 N 
ATOM     30  H3  UNL     1      24.365  56.529 -29.455  1.00  0.00     0.181 HD
HETATM   31  C1  UNL     1      24.990  57.602 -26.487  1.00  0.00     0.202 C 
ATOM     32  H2  UNL     1      24.635  55.726 -27.186  1.00  0.00     0.189 HD
HETATM   33  N1  UNL     1      25.277  57.224 -25.158  1.00  0.00    -0.062 NA
HETATM   34  N10 UNL     1      25.062  59.002 -26.777  1.00  0.00    -0.361 N 
HETATM   35  C13 UNL     1      25.201  59.384 -28.169  1.00  0.00     0.157 C 
ATOM     36  H10 UNL     1      25.019  59.702 -26.036  1.00  0.00     0.162 HD
ENDBRANCH   1  27
TORSDOF 4
ENDMDL
MODEL 2
REMARK VINA RESULT: -8.130297360      1.424      1.700
REMARK  4 active torsions:
REMARK  status: ('A' for Active; 'I' for Inactive)
REMARK    1  A    between atoms: C2_7  and  C3_8 
REMARK    2  A    between atoms: C5_15  and  C6_16 
REMARK       I    between atoms: C6_16  and  N7_18 
REMARK    3  A    between atoms: N7_18  and  C7_20 
REMARK    4  A    between atoms: C10_26  and  O2_27 
ROOT
HETATM    1  C3  UNL     1      24.470  59.734 -30.352  1.00  0.00     0.126 A 
HETATM    2  N4  UNL     1      23.705  59.205 -31.326  1.00  0.00    -0.265 N 
ATOM      3  H4  UNL     1      23.077  58.435 -31.092  1.00  0.00     0.190 HD
HETATM    4  N5  UNL     1      23.734  59.643 -32.567  1.00  0.00    -0.189 N 
HETATM    5  N6  UNL     1      23.082  59.288 -33.679  1.00  0.00    -0.289 N 
ATOM      6  H6  UNL     1      22.389  58.542 -33.738  1.00  0.00     0.188 HD
HETATM    7  C4  UNL     1      23.471  60.052 -34.697  1.00  0.00     0.129 A 
HETATM    8  C5  UNL     1      24.433  60.952 -34.202  1.00  0.00     0.084 A 
HETATM    9  C11 UNL     1      24.567  60.657 -32.858  1.00  0.00     0.159 A 
HETATM   10  C12 UNL     1      25.370  61.220 -31.864  1.00  0.00     0.278 A 
HETATM   11  O3  UNL     1      26.143  62.160 -32.133  1.00  0.00    -0.265 OA
HETATM   12  N9  UNL     1      25.319  60.752 -30.603  1.00  0.00    -0.308 N 
ATOM     13  H9  UNL     1      25.899  61.152 -29.866  1.00  0.00     0.170 HD
ENDROOT
BRANCH   8  14
HETATM   14  C6  UNL     1      25.128  61.973 -34.967  1.00  0.00     0.256 C 
HETATM   15  O1  UNL     1      24.552  62.869 -35.608  1.00  0.00    -0.268 OA
HETATM   16  N7  UNL     1      26.548  61.955 -34.990  1.00  0.00    -0.348 N 
ATOM     17  H7  UNL     1      27.035  61.225 -34.469  1.00  0.00     0.163 HD
BRANCH  16  18
HETATM   18  C7  UNL     1      27.335  62.928 -35.721  1.00  0.00     0.140 C 
HETATM   19  C8  UNL     1      27.530  64.133 -34.840  1.00  0.00     0.260 C 
HETATM   20  N8  UNL     1      28.526  63.758 -33.881  1.00  0.00    -0.071 N 
HETATM   21  C9  UNL     1      29.208  62.581 -34.350  1.00  0.00     0.266 C 
ATOM     22  H82 UNL     1      29.169  64.522 -33.670  1.00  0.00     0.277 HD
ATOM     23  H81 UNL     1      28.138  63.636 -32.946  1.00  0.00     0.277 HD
HETATM   24  C10 UNL     1      28.760  62.368 -35.783  1.00  0.00     0.168 C 
BRANCH  24  25
HETATM   25  O2  UNL     1      28.666  61.035 -36.127  1.00  0.00    -0.392 OA
ATOM     26  H2  UNL     1      27.918  60.942 -36.705  1.00  0.00     0.210 HD
ENDBRANCH  24  25
ENDBRANCH  16  18
ENDBRANCH   8  14
BRANCH   1  27
HETATM   27  C2  UNL     1      24.341  59.154 -29.015  1.00  0.00     0.186 C 
HETATM   28  N3  UNL     1      24.466  57.706 -29.027  1.00  0.00    -0.320 N 
HETATM   29  N2  UNL     1      24.575  56.962 -27.856  1.00  0.00    -0.277 N 
ATOM     30  H3  UNL     1      24.473  57.219 -29.923  1.00  0.00     0.181 HD
HETATM   31  C1  UNL     1      24.824  57.612 -26.749  1.00  0.00     0.202 C 
ATOM     32  H2  UNL     1      24.465  55.948 -27.861  1.00  0.00     0.189 HD
HETATM   33  N1  UNL     1      24.953  56.949 -25.509  1.00  0.00    -0.062 NA
HETATM   34  N10 UNL     1      24.988  59.034 -26.727  1.00  0.00    -0.361 N 
HETATM   35  C13 UNL     1      25.290  59.686 -27.986  1.00  0.00     0.157 C 
ATOM     36  H10 UNL     1      24.897  59.567 -25.861  1.00  0.00     0.162 HD
ENDBRANCH   1  27
TORSDOF 4
ENDMDL
MODEL 3
REMARK VINA RESULT: -7.999165697      2.893      4.959
REMARK  4 active torsions:
REMARK  status: ('A' for Active; 'I' for Inactive)
REMARK    1  A    between atoms: C2_7  and  C3_8 
REMARK    2  A    between atoms: C5_15  and  C6_16 
REMARK       I    between atoms: C6_16  and  N7_18 
REMARK    3  A    between atoms: N7_18  and  C7_20 
REMARK    4  A    between atoms: C10_26  and  O2_27 
ROOT
HETATM    1  C3  UNL     1      25.805  60.580 -29.542  1.00  0.00     0.126 A 
HETATM    2  N4  UNL     1      25.675  61.508 -30.510  1.00  0.00    -0.265 N 
ATOM      3  H4  UNL     1      26.074  62.435 -30.358  1.00  0.00     0.190 HD
HETATM    4  N5  UNL     1      25.053  61.267 -31.644  1.00  0.00    -0.189 N 
HETATM    5  N6  UNL     1      24.804  62.008 -32.729  1.00  0.00    -0.289 N 
ATOM      6  H6  UNL     1      25.090  62.979 -32.852  1.00  0.00     0.188 HD
HETATM    7  C4  UNL     1      24.129  61.291 -33.624  1.00  0.00     0.129 A 
HETATM    8  C5  UNL     1      23.934  60.011 -33.075  1.00  0.00     0.084 A 
HETATM    9  C11 UNL     1      24.531  60.041 -31.829  1.00  0.00     0.159 A 
HETATM   10  C12 UNL     1      24.654  59.065 -30.838  1.00  0.00     0.278 A 
HETATM   11  O3  UNL     1      24.169  57.929 -31.008  1.00  0.00    -0.265 OA
HETATM   12  N9  UNL     1      25.295  59.340 -29.688  1.00  0.00    -0.308 N 
ATOM     13  H9  UNL     1      25.392  58.638 -28.955  1.00  0.00     0.170 HD
ENDROOT
BRANCH   8  14
HETATM   14  C6  UNL     1      23.244  58.901 -33.709  1.00  0.00     0.256 C 
HETATM   15  O1  UNL     1      22.024  58.890 -33.948  1.00  0.00    -0.268 OA
HETATM   16  N7  UNL     1      23.998  57.756 -34.080  1.00  0.00    -0.348 N 
ATOM     17  H7  UNL     1      25.001  57.749 -33.888  1.00  0.00     0.163 HD
BRANCH  16  18
HETATM   18  C7  UNL     1      23.406  56.596 -34.718  1.00  0.00     0.140 C 
HETATM   19  C8  UNL     1      24.464  55.928 -35.554  1.00  0.00     0.260 C 
HETATM   20  N8  UNL     1      25.309  55.231 -34.630  1.00  0.00    -0.071 N 
HETATM   21  C9  UNL     1      24.627  55.115 -33.368  1.00  0.00     0.266 C 
ATOM     22  H82 UNL     1      25.617  54.328 -34.991  1.00  0.00     0.277 HD
ATOM     23  H81 UNL     1      26.226  55.668 -34.537  1.00  0.00     0.277 HD
HETATM   24  C10 UNL     1      23.197  55.557 -33.611  1.00  0.00     0.168 C 
BRANCH  24  25
HETATM   25  O2  UNL     1      22.644  56.210 -32.529  1.00  0.00    -0.392 OA
ATOM     26  H2  UNL     1      22.832  55.691 -31.756  1.00  0.00     0.210 HD
ENDBRANCH  24  25
ENDBRANCH  16  18
ENDBRANCH   8  14
BRANCH   1  27
HETATM   27  C2  UNL     1      26.518  60.980 -28.329  1.00  0.00     0.186 C 
HETATM   28  N3  UNL     1      27.103  59.845 -27.634  1.00  0.00    -0.320 N 
HETATM   29  N2  UNL     1      27.990  60.004 -26.573  1.00  0.00    -0.277 N 
ATOM     30  H3  UNL     1      26.856  58.902 -27.933  1.00  0.00     0.181 HD
HETATM   31  C1  UNL     1      28.490  61.196 -26.377  1.00  0.00     0.202 C 
ATOM     32  H2  UNL     1      28.240  59.220 -25.971  1.00  0.00     0.189 HD
HETATM   33  N1  UNL     1      29.397  61.460 -25.328  1.00  0.00    -0.062 NA
HETATM   34  N10 UNL     1      28.155  62.305 -27.218  1.00  0.00    -0.361 N 
HETATM   35  C13 UNL     1      27.594  62.003 -28.520  1.00  0.00     0.157 C 
ATOM     36  H10 UNL     1      28.303  63.267 -26.913  1.00  0.00     0.162 HD
ENDBRANCH   1  27
TORSDOF 4
ENDMDL
MODEL 4
REMARK VINA RESULT: -7.993769707      2.683      4.724
REMARK  4 active torsions:
REMARK  status: ('A' for Active; 'I' for Inactive)
REMARK    1  A    between atoms: C2_7  and  C3_8 
REMARK    2  A    between atoms: C5_15  and  C6_16 
REMARK       I    between atoms: C6_16  and  N7_18 
REMARK    3  A    between atoms: N7_18  and  C7_20 
REMARK    4  A    between atoms: C10_26  and  O2_27 
ROOT
HETATM    1  C3  UNL     1      24.319  56.449 -33.279  1.00  0.00     0.126 A 
HETATM    2  N4  UNL     1      24.162  57.027 -32.072  1.00  0.00    -0.265 N 
ATOM      3  H4  UNL     1      23.920  56.439 -31.275  1.00  0.00     0.190 HD
HETATM    4  N5  UNL     1      24.311  58.321 -31.882  1.00  0.00    -0.189 N 
HETATM    5  N6  UNL     1      24.212  59.106 -30.804  1.00  0.00    -0.289 N 
ATOM      6  H6  UNL     1      23.979  58.783 -29.865  1.00  0.00     0.188 HD
HETATM    7  C4  UNL     1      24.460  60.370 -31.137  1.00  0.00     0.129 A 
HETATM    8  C5  UNL     1      24.736  60.393 -32.516  1.00  0.00     0.084 A 
HETATM    9  C11 UNL     1      24.630  59.083 -32.943  1.00  0.00     0.159 A 
HETATM   10  C12 UNL     1      24.796  58.504 -34.203  1.00  0.00     0.278 A 
HETATM   11  O3  UNL     1      25.091  59.209 -35.188  1.00  0.00    -0.265 OA
HETATM   12  N9  UNL     1      24.639  57.178 -34.368  1.00  0.00    -0.308 N 
ATOM     13  H9  UNL     1      24.756  56.741 -35.282  1.00  0.00     0.170 HD
ENDROOT
BRANCH   8  14
HETATM   14  C6  UNL     1      25.064  61.566 -33.307  1.00  0.00     0.256 C 
HETATM   15  O1  UNL     1      24.290  62.526 -33.476  1.00  0.00    -0.268 OA
HETATM   16  N7  UNL     1      26.339  61.632 -33.928  1.00  0.00    -0.348 N 
ATOM     17  H7  UNL     1      26.985  60.852 -33.800  1.00  0.00     0.163 HD
BRANCH  16  18
HETATM   18  C7  UNL     1      26.764  62.758 -34.737  1.00  0.00     0.140 C 
HETATM   19  C8  UNL     1      28.263  62.860 -34.650  1.00  0.00     0.260 C 
HETATM   20  N8  UNL     1      28.775  61.816 -35.487  1.00  0.00    -0.071 N 
HETATM   21  C9  UNL     1      27.724  61.354 -36.354  1.00  0.00     0.266 C 
ATOM     22  H82 UNL     1      29.606  62.104 -36.003  1.00  0.00     0.277 HD
ATOM     23  H81 UNL     1      29.196  61.059 -34.949  1.00  0.00     0.277 HD
HETATM   24  C10 UNL     1      26.577  62.333 -36.197  1.00  0.00     0.168 C 
BRANCH  24  25
HETATM   25  O2  UNL     1      25.338  61.734 -36.298  1.00  0.00    -0.392 OA
ATOM     26  H2  UNL     1      24.691  62.365 -36.004  1.00  0.00     0.210 HD
ENDBRANCH  24  25
ENDBRANCH  16  18
ENDBRANCH   8  14
BRANCH   1  27
HETATM   27  C2  UNL     1      24.125  55.001 -33.353  1.00  0.00     0.186 C 
HETATM   28  N3  UNL     1      24.002  54.393 -32.039  1.00  0.00    -0.320 N 
HETATM   29  N2  UNL     1      23.615  53.066 -31.871  1.00  0.00    -0.277 N 
ATOM     30  H3  UNL     1      24.207  54.955 -31.214  1.00  0.00     0.181 HD
HETATM   31  C1  UNL     1      23.112  52.448 -32.907  1.00  0.00     0.202 C 
ATOM     32  H2  UNL     1      23.720  52.594 -30.972  1.00  0.00     0.189 HD
HETATM   33  N1  UNL     1      22.691  51.102 -32.839  1.00  0.00    -0.062 NA
HETATM   34  N10 UNL     1      22.952  53.098 -34.172  1.00  0.00    -0.361 N 
HETATM   35  C13 UNL     1      22.960  54.548 -34.177  1.00  0.00     0.157 C 
ATOM     36  H10 UNL     1      22.837  52.564 -35.034  1.00  0.00     0.162 HD
ENDBRANCH   1  27
TORSDOF 4
ENDMDL
MODEL 5
REMARK VINA RESULT: -7.810748811      2.624      4.694
REMARK  4 active torsions:
REMARK  status: ('A' for Active; 'I' for Inactive)
REMARK    1  A    between atoms: C2_7  and  C3_8 
REMARK    2  A    between atoms: C5_15  and  C6_16 
REMARK       I    between atoms: C6_16  and  N7_18 
REMARK    3  A    between atoms: N7_18  and  C7_20 
REMARK    4  A    between atoms: C10_26  and  O2_27 
ROOT
HETATM    1  C3  UNL     1      24.378  56.729 -33.150  1.00  0.00     0.126 A 
HETATM    2  N4  UNL     1      24.246  57.234 -31.908  1.00  0.00    -0.265 N 
ATOM      3  H4  UNL     1      24.006  56.603 -31.144  1.00  0.00     0.190 HD
HETATM    4  N5  UNL     1      24.415  58.512 -31.642  1.00  0.00    -0.189 N 
HETATM    5  N6  UNL     1      24.343  59.232 -30.518  1.00  0.00    -0.289 N 
ATOM      6  H6  UNL     1      24.119  58.856 -29.597  1.00  0.00     0.188 HD
HETATM    7  C4  UNL     1      24.605  60.510 -30.778  1.00  0.00     0.129 A 
HETATM    8  C5  UNL     1      24.861  60.613 -32.157  1.00  0.00     0.084 A 
HETATM    9  C11 UNL     1      24.731  59.333 -32.660  1.00  0.00     0.159 A 
HETATM   10  C12 UNL     1      24.871  58.829 -33.956  1.00  0.00     0.278 A 
HETATM   11  O3  UNL     1      25.162  59.588 -34.900  1.00  0.00    -0.265 OA
HETATM   12  N9  UNL     1      24.692  57.517 -34.198  1.00  0.00    -0.308 N 
ATOM     13  H9  UNL     1      24.791  57.135 -35.138  1.00  0.00     0.170 HD
ENDROOT
BRANCH   8  14
HETATM   14  C6  UNL     1      25.194  61.828 -32.881  1.00  0.00     0.256 C 
HETATM   15  O1  UNL     1      24.386  62.748 -33.098  1.00  0.00    -0.268 OA
HETATM   16  N7  UNL     1      26.517  61.983 -33.373  1.00  0.00    -0.348 N 
ATOM     17  H7  UNL     1      27.192  61.236 -33.204  1.00  0.00     0.163 HD
BRANCH  16  18
HETATM   18  C7  UNL     1      26.952  63.157 -34.106  1.00  0.00     0.140 C 
HETATM   19  C8  UNL     1      27.706  64.051 -33.159  1.00  0.00     0.260 C 
HETATM   20  N8  UNL     1      28.991  63.442 -32.987  1.00  0.00    -0.071 N 
HETATM   21  C9  UNL     1      29.198  62.481 -34.039  1.00  0.00     0.266 C 
ATOM     22  H82 UNL     1      29.743  64.129 -32.935  1.00  0.00     0.277 HD
ATOM     23  H81 UNL     1      29.107  63.033 -32.060  1.00  0.00     0.277 HD
HETATM   24  C10 UNL     1      28.075  62.690 -35.037  1.00  0.00     0.168 C 
BRANCH  24  25
HETATM   25  O2  UNL     1      27.659  61.517 -35.633  1.00  0.00    -0.392 OA
ATOM     26  H2  UNL     1      27.548  60.871 -34.945  1.00  0.00     0.210 HD
ENDBRANCH  24  25
ENDBRANCH  16  18
ENDBRANCH   8  14
BRANCH   1  27
HETATM   27  C2  UNL     1      24.162  55.291 -33.309  1.00  0.00     0.186 C 
HETATM   28  N3  UNL     1      24.181  54.586 -32.038  1.00  0.00    -0.320 N 
HETATM   29  N2  UNL     1      23.802  53.251 -31.925  1.00  0.00    -0.277 N 
ATOM     30  H3  UNL     1      24.482  55.085 -31.201  1.00  0.00     0.181 HD
HETATM   31  C1  UNL     1      23.180  52.712 -32.941  1.00  0.00     0.202 C 
ATOM     32  H2  UNL     1      24.002  52.714 -31.081  1.00  0.00     0.189 HD
HETATM   33  N1  UNL     1      22.755  51.366 -32.925  1.00  0.00    -0.062 NA
HETATM   34  N10 UNL     1      22.886  53.455 -34.129  1.00  0.00    -0.361 N 
HETATM   35  C13 UNL     1      22.908  54.902 -34.028  1.00  0.00     0.157 C 
ATOM     36  H10 UNL     1      22.670  52.987 -35.009  1.00  0.00     0.162 HD
ENDBRANCH   1  27
TORSDOF 4
ENDMDL
