MODEL 1
REMARK VINA RESULT: -8.081323066      0.000      0.000
REMARK  9 active torsions:
REMARK  status: ('A' for Active; 'I' for Inactive)
REMARK    1  A    between atoms: C4_11  and  C5_12 
REMARK    2  A    between atoms: C5_12  and  N4_13 
REMARK    3  A    between atoms: N4_13  and  N5_14 
REMARK    4  A    between atoms: N5_14  and  C6_16 
REMARK    5  A    between atoms: N9_27  and  C10_28 
REMARK    6  A    between atoms: C10_28  and  O4_29 
REMARK    7  A    between atoms: O4_29  and  C11_30 
REMARK    8  A    between atoms: C11_30  and  O5_31 
REMARK    9  A    between atoms: C11_30  and  O6_33 
ROOT
HETATM    1  C6  UNL     1      27.938  61.714 -27.496  1.00  0.00     0.163 A 
HETATM    2  N6  UNL     1      28.025  63.038 -27.635  1.00  0.00    -0.335 N 
ATOM      3  H6  UNL     1      27.367  63.541 -28.231  1.00  0.00     0.168 HD
HETATM    4  C7  UNL     1      29.014  63.713 -26.962  1.00  0.00     0.183 A 
HETATM    5  N7  UNL     1      29.887  63.072 -26.168  1.00  0.00    -0.336 N 
ATOM      6  H7  UNL     1      30.608  63.605 -25.682  1.00  0.00     0.168 HD
HETATM    7  C8  UNL     1      29.829  61.731 -26.002  1.00  0.00     0.141 A 
HETATM    8  N8  UNL     1      30.516  60.833 -25.272  1.00  0.00    -0.292 N 
ATOM      9  H8  UNL     1      31.306  61.027 -24.658  1.00  0.00     0.172 HD
HETATM   10  C9  UNL     1      29.947  59.605 -25.514  1.00  0.00     0.330 A 
HETATM   11  O3  UNL     1      30.376  58.574 -24.965  1.00  0.00    -0.246 OA
HETATM   12  N9  UNL     1      28.927  59.740 -26.378  1.00  0.00    -0.270 N 
HETATM   13  C12 UNL     1      28.849  61.027 -26.669  1.00  0.00     0.131 A 
ENDROOT
BRANCH   1  14
HETATM   14  N5  UNL     1      26.998  61.004 -27.961  1.00  0.00    -0.217 N 
ATOM     15  H5  UNL     1      27.007  60.092 -27.503  1.00  0.00     0.203 HD
BRANCH  14  16
HETATM   16  N4  UNL     1      26.067  61.039 -28.788  1.00  0.00    -0.336 NA
BRANCH  16  17
HETATM   17  C5  UNL     1      25.143  60.859 -29.525  1.00  0.00     0.229 C 
BRANCH  17  18
HETATM   18  C4  UNL     1      24.482  60.088 -30.498  1.00  0.00     0.104 A 
HETATM   19  C1  UNL     1      24.467  60.577 -31.817  1.00  0.00     0.138 A 
HETATM   20  N1  UNL     1      25.036  61.852 -32.130  1.00  0.00    -0.081 NA
HETATM   21  N2  UNL     1      23.892  59.835 -32.771  1.00  0.00    -0.296 N 
HETATM   22  C2  UNL     1      23.331  58.642 -32.498  1.00  0.00     0.328 A 
ATOM     23  H2  UNL     1      23.879  60.183 -33.730  1.00  0.00     0.171 HD
HETATM   24  O1  UNL     1      22.802  57.997 -33.446  1.00  0.00    -0.247 OA
HETATM   25  N3  UNL     1      23.325  58.145 -31.252  1.00  0.00    -0.275 N 
HETATM   26  C3  UNL     1      23.890  58.845 -30.253  1.00  0.00     0.265 A 
ATOM     27  H3  UNL     1      22.895  57.240 -31.063  1.00  0.00     0.173 HD
HETATM   28  O2  UNL     1      23.878  58.360 -29.078  1.00  0.00    -0.267 OA
ENDBRANCH  17  18
ENDBRANCH  16  17
ENDBRANCH  14  16
ENDBRANCH   1  14
BRANCH  12  29
HETATM   29  C10 UNL     1      28.192  58.635 -26.933  1.00  0.00     0.309 C 
BRANCH  29  30
HETATM   30  O4  UNL     1      27.128  58.332 -26.087  1.00  0.00    -0.319 OA
BRANCH  30  31
HETATM   31  C11 UNL     1      25.971  57.885 -26.531  1.00  0.00     0.409 C 
BRANCH  31  32
HETATM   32  O5  UNL     1      25.308  56.965 -25.684  1.00  0.00    -0.350 OA
ATOM     33  H5  UNL     1      25.081  56.133 -26.082  1.00  0.00     0.215 HD
ENDBRANCH  31  32
BRANCH  31  34
HETATM   34  O6  UNL     1      25.088  59.011 -26.613  1.00  0.00    -0.350 OA
ATOM     35  H6  UNL     1      24.267  58.697 -26.974  1.00  0.00     0.215 HD
ENDBRANCH  31  34
ENDBRANCH  30  31
ENDBRANCH  29  30
ENDBRANCH  12  29
TORSDOF 9
ENDMDL
MODEL 2
REMARK VINA RESULT: -7.970346368      2.654      7.589
REMARK  9 active torsions:
REMARK  status: ('A' for Active; 'I' for Inactive)
REMARK    1  A    between atoms: C4_11  and  C5_12 
REMARK    2  A    between atoms: C5_12  and  N4_13 
REMARK    3  A    between atoms: N4_13  and  N5_14 
REMARK    4  A    between atoms: N5_14  and  C6_16 
REMARK    5  A    between atoms: N9_27  and  C10_28 
REMARK    6  A    between atoms: C10_28  and  O4_29 
REMARK    7  A    between atoms: O4_29  and  C11_30 
REMARK    8  A    between atoms: C11_30  and  O5_31 
REMARK    9  A    between atoms: C11_30  and  O6_33 
ROOT
HETATM    1  C6  UNL     1      24.573  62.783 -32.752  1.00  0.00     0.163 A 
HETATM    2  N6  UNL     1      24.334  64.070 -32.494  1.00  0.00    -0.335 N 
ATOM      3  H6  UNL     1      24.695  64.504 -31.644  1.00  0.00     0.168 HD
HETATM    4  C7  UNL     1      23.593  64.800 -33.391  1.00  0.00     0.183 A 
HETATM    5  N7  UNL     1      23.112  64.250 -34.518  1.00  0.00    -0.336 N 
ATOM      6  H7  UNL     1      22.567  64.822 -35.163  1.00  0.00     0.168 HD
HETATM    7  C8  UNL     1      23.337  62.949 -34.814  1.00  0.00     0.141 A 
HETATM    8  N8  UNL     1      23.028  62.143 -35.845  1.00  0.00    -0.292 N 
ATOM      9  H8  UNL     1      22.492  62.395 -36.675  1.00  0.00     0.172 HD
HETATM   10  C9  UNL     1      23.575  60.913 -35.566  1.00  0.00     0.330 A 
HETATM   11  O3  UNL     1      23.455  59.957 -36.354  1.00  0.00    -0.246 OA
HETATM   12  N9  UNL     1      24.210  60.957 -34.382  1.00  0.00    -0.270 N 
HETATM   13  C12 UNL     1      24.073  62.191 -33.929  1.00  0.00     0.131 A 
ENDROOT
BRANCH   1  14
HETATM   14  N5  UNL     1      25.345  62.045 -32.069  1.00  0.00    -0.217 N 
ATOM     15  H5  UNL     1      26.155  61.792 -32.634  1.00  0.00     0.203 HD
BRANCH  14  16
HETATM   16  N4  UNL     1      25.451  61.525 -30.942  1.00  0.00    -0.336 NA
BRANCH  16  17
HETATM   17  C5  UNL     1      25.371  61.148 -29.811  1.00  0.00     0.229 C 
BRANCH  17  18
HETATM   18  C4  UNL     1      25.325  60.110 -28.863  1.00  0.00     0.104 A 
HETATM   19  C1  UNL     1      26.192  60.196 -27.759  1.00  0.00     0.138 A 
HETATM   20  N1  UNL     1      27.140  61.263 -27.656  1.00  0.00    -0.081 NA
HETATM   21  N2  UNL     1      26.127  59.249 -26.816  1.00  0.00    -0.296 N 
HETATM   22  C2  UNL     1      25.258  58.224 -26.900  1.00  0.00     0.328 A 
ATOM     23  H2  UNL     1      26.752  59.305 -26.012  1.00  0.00     0.171 HD
HETATM   24  O1  UNL     1      25.254  57.363 -25.976  1.00  0.00    -0.247 OA
HETATM   25  N3  UNL     1      24.417  58.109 -27.939  1.00  0.00    -0.275 N 
HETATM   26  C3  UNL     1      24.436  59.032 -28.916  1.00  0.00     0.265 A 
ATOM     27  H3  UNL     1      23.766  57.325 -27.987  1.00  0.00     0.173 HD
HETATM   28  O2  UNL     1      23.632  58.910 -29.894  1.00  0.00    -0.267 OA
ENDBRANCH  17  18
ENDBRANCH  16  17
ENDBRANCH  14  16
ENDBRANCH   1  14
BRANCH  12  29
HETATM   29  C10 UNL     1      24.791  59.810 -33.738  1.00  0.00     0.309 C 
BRANCH  29  30
HETATM   30  O4  UNL     1      23.802  59.154 -33.009  1.00  0.00    -0.319 OA
BRANCH  30  31
HETATM   31  C11 UNL     1      23.474  57.897 -33.225  1.00  0.00     0.409 C 
BRANCH  31  32
HETATM   32  O5  UNL     1      23.000  57.188 -32.095  1.00  0.00    -0.350 OA
ATOM     33  H5  UNL     1      23.313  57.502 -31.255  1.00  0.00     0.215 HD
ENDBRANCH  31  32
BRANCH  31  34
HETATM   34  O6  UNL     1      22.375  57.900 -34.145  1.00  0.00    -0.350 OA
ATOM     35  H6  UNL     1      21.893  58.705 -34.003  1.00  0.00     0.215 HD
ENDBRANCH  31  34
ENDBRANCH  30  31
ENDBRANCH  29  30
ENDBRANCH  12  29
TORSDOF 9
ENDMDL
MODEL 3
REMARK VINA RESULT: -7.921042132      1.038      1.616
REMARK  9 active torsions:
REMARK  status: ('A' for Active; 'I' for Inactive)
REMARK    1  A    between atoms: C4_11  and  C5_12 
REMARK    2  A    between atoms: C5_12  and  N4_13 
REMARK    3  A    between atoms: N4_13  and  N5_14 
REMARK    4  A    between atoms: N5_14  and  C6_16 
REMARK    5  A    between atoms: N9_27  and  C10_28 
REMARK    6  A    between atoms: C10_28  and  O4_29 
REMARK    7  A    between atoms: O4_29  and  C11_30 
REMARK    8  A    between atoms: C11_30  and  O5_31 
REMARK    9  A    between atoms: C11_30  and  O6_33 
ROOT
HETATM    1  C6  UNL     1      27.914  61.704 -27.522  1.00  0.00     0.163 A 
HETATM    2  N6  UNL     1      27.997  63.027 -27.669  1.00  0.00    -0.335 N 
ATOM      3  H6  UNL     1      27.341  63.525 -28.271  1.00  0.00     0.168 HD
HETATM    4  C7  UNL     1      28.981  63.710 -26.995  1.00  0.00     0.183 A 
HETATM    5  N7  UNL     1      29.853  63.075 -26.193  1.00  0.00    -0.336 N 
ATOM      6  H7  UNL     1      30.570  63.614 -25.707  1.00  0.00     0.168 HD
HETATM    7  C8  UNL     1      29.797  61.735 -26.019  1.00  0.00     0.141 A 
HETATM    8  N8  UNL     1      30.484  60.844 -25.282  1.00  0.00    -0.292 N 
ATOM      9  H8  UNL     1      31.271  61.043 -24.665  1.00  0.00     0.172 HD
HETATM   10  C9  UNL     1      29.920  59.613 -25.519  1.00  0.00     0.330 A 
HETATM   11  O3  UNL     1      30.350  58.586 -24.962  1.00  0.00    -0.246 OA
HETATM   12  N9  UNL     1      28.904  59.740 -26.388  1.00  0.00    -0.270 N 
HETATM   13  C12 UNL     1      28.823  61.025 -26.687  1.00  0.00     0.131 A 
ENDROOT
BRANCH   1  14
HETATM   14  N5  UNL     1      26.978  60.988 -27.988  1.00  0.00    -0.217 N 
ATOM     15  H5  UNL     1      26.841  60.179 -27.382  1.00  0.00     0.203 HD
BRANCH  14  16
HETATM   16  N4  UNL     1      26.168  60.936 -28.933  1.00  0.00    -0.336 NA
BRANCH  16  17
HETATM   17  C5  UNL     1      25.237  60.865 -29.679  1.00  0.00     0.229 C 
BRANCH  17  18
HETATM   18  C4  UNL     1      24.602  60.299 -30.799  1.00  0.00     0.104 A 
HETATM   19  C1  UNL     1      23.924  59.080 -30.616  1.00  0.00     0.138 A 
HETATM   20  N1  UNL     1      23.956  58.408 -29.353  1.00  0.00    -0.081 NA
HETATM   21  N2  UNL     1      23.265  58.550 -31.654  1.00  0.00    -0.296 N 
HETATM   22  C2  UNL     1      23.238  59.152 -32.858  1.00  0.00     0.328 A 
ATOM     23  H2  UNL     1      22.770  57.667 -31.529  1.00  0.00     0.171 HD
HETATM   24  O1  UNL     1      22.600  58.593 -33.794  1.00  0.00    -0.247 OA
HETATM   25  N3  UNL     1      23.873  60.315 -33.068  1.00  0.00    -0.275 N 
HETATM   26  C3  UNL     1      24.550  60.895 -32.063  1.00  0.00     0.265 A 
ATOM     27  H3  UNL     1      23.843  60.756 -33.987  1.00  0.00     0.173 HD
HETATM   28  O2  UNL     1      25.147  61.997 -32.277  1.00  0.00    -0.267 OA
ENDBRANCH  17  18
ENDBRANCH  16  17
ENDBRANCH  14  16
ENDBRANCH   1  14
BRANCH  12  29
HETATM   29  C10 UNL     1      28.175  58.629 -26.941  1.00  0.00     0.309 C 
BRANCH  29  30
HETATM   30  O4  UNL     1      27.088  58.349 -26.114  1.00  0.00    -0.319 OA
BRANCH  30  31
HETATM   31  C11 UNL     1      25.945  57.886 -26.575  1.00  0.00     0.409 C 
BRANCH  31  32
HETATM   32  O5  UNL     1      25.265  56.984 -25.722  1.00  0.00    -0.350 OA
ATOM     33  H5  UNL     1      25.319  57.179 -24.794  1.00  0.00     0.215 HD
ENDBRANCH  31  32
BRANCH  31  34
HETATM   34  O6  UNL     1      25.060  59.004 -26.709  1.00  0.00    -0.350 OA
ATOM     35  H6  UNL     1      24.214  58.734 -26.373  1.00  0.00     0.215 HD
ENDBRANCH  31  34
ENDBRANCH  30  31
ENDBRANCH  29  30
ENDBRANCH  12  29
TORSDOF 9
ENDMDL
MODEL 4
REMARK VINA RESULT: -7.810566603      2.786      7.284
REMARK  9 active torsions:
REMARK  status: ('A' for Active; 'I' for Inactive)
REMARK    1  A    between atoms: C4_11  and  C5_12 
REMARK    2  A    between atoms: C5_12  and  N4_13 
REMARK    3  A    between atoms: N4_13  and  N5_14 
REMARK    4  A    between atoms: N5_14  and  C6_16 
REMARK    5  A    between atoms: N9_27  and  C10_28 
REMARK    6  A    between atoms: C10_28  and  O4_29 
REMARK    7  A    between atoms: O4_29  and  C11_30 
REMARK    8  A    between atoms: C11_30  and  O5_31 
REMARK    9  A    between atoms: C11_30  and  O6_33 
ROOT
HETATM    1  C6  UNL     1      27.365  61.519 -28.945  1.00  0.00     0.163 A 
HETATM    2  N6  UNL     1      28.157  62.171 -29.798  1.00  0.00    -0.335 N 
ATOM      3  H6  UNL     1      28.913  62.764 -29.455  1.00  0.00     0.168 HD
HETATM    4  C7  UNL     1      27.938  62.031 -31.147  1.00  0.00     0.183 A 
HETATM    5  N7  UNL     1      26.951  61.252 -31.621  1.00  0.00    -0.336 N 
ATOM      6  H7  UNL     1      26.818  61.169 -32.629  1.00  0.00     0.168 HD
HETATM    7  C8  UNL     1      26.131  60.574 -30.786  1.00  0.00     0.141 A 
HETATM    8  N8  UNL     1      25.108  59.716 -30.949  1.00  0.00    -0.292 N 
ATOM      9  H8  UNL     1      24.713  59.402 -31.835  1.00  0.00     0.172 HD
HETATM   10  C9  UNL     1      24.697  59.343 -29.690  1.00  0.00     0.330 A 
HETATM   11  O3  UNL     1      23.758  58.542 -29.527  1.00  0.00    -0.246 OA
HETATM   12  N9  UNL     1      25.451  59.960 -28.766  1.00  0.00    -0.270 N 
HETATM   13  C12 UNL     1      26.325  60.701 -29.427  1.00  0.00     0.131 A 
ENDROOT
BRANCH   1  14
HETATM   14  N5  UNL     1      27.548  61.469 -27.692  1.00  0.00    -0.217 N 
ATOM     15  H5  UNL     1      27.017  60.688 -27.306  1.00  0.00     0.203 HD
BRANCH  14  16
HETATM   16  N4  UNL     1      28.155  62.049 -26.772  1.00  0.00    -0.336 NA
BRANCH  16  17
HETATM   17  C5  UNL     1      28.888  62.654 -26.047  1.00  0.00     0.229 C 
BRANCH  17  18
HETATM   18  C4  UNL     1      29.159  63.755 -25.215  1.00  0.00     0.104 A 
HETATM   19  C1  UNL     1      29.697  64.908 -25.815  1.00  0.00     0.138 A 
HETATM   20  N1  UNL     1      30.030  64.920 -27.207  1.00  0.00    -0.081 NA
HETATM   21  N2  UNL     1      29.911  65.988 -25.054  1.00  0.00    -0.296 N 
HETATM   22  C2  UNL     1      29.626  65.994 -23.738  1.00  0.00     0.328 A 
ATOM     23  H2  UNL     1      30.300  66.828 -25.482  1.00  0.00     0.171 HD
HETATM   24  O1  UNL     1      29.858  67.047 -23.080  1.00  0.00    -0.247 OA
HETATM   25  N3  UNL     1      29.112  64.913 -23.132  1.00  0.00    -0.275 N 
HETATM   26  C3  UNL     1      28.875  63.800 -23.847  1.00  0.00     0.265 A 
ATOM     27  H3  UNL     1      28.904  64.936 -22.134  1.00  0.00     0.173 HD
HETATM   28  O2  UNL     1      28.387  62.783 -23.259  1.00  0.00    -0.267 OA
ENDBRANCH  17  18
ENDBRANCH  16  17
ENDBRANCH  14  16
ENDBRANCH   1  14
BRANCH  12  29
HETATM   29  C10 UNL     1      25.212  59.882 -27.350  1.00  0.00     0.309 C 
BRANCH  29  30
HETATM   30  O4  UNL     1      25.769  58.702 -26.863  1.00  0.00    -0.319 OA
BRANCH  30  31
HETATM   31  C11 UNL     1      25.084  57.832 -26.151  1.00  0.00     0.409 C 
BRANCH  31  32
HETATM   32  O5  UNL     1      24.208  56.998 -26.887  1.00  0.00    -0.350 OA
ATOM     33  H5  UNL     1      23.540  57.449 -27.391  1.00  0.00     0.215 HD
ENDBRANCH  31  32
BRANCH  31  34
HETATM   34  O6  UNL     1      26.029  56.936 -25.555  1.00  0.00    -0.350 OA
ATOM     35  H6  UNL     1      26.183  56.236 -26.178  1.00  0.00     0.215 HD
ENDBRANCH  31  34
ENDBRANCH  30  31
ENDBRANCH  29  30
ENDBRANCH  12  29
TORSDOF 9
ENDMDL
MODEL 5
REMARK VINA RESULT: -7.768976774      2.576      7.714
REMARK  9 active torsions:
REMARK  status: ('A' for Active; 'I' for Inactive)
REMARK    1  A    between atoms: C4_11  and  C5_12 
REMARK    2  A    between atoms: C5_12  and  N4_13 
REMARK    3  A    between atoms: N4_13  and  N5_14 
REMARK    4  A    between atoms: N5_14  and  C6_16 
REMARK    5  A    between atoms: N9_27  and  C10_28 
REMARK    6  A    between atoms: C10_28  and  O4_29 
REMARK    7  A    between atoms: O4_29  and  C11_30 
REMARK    8  A    between atoms: C11_30  and  O5_31 
REMARK    9  A    between atoms: C11_30  and  O6_33 
ROOT
HETATM    1  C6  UNL     1      24.529  62.982 -32.706  1.00  0.00     0.163 A 
HETATM    2  N6  UNL     1      24.277  64.261 -32.417  1.00  0.00    -0.335 N 
ATOM      3  H6  UNL     1      24.646  64.682 -31.565  1.00  0.00     0.168 HD
HETATM    4  C7  UNL     1      23.514  65.000 -33.288  1.00  0.00     0.183 A 
HETATM    5  N7  UNL     1      23.022  64.465 -34.418  1.00  0.00    -0.336 N 
ATOM      6  H7  UNL     1      22.460  65.044 -35.043  1.00  0.00     0.168 HD
HETATM    7  C8  UNL     1      23.258  63.174 -34.744  1.00  0.00     0.141 A 
HETATM    8  N8  UNL     1      22.944  62.385 -35.786  1.00  0.00    -0.292 N 
ATOM      9  H8  UNL     1      22.391  62.647 -36.602  1.00  0.00     0.172 HD
HETATM   10  C9  UNL     1      23.510  61.156 -35.540  1.00  0.00     0.330 A 
HETATM   11  O3  UNL     1      23.389  60.215 -36.345  1.00  0.00    -0.246 OA
HETATM   12  N9  UNL     1      24.163  61.185 -34.366  1.00  0.00    -0.270 N 
HETATM   13  C12 UNL     1      24.018  62.408 -33.886  1.00  0.00     0.131 A 
ENDROOT
BRANCH   1  14
HETATM   14  N5  UNL     1      25.320  62.242 -32.049  1.00  0.00    -0.217 N 
ATOM     15  H5  UNL     1      26.122  62.005 -32.634  1.00  0.00     0.203 HD
BRANCH  14  16
HETATM   16  N4  UNL     1      25.453  61.704 -30.934  1.00  0.00    -0.336 NA
BRANCH  16  17
HETATM   17  C5  UNL     1      25.398  61.307 -29.807  1.00  0.00     0.229 C 
BRANCH  17  18
HETATM   18  C4  UNL     1      25.806  60.416 -28.799  1.00  0.00     0.104 A 
HETATM   19  C1  UNL     1      25.088  59.214 -28.661  1.00  0.00     0.138 A 
HETATM   20  N1  UNL     1      23.936  58.955 -29.469  1.00  0.00    -0.081 NA
HETATM   21  N2  UNL     1      25.492  58.326 -27.745  1.00  0.00    -0.296 N 
HETATM   22  C2  UNL     1      26.560  58.556 -26.958  1.00  0.00     0.328 A 
ATOM     23  H2  UNL     1      24.977  57.452 -27.641  1.00  0.00     0.171 HD
HETATM   24  O1  UNL     1      26.882  57.675 -26.112  1.00  0.00    -0.247 OA
HETATM   25  N3  UNL     1      27.268  59.691 -27.061  1.00  0.00    -0.275 N 
HETATM   26  C3  UNL     1      26.910  60.619 -27.965  1.00  0.00     0.265 A 
ATOM     27  H3  UNL     1      28.073  59.848 -26.456  1.00  0.00     0.173 HD
HETATM   28  O2  UNL     1      27.591  61.689 -28.051  1.00  0.00    -0.267 OA
ENDBRANCH  17  18
ENDBRANCH  16  17
ENDBRANCH  14  16
ENDBRANCH   1  14
BRANCH  12  29
HETATM   29  C10 UNL     1      24.768  60.033 -33.755  1.00  0.00     0.309 C 
BRANCH  29  30
HETATM   30  O4  UNL     1      23.844  59.440 -32.897  1.00  0.00    -0.319 OA
BRANCH  30  31
HETATM   31  C11 UNL     1      23.440  58.195 -33.038  1.00  0.00     0.409 C 
BRANCH  31  32
HETATM   32  O5  UNL     1      22.899  57.595 -31.875  1.00  0.00    -0.350 OA
ATOM     33  H5  UNL     1      21.989  57.332 -31.937  1.00  0.00     0.215 HD
ENDBRANCH  31  32
BRANCH  31  34
HETATM   34  O6  UNL     1      22.362  58.205 -33.982  1.00  0.00    -0.350 OA
ATOM     35  H6  UNL     1      21.568  58.398 -33.498  1.00  0.00     0.215 HD
ENDBRANCH  31  34
ENDBRANCH  30  31
ENDBRANCH  29  30
ENDBRANCH  12  29
TORSDOF 9
ENDMDL
