MODEL 1
REMARK VINA RESULT: -7.947013098      0.000      0.000
REMARK  10 active torsions:
REMARK  status: ('A' for Active; 'I' for Inactive)
REMARK    1  A    between atoms: C2_3  and  C3_4 
REMARK    2  A    between atoms: C3_4  and  O2_6 
REMARK    3  A    between atoms: O2_6  and  C4_7 
REMARK    4  A    between atoms: C4_7  and  C5_8 
REMARK    5  A    between atoms: C5_8  and  N2_9 
REMARK    6  A    between atoms: C5_8  and  C6_13 
REMARK    7  A    between atoms: C7_17  and  C8_18 
REMARK    8  A    between atoms: C8_18  and  O4_19 
REMARK    9  A    between atoms: C8_18  and  N5_21 
REMARK   10  A    between atoms: N5_21  and  N6_23 
ROOT
HETATM    1  C1  UNL     1      28.983  62.687 -28.421  1.00  0.00     0.182 C 
HETATM    2  N1  UNL     1      28.084  61.597 -28.120  1.00  0.00    -0.251 N 
HETATM    3  C2  UNL     1      28.004  60.670 -27.095  1.00  0.00     0.224 A 
HETATM    4  N4  UNL     1      26.916  60.147 -27.672  1.00  0.00    -0.204 N 
HETATM    5  C7  UNL     1      25.925  59.219 -27.737  1.00  0.00     0.138 A 
HETATM    6  C9  UNL     1      25.049  59.238 -28.840  1.00  0.00     0.095 A 
HETATM    7  N7  UNL     1      24.000  58.268 -28.918  1.00  0.00    -0.099 NA
HETATM    8  C10 UNL     1      25.194  60.176 -29.818  1.00  0.00     0.056 A 
HETATM    9  C11 UNL     1      24.512  60.447 -30.988  1.00  0.00     0.124 A 
HETATM   10  N8  UNL     1      25.107  61.508 -31.560  1.00  0.00    -0.309 N 
ATOM     11  H8  UNL     1      24.833  61.950 -32.438  1.00  0.00     0.186 HD
HETATM   12  N9  UNL     1      26.107  61.876 -30.784  1.00  0.00    -0.282 N 
ATOM     13  H9  UNL     1      26.729  62.660 -30.983  1.00  0.00     0.188 HD
HETATM   14  C12 UNL     1      26.206  61.093 -29.702  1.00  0.00     0.174 A 
HETATM   15  N10 UNL     1      27.030  61.037 -28.625  1.00  0.00    -0.165 N 
ENDROOT
BRANCH   3  16
HETATM   16  C3  UNL     1      28.881  60.422 -25.971  1.00  0.00     0.331 C 
HETATM   17  O1  UNL     1      29.160  61.117 -24.998  1.00  0.00    -0.256 OA
BRANCH  16  18
HETATM   18  O2  UNL     1      29.563  59.180 -25.920  1.00  0.00    -0.313 OA
BRANCH  18  19
HETATM   19  C4  UNL     1      30.457  58.702 -26.860  1.00  0.00     0.221 C 
BRANCH  19  20
HETATM   20  C5  UNL     1      31.227  57.471 -26.589  1.00  0.00     0.295 C 
BRANCH  20  21
HETATM   21  N2  UNL     1      32.339  57.139 -27.386  1.00  0.00    -0.065 N 
ATOM     22  H23 UNL     1      32.182  57.505 -28.325  1.00  0.00     0.275 HD
ATOM     23  H22 UNL     1      33.134  57.699 -27.079  1.00  0.00     0.275 HD
ATOM     24  H21 UNL     1      32.644  56.168 -27.467  1.00  0.00     0.275 HD
ENDBRANCH  20  21
BRANCH  20  25
HETATM   25  C6  UNL     1      30.320  56.258 -26.527  1.00  0.00     0.263 C 
HETATM   26  N3  UNL     1      30.733  55.202 -25.674  1.00  0.00    -0.060 NA
HETATM   27  O3  UNL     1      29.268  56.231 -27.210  1.00  0.00    -0.274 OA
ENDBRANCH  20  25
ENDBRANCH  19  20
ENDBRANCH  18  19
ENDBRANCH  16  18
ENDBRANCH   3  16
BRANCH   5  28
HETATM   28  C8  UNL     1      25.739  58.175 -26.801  1.00  0.00     0.186 C 
BRANCH  28  29
HETATM   29  O4  UNL     1      26.831  57.478 -26.560  1.00  0.00    -0.343 OA
ATOM     30  H4  UNL     1      26.789  56.965 -25.762  1.00  0.00     0.219 HD
ENDBRANCH  28  29
BRANCH  28  31
HETATM   31  N5  UNL     1      24.676  57.694 -26.087  1.00  0.00    -0.285 N 
ATOM     32  H5  UNL     1      24.397  58.142 -25.214  1.00  0.00     0.188 HD
BRANCH  31  33
HETATM   33  N6  UNL     1      23.957  56.548 -26.582  1.00  0.00    -0.343 N 
ATOM     34  H62 UNL     1      24.467  55.801 -27.054  1.00  0.00     0.176 HD
ATOM     35  H61 UNL     1      22.946  56.502 -26.453  1.00  0.00     0.176 HD
ENDBRANCH  31  33
ENDBRANCH  28  31
ENDBRANCH   5  28
TORSDOF 10
ENDMDL
MODEL 2
REMARK VINA RESULT: -7.889055533      2.149      3.929
REMARK  10 active torsions:
REMARK  status: ('A' for Active; 'I' for Inactive)
REMARK    1  A    between atoms: C2_3  and  C3_4 
REMARK    2  A    between atoms: C3_4  and  O2_6 
REMARK    3  A    between atoms: O2_6  and  C4_7 
REMARK    4  A    between atoms: C4_7  and  C5_8 
REMARK    5  A    between atoms: C5_8  and  N2_9 
REMARK    6  A    between atoms: C5_8  and  C6_13 
REMARK    7  A    between atoms: C7_17  and  C8_18 
REMARK    8  A    between atoms: C8_18  and  O4_19 
REMARK    9  A    between atoms: C8_18  and  N5_21 
REMARK   10  A    between atoms: N5_21  and  N6_23 
ROOT
HETATM    1  C1  UNL     1      29.207  62.487 -28.277  1.00  0.00     0.182 C 
HETATM    2  N1  UNL     1      28.256  61.434 -28.006  1.00  0.00    -0.251 N 
HETATM    3  C2  UNL     1      28.131  60.483 -27.008  1.00  0.00     0.224 A 
HETATM    4  N4  UNL     1      27.020  60.028 -27.599  1.00  0.00    -0.204 N 
HETATM    5  C7  UNL     1      25.985  59.151 -27.690  1.00  0.00     0.138 A 
HETATM    6  C9  UNL     1      25.113  59.243 -28.792  1.00  0.00     0.095 A 
HETATM    7  N7  UNL     1      24.019  58.328 -28.897  1.00  0.00    -0.099 NA
HETATM    8  C10 UNL     1      25.304  60.200 -29.743  1.00  0.00     0.056 A 
HETATM    9  C11 UNL     1      24.638  60.536 -30.906  1.00  0.00     0.124 A 
HETATM   10  N8  UNL     1      25.284  61.583 -31.448  1.00  0.00    -0.309 N 
ATOM     11  H8  UNL     1      25.033  62.062 -32.313  1.00  0.00     0.186 HD
HETATM   12  N9  UNL     1      26.299  61.881 -30.661  1.00  0.00    -0.282 N 
ATOM     13  H9  UNL     1      26.958  62.640 -30.838  1.00  0.00     0.188 HD
HETATM   14  C12 UNL     1      26.359  61.064 -29.602  1.00  0.00     0.174 A 
HETATM   15  N10 UNL     1      27.178  60.939 -28.526  1.00  0.00    -0.165 N 
ENDROOT
BRANCH   3  16
HETATM   16  C3  UNL     1      28.993  60.161 -25.891  1.00  0.00     0.331 C 
HETATM   17  O1  UNL     1      29.755  59.217 -25.708  1.00  0.00    -0.256 OA
BRANCH  16  18
HETATM   18  O2  UNL     1      29.013  61.051 -24.787  1.00  0.00    -0.313 OA
BRANCH  18  19
HETATM   19  C4  UNL     1      29.736  62.226 -24.700  1.00  0.00     0.221 C 
BRANCH  19  20
HETATM   20  C5  UNL     1      29.311  63.287 -23.766  1.00  0.00     0.295 C 
BRANCH  20  21
HETATM   21  N2  UNL     1      28.606  62.959 -22.591  1.00  0.00    -0.065 N 
ATOM     22  H23 UNL     1      28.207  62.028 -22.706  1.00  0.00     0.275 HD
ATOM     23  H22 UNL     1      29.282  62.801 -21.844  1.00  0.00     0.275 HD
ATOM     24  H21 UNL     1      27.877  63.580 -22.237  1.00  0.00     0.275 HD
ENDBRANCH  20  21
BRANCH  20  25
HETATM   25  C6  UNL     1      28.536  64.374 -24.484  1.00  0.00     0.263 C 
HETATM   26  N3  UNL     1      27.352  64.833 -23.849  1.00  0.00    -0.060 NA
HETATM   27  O3  UNL     1      28.955  64.818 -25.580  1.00  0.00    -0.274 OA
ENDBRANCH  20  25
ENDBRANCH  19  20
ENDBRANCH  18  19
ENDBRANCH  16  18
ENDBRANCH   3  16
BRANCH   5  28
HETATM   28  C8  UNL     1      25.749  58.092 -26.784  1.00  0.00     0.186 C 
BRANCH  28  29
HETATM   29  O4  UNL     1      26.805  57.337 -26.562  1.00  0.00    -0.343 OA
ATOM     30  H4  UNL     1      26.799  56.910 -25.713  1.00  0.00     0.219 HD
ENDBRANCH  28  29
BRANCH  28  31
HETATM   31  N5  UNL     1      24.663  57.642 -26.084  1.00  0.00    -0.285 N 
ATOM     32  H5  UNL     1      24.397  58.084 -25.204  1.00  0.00     0.188 HD
BRANCH  31  33
HETATM   33  N6  UNL     1      23.899  56.537 -26.605  1.00  0.00    -0.343 N 
ATOM     34  H62 UNL     1      23.121  56.720 -27.239  1.00  0.00     0.176 HD
ATOM     35  H61 UNL     1      24.149  55.586 -26.331  1.00  0.00     0.176 HD
ENDBRANCH  31  33
ENDBRANCH  28  31
ENDBRANCH   5  28
TORSDOF 10
ENDMDL
MODEL 3
REMARK VINA RESULT: -7.686887929      4.049      6.699
REMARK  10 active torsions:
REMARK  status: ('A' for Active; 'I' for Inactive)
REMARK    1  A    between atoms: C2_3  and  C3_4 
REMARK    2  A    between atoms: C3_4  and  O2_6 
REMARK    3  A    between atoms: O2_6  and  C4_7 
REMARK    4  A    between atoms: C4_7  and  C5_8 
REMARK    5  A    between atoms: C5_8  and  N2_9 
REMARK    6  A    between atoms: C5_8  and  C6_13 
REMARK    7  A    between atoms: C7_17  and  C8_18 
REMARK    8  A    between atoms: C8_18  and  O4_19 
REMARK    9  A    between atoms: C8_18  and  N5_21 
REMARK   10  A    between atoms: N5_21  and  N6_23 
ROOT
HETATM    1  C1  UNL     1      25.494  61.218 -33.348  1.00  0.00     0.182 C 
HETATM    2  N1  UNL     1      25.322  60.495 -32.109  1.00  0.00    -0.251 N 
HETATM    3  C2  UNL     1      24.511  59.445 -31.711  1.00  0.00     0.224 A 
HETATM    4  N4  UNL     1      25.061  59.500 -30.493  1.00  0.00    -0.204 N 
HETATM    5  C7  UNL     1      25.149  59.090 -29.200  1.00  0.00     0.138 A 
HETATM    6  C9  UNL     1      26.040  59.757 -28.336  1.00  0.00     0.095 A 
HETATM    7  N7  UNL     1      26.145  59.332 -26.974  1.00  0.00    -0.099 NA
HETATM    8  C10 UNL     1      26.802  60.790 -28.796  1.00  0.00     0.056 A 
HETATM    9  C11 UNL     1      27.741  61.616 -28.211  1.00  0.00     0.124 A 
HETATM   10  N8  UNL     1      28.172  62.465 -29.160  1.00  0.00    -0.309 N 
ATOM     11  H8  UNL     1      28.870  63.199 -29.038  1.00  0.00     0.186 HD
HETATM   12  N9  UNL     1      27.532  62.180 -30.277  1.00  0.00    -0.282 N 
ATOM     13  H9  UNL     1      27.669  62.674 -31.159  1.00  0.00     0.188 HD
HETATM   14  C12 UNL     1      26.679  61.161 -30.109  1.00  0.00     0.174 A 
HETATM   15  N10 UNL     1      25.806  60.494 -30.907  1.00  0.00    -0.165 N 
ENDROOT
BRANCH   3  16
HETATM   16  C3  UNL     1      23.460  58.740 -32.414  1.00  0.00     0.331 C 
HETATM   17  O1  UNL     1      22.563  59.151 -33.143  1.00  0.00    -0.256 OA
BRANCH  16  18
HETATM   18  O2  UNL     1      23.403  57.329 -32.284  1.00  0.00    -0.313 OA
BRANCH  18  19
HETATM   19  C4  UNL     1      24.316  56.426 -32.795  1.00  0.00     0.221 C 
BRANCH  19  20
HETATM   20  C5  UNL     1      24.158  55.917 -34.172  1.00  0.00     0.295 C 
BRANCH  20  21
HETATM   21  N2  UNL     1      24.451  56.745 -35.274  1.00  0.00    -0.065 N 
ATOM     22  H23 UNL     1      24.958  57.562 -34.934  1.00  0.00     0.275 HD
ATOM     23  H22 UNL     1      25.161  56.284 -35.842  1.00  0.00     0.275 HD
ATOM     24  H21 UNL     1      23.704  57.064 -35.891  1.00  0.00     0.275 HD
ENDBRANCH  20  21
BRANCH  20  25
HETATM   25  C6  UNL     1      22.777  55.329 -34.387  1.00  0.00     0.263 C 
HETATM   26  N3  UNL     1      21.767  56.227 -34.820  1.00  0.00    -0.060 NA
HETATM   27  O3  UNL     1      22.582  54.107 -34.183  1.00  0.00    -0.274 OA
ENDBRANCH  20  25
ENDBRANCH  19  20
ENDBRANCH  18  19
ENDBRANCH  16  18
ENDBRANCH   3  16
BRANCH   5  28
HETATM   28  C8  UNL     1      24.356  58.071 -28.624  1.00  0.00     0.186 C 
BRANCH  28  29
HETATM   29  O4  UNL     1      23.060  58.264 -28.764  1.00  0.00    -0.343 OA
ATOM     30  H4  UNL     1      22.614  58.473 -27.952  1.00  0.00     0.219 HD
ENDBRANCH  28  29
BRANCH  28  31
HETATM   31  N5  UNL     1      24.613  56.921 -27.929  1.00  0.00    -0.285 N 
ATOM     32  H5  UNL     1      25.045  56.123 -28.394  1.00  0.00     0.188 HD
BRANCH  31  33
HETATM   33  N6  UNL     1      24.266  56.852 -26.532  1.00  0.00    -0.343 N 
ATOM     34  H62 UNL     1      23.351  56.494 -26.260  1.00  0.00     0.176 HD
ATOM     35  H61 UNL     1      24.944  57.164 -25.835  1.00  0.00     0.176 HD
ENDBRANCH  31  33
ENDBRANCH  28  31
ENDBRANCH   5  28
TORSDOF 10
ENDMDL
MODEL 4
REMARK VINA RESULT: -7.625482919      2.167      3.658
REMARK  10 active torsions:
REMARK  status: ('A' for Active; 'I' for Inactive)
REMARK    1  A    between atoms: C2_3  and  C3_4 
REMARK    2  A    between atoms: C3_4  and  O2_6 
REMARK    3  A    between atoms: O2_6  and  C4_7 
REMARK    4  A    between atoms: C4_7  and  C5_8 
REMARK    5  A    between atoms: C5_8  and  N2_9 
REMARK    6  A    between atoms: C5_8  and  C6_13 
REMARK    7  A    between atoms: C7_17  and  C8_18 
REMARK    8  A    between atoms: C8_18  and  O4_19 
REMARK    9  A    between atoms: C8_18  and  N5_21 
REMARK   10  A    between atoms: N5_21  and  N6_23 
ROOT
HETATM    1  C1  UNL     1      29.338  62.509 -28.314  1.00  0.00     0.182 C 
HETATM    2  N1  UNL     1      28.376  61.473 -28.019  1.00  0.00    -0.251 N 
HETATM    3  C2  UNL     1      28.246  60.542 -27.003  1.00  0.00     0.224 A 
HETATM    4  N4  UNL     1      27.125  60.092 -27.579  1.00  0.00    -0.204 N 
HETATM    5  C7  UNL     1      26.078  59.227 -27.647  1.00  0.00     0.138 A 
HETATM    6  C9  UNL     1      25.199  59.311 -28.744  1.00  0.00     0.095 A 
HETATM    7  N7  UNL     1      24.092  58.409 -28.826  1.00  0.00    -0.099 NA
HETATM    8  C10 UNL     1      25.395  60.250 -29.713  1.00  0.00     0.056 A 
HETATM    9  C11 UNL     1      24.724  60.575 -30.876  1.00  0.00     0.124 A 
HETATM   10  N8  UNL     1      25.380  61.604 -31.440  1.00  0.00    -0.309 N 
ATOM     11  H8  UNL     1      25.129  62.071 -32.312  1.00  0.00     0.186 HD
HETATM   12  N9  UNL     1      26.405  61.902 -30.667  1.00  0.00    -0.282 N 
ATOM     13  H9  UNL     1      27.072  62.649 -30.861  1.00  0.00     0.188 HD
HETATM   14  C12 UNL     1      26.462  61.102 -29.594  1.00  0.00     0.174 A 
HETATM   15  N10 UNL     1      27.287  60.984 -28.522  1.00  0.00    -0.165 N 
ENDROOT
BRANCH   3  16
HETATM   16  C3  UNL     1      29.112  60.228 -25.887  1.00  0.00     0.331 C 
HETATM   17  O1  UNL     1      29.070  59.316 -25.067  1.00  0.00    -0.256 OA
BRANCH  16  18
HETATM   18  O2  UNL     1      30.223  61.076 -25.647  1.00  0.00    -0.313 OA
BRANCH  18  19
HETATM   19  C4  UNL     1      30.444  61.825 -24.507  1.00  0.00     0.221 C 
BRANCH  19  20
HETATM   20  C5  UNL     1      30.102  63.261 -24.489  1.00  0.00     0.295 C 
BRANCH  20  21
HETATM   21  N2  UNL     1      31.017  64.203 -23.977  1.00  0.00    -0.065 N 
ATOM     22  H23 UNL     1      31.753  63.699 -23.484  1.00  0.00     0.275 HD
ATOM     23  H22 UNL     1      31.532  64.608 -24.758  1.00  0.00     0.275 HD
ATOM     24  H21 UNL     1      30.692  64.963 -23.379  1.00  0.00     0.275 HD
ENDBRANCH  20  21
BRANCH  20  25
HETATM   25  C6  UNL     1      28.764  63.501 -23.819  1.00  0.00     0.263 C 
HETATM   26  N3  UNL     1      27.980  64.566 -24.333  1.00  0.00    -0.060 NA
HETATM   27  O3  UNL     1      28.406  62.771 -22.864  1.00  0.00    -0.274 OA
ENDBRANCH  20  25
ENDBRANCH  19  20
ENDBRANCH  18  19
ENDBRANCH  16  18
ENDBRANCH   3  16
BRANCH   5  28
HETATM   28  C8  UNL     1      25.834  58.186 -26.722  1.00  0.00     0.186 C 
BRANCH  28  29
HETATM   29  O4  UNL     1      26.897  57.455 -26.452  1.00  0.00    -0.343 OA
ATOM     30  H4  UNL     1      27.062  56.770 -27.089  1.00  0.00     0.219 HD
ENDBRANCH  28  29
BRANCH  28  31
HETATM   31  N5  UNL     1      24.738  57.735 -26.039  1.00  0.00    -0.285 N 
ATOM     32  H5  UNL     1      24.441  58.194 -25.178  1.00  0.00     0.188 HD
BRANCH  31  33
HETATM   33  N6  UNL     1      24.006  56.604 -26.553  1.00  0.00    -0.343 N 
ATOM     34  H62 UNL     1      24.083  56.365 -27.542  1.00  0.00     0.176 HD
ATOM     35  H61 UNL     1      23.423  56.059 -25.917  1.00  0.00     0.176 HD
ENDBRANCH  31  33
ENDBRANCH  28  31
ENDBRANCH   5  28
TORSDOF 10
ENDMDL
MODEL 5
REMARK VINA RESULT: -7.400452653      3.130      4.461
REMARK  10 active torsions:
REMARK  status: ('A' for Active; 'I' for Inactive)
REMARK    1  A    between atoms: C2_3  and  C3_4 
REMARK    2  A    between atoms: C3_4  and  O2_6 
REMARK    3  A    between atoms: O2_6  and  C4_7 
REMARK    4  A    between atoms: C4_7  and  C5_8 
REMARK    5  A    between atoms: C5_8  and  N2_9 
REMARK    6  A    between atoms: C5_8  and  C6_13 
REMARK    7  A    between atoms: C7_17  and  C8_18 
REMARK    8  A    between atoms: C8_18  and  O4_19 
REMARK    9  A    between atoms: C8_18  and  N5_21 
REMARK   10  A    between atoms: N5_21  and  N6_23 
ROOT
HETATM    1  C1  UNL     1      28.831  62.994 -30.294  1.00  0.00     0.182 C 
HETATM    2  N1  UNL     1      27.796  62.083 -29.863  1.00  0.00    -0.251 N 
HETATM    3  C2  UNL     1      27.430  61.554 -28.637  1.00  0.00     0.224 A 
HETATM    4  N4  UNL     1      26.439  60.885 -29.238  1.00  0.00    -0.204 N 
HETATM    5  C7  UNL     1      25.403  60.005 -29.215  1.00  0.00     0.138 A 
HETATM    6  C9  UNL     1      24.773  59.668 -30.430  1.00  0.00     0.095 A 
HETATM    7  N7  UNL     1      23.679  58.745 -30.418  1.00  0.00    -0.099 NA
HETATM    8  C10 UNL     1      25.194  60.222 -31.601  1.00  0.00     0.056 A 
HETATM    9  C11 UNL     1      24.790  60.096 -32.916  1.00  0.00     0.124 A 
HETATM   10  N8  UNL     1      25.580  60.895 -33.655  1.00  0.00    -0.309 N 
ATOM     11  H8  UNL     1      25.529  61.022 -34.666  1.00  0.00     0.186 HD
HETATM   12  N9  UNL     1      26.431  61.486 -32.839  1.00  0.00    -0.282 N 
ATOM     13  H9  UNL     1      27.147  62.148 -33.139  1.00  0.00     0.188 HD
HETATM   14  C12 UNL     1      26.239  61.108 -31.568  1.00  0.00     0.174 A 
HETATM   15  N10 UNL     1      26.821  61.403 -30.378  1.00  0.00    -0.165 N 
ENDROOT
BRANCH   3  16
HETATM   16  C3  UNL     1      28.036  61.682 -27.329  1.00  0.00     0.331 C 
HETATM   17  O1  UNL     1      28.631  60.863 -26.634  1.00  0.00    -0.256 OA
BRANCH  16  18
HETATM   18  O2  UNL     1      27.972  62.944 -26.686  1.00  0.00    -0.313 OA
BRANCH  18  19
HETATM   19  C4  UNL     1      29.015  63.586 -26.046  1.00  0.00     0.221 C 
BRANCH  19  20
HETATM   20  C5  UNL     1      28.754  64.790 -25.233  1.00  0.00     0.295 C 
BRANCH  20  21
HETATM   21  N2  UNL     1      29.801  65.680 -24.922  1.00  0.00    -0.065 N 
ATOM     22  H23 UNL     1      29.416  66.451 -24.378  1.00  0.00     0.275 HD
ATOM     23  H22 UNL     1      30.411  65.231 -24.239  1.00  0.00     0.275 HD
ATOM     24  H21 UNL     1      30.383  66.069 -25.665  1.00  0.00     0.275 HD
ENDBRANCH  20  21
BRANCH  20  25
HETATM   25  C6  UNL     1      28.045  64.437 -23.940  1.00  0.00     0.263 C 
HETATM   26  N3  UNL     1      28.537  63.307 -23.236  1.00  0.00    -0.060 NA
HETATM   27  O3  UNL     1      27.080  65.136 -23.547  1.00  0.00    -0.274 OA
ENDBRANCH  20  25
ENDBRANCH  19  20
ENDBRANCH  18  19
ENDBRANCH  16  18
ENDBRANCH   3  16
BRANCH   5  28
HETATM   28  C8  UNL     1      24.940  59.338 -28.058  1.00  0.00     0.186 C 
BRANCH  28  29
HETATM   29  O4  UNL     1      24.535  60.150 -27.103  1.00  0.00    -0.343 OA
ATOM     30  H4  UNL     1      24.183  59.702 -26.343  1.00  0.00     0.219 HD
ENDBRANCH  28  29
BRANCH  28  31
HETATM   31  N5  UNL     1      24.826  58.029 -27.676  1.00  0.00    -0.285 N 
ATOM     32  H5  UNL     1      25.631  57.531 -27.297  1.00  0.00     0.188 HD
BRANCH  31  33
HETATM   33  N6  UNL     1      23.555  57.364 -27.817  1.00  0.00    -0.343 N 
ATOM     34  H62 UNL     1      22.970  57.569 -28.627  1.00  0.00     0.176 HD
ATOM     35  H61 UNL     1      23.261  56.697 -27.103  1.00  0.00     0.176 HD
ENDBRANCH  31  33
ENDBRANCH  28  31
ENDBRANCH   5  28
TORSDOF 10
ENDMDL
