MODEL 1
REMARK VINA RESULT: -6.397994760      0.000      0.000
REMARK  8 active torsions:
REMARK  status: ('A' for Active; 'I' for Inactive)
REMARK    1  A    between atoms: C1_4  and  C2_6 
REMARK    2  A    between atoms: C2_6  and  O1_7 
REMARK    3  A    between atoms: C3_9  and  S1_10 
REMARK    4  A    between atoms: C4_16  and  C5_17 
REMARK    5  A    between atoms: N4_18  and  N5_20 
REMARK    6  A    between atoms: C6_23  and  N6_24 
REMARK    7  A    between atoms: C7_28  and  O7_29 
REMARK    8  A    between atoms: C7_28  and  C8_31 
ROOT
HETATM    1  C2  UNL     1      32.584  56.896 -25.906  1.00  0.00     0.212 C 
HETATM    2  C3  UNL     1      31.770  57.835 -25.066  1.00  0.00     0.169 C 
HETATM    3  N3  UNL     1      31.816  57.841 -23.808  1.00  0.00    -0.367 N 
ATOM      4  H3  UNL     1      31.229  58.511 -23.310  1.00  0.00     0.161 HD
HETATM    5  C4  UNL     1      32.644  56.962 -23.034  1.00  0.00     0.156 C 
HETATM    6  C6  UNL     1      33.949  56.835 -23.772  1.00  0.00     0.260 C 
HETATM    7  C7  UNL     1      33.783  56.346 -25.189  1.00  0.00     0.221 C 
ENDROOT
BRANCH   1   8
HETATM    8  C1  UNL     1      31.664  55.817 -26.332  1.00  0.00     0.132 C 
HETATM    9  N1  UNL     1      31.735  55.373 -27.530  1.00  0.00    -0.388 N 
ATOM     10  H12 UNL     1      31.101  54.629 -27.824  1.00  0.00     0.157 HD
ATOM     11  H11 UNL     1      32.435  55.794 -28.140  1.00  0.00     0.157 HD
HETATM   12  N2  UNL     1      30.687  55.229 -25.479  1.00  0.00    -0.084 NA
ENDBRANCH   1   8
BRANCH   1  13
HETATM   13  O1  UNL     1      32.930  57.630 -27.040  1.00  0.00    -0.372 OA
ATOM     14  H1  UNL     1      32.298  58.335 -27.132  1.00  0.00     0.211 HD
ENDBRANCH   1  13
BRANCH   2  15
HETATM   15  S1  UNL     1      30.696  58.992 -25.848  1.00  0.00     0.153 S 
HETATM   16  O2  UNL     1      29.514  59.298 -24.970  1.00  0.00    -0.590 OA
HETATM   17  O3  UNL     1      31.451  60.280 -26.016  1.00  0.00    -0.590 OA
HETATM   18  O4  UNL     1      30.206  58.427 -27.354  1.00  0.00    -0.590 OA
ENDBRANCH   2  15
BRANCH   7  19
HETATM   19  O7  UNL     1      33.622  54.965 -25.104  1.00  0.00    -0.374 OA
ATOM     20  H7  UNL     1      34.325  54.564 -25.602  1.00  0.00     0.211 HD
ENDBRANCH   7  19
BRANCH   7  21
HETATM   21  C8  UNL     1      35.054  56.617 -25.877  1.00  0.00     0.215 C 
HETATM   22  O8  UNL     1      35.877  57.501 -25.534  1.00  0.00    -0.646 OA
HETATM   23  O9  UNL     1      35.386  55.854 -26.983  1.00  0.00    -0.646 OA
ENDBRANCH   7  21
BRANCH   6  24
HETATM   24  N6  UNL     1      34.773  55.874 -23.057  1.00  0.00    -0.069 N 
ATOM     25  H63 UNL     1      34.329  55.529 -22.205  1.00  0.00     0.275 HD
ATOM     26  H62 UNL     1      34.849  54.979 -23.542  1.00  0.00     0.275 HD
ATOM     27  H61 UNL     1      35.679  56.309 -22.883  1.00  0.00     0.275 HD
ENDBRANCH   6  24
BRANCH   5  28
HETATM   28  C5  UNL     1      32.937  57.676 -21.749  1.00  0.00     0.113 C 
HETATM   29  N4  UNL     1      32.729  58.939 -21.718  1.00  0.00    -0.254 N 
ATOM     30  H4  UNL     1      32.378  59.374 -22.571  1.00  0.00     0.192 HD
BRANCH  29  31
HETATM   31  N5  UNL     1      32.938  59.761 -20.637  1.00  0.00    -0.040 N 
HETATM   32  O5  UNL     1      32.187  60.730 -20.430  1.00  0.00    -0.516 OA
HETATM   33  O6  UNL     1      33.965  59.554 -19.754  1.00  0.00    -0.516 OA
ENDBRANCH  29  31
ENDBRANCH   5  28
TORSDOF 8
ENDMDL
MODEL 2
REMARK VINA RESULT: -5.955814562      4.427      7.437
REMARK  8 active torsions:
REMARK  status: ('A' for Active; 'I' for Inactive)
REMARK    1  A    between atoms: C1_4  and  C2_6 
REMARK    2  A    between atoms: C2_6  and  O1_7 
REMARK    3  A    between atoms: C3_9  and  S1_10 
REMARK    4  A    between atoms: C4_16  and  C5_17 
REMARK    5  A    between atoms: N4_18  and  N5_20 
REMARK    6  A    between atoms: C6_23  and  N6_24 
REMARK    7  A    between atoms: C7_28  and  O7_29 
REMARK    8  A    between atoms: C7_28  and  C8_31 
ROOT
HETATM    1  C2  UNL     1      30.328  62.970 -24.678  1.00  0.00     0.212 C 
HETATM    2  C3  UNL     1      30.730  61.579 -24.288  1.00  0.00     0.169 C 
HETATM    3  N3  UNL     1      30.149  60.551 -24.726  1.00  0.00    -0.367 N 
ATOM      4  H3  UNL     1      30.483  59.640 -24.411  1.00  0.00     0.161 HD
HETATM    5  C4  UNL     1      29.046  60.586 -25.642  1.00  0.00     0.156 C 
HETATM    6  C6  UNL     1      29.334  61.690 -26.625  1.00  0.00     0.260 C 
HETATM    7  C7  UNL     1      29.558  63.028 -25.965  1.00  0.00     0.221 C 
ENDROOT
BRANCH   1   8
HETATM    8  C1  UNL     1      29.536  63.505 -23.547  1.00  0.00     0.132 C 
HETATM    9  N1  UNL     1      29.794  64.677 -23.103  1.00  0.00    -0.388 N 
ATOM     10  H12 UNL     1      29.248  65.046 -22.324  1.00  0.00     0.157 HD
ATOM     11  H11 UNL     1      30.547  65.191 -23.561  1.00  0.00     0.157 HD
HETATM   12  N2  UNL     1      28.485  62.787 -22.909  1.00  0.00    -0.084 NA
ENDBRANCH   1   8
BRANCH   1  13
HETATM   13  O1  UNL     1      31.522  63.689 -24.737  1.00  0.00    -0.372 OA
ATOM     14  H1  UNL     1      31.451  64.417 -24.130  1.00  0.00     0.211 HD
ENDBRANCH   1  13
BRANCH   2  15
HETATM   15  S1  UNL     1      32.072  61.341 -23.171  1.00  0.00     0.153 S 
HETATM   16  O2  UNL     1      32.136  59.911 -22.713  1.00  0.00    -0.590 OA
HETATM   17  O3  UNL     1      33.346  61.611 -23.920  1.00  0.00    -0.590 OA
HETATM   18  O4  UNL     1      31.954  62.395 -21.866  1.00  0.00    -0.590 OA
ENDBRANCH   2  15
BRANCH   7  19
HETATM   19  O7  UNL     1      28.292  63.529 -25.673  1.00  0.00    -0.374 OA
ATOM     20  H7  UNL     1      27.958  63.938 -26.463  1.00  0.00     0.211 HD
ENDBRANCH   7  19
BRANCH   7  21
HETATM   21  C8  UNL     1      30.173  63.896 -26.979  1.00  0.00     0.215 C 
HETATM   22  O8  UNL     1      30.872  63.489 -27.939  1.00  0.00    -0.646 OA
HETATM   23  O9  UNL     1      29.978  65.263 -26.888  1.00  0.00    -0.646 OA
ENDBRANCH   7  21
BRANCH   6  24
HETATM   24  N6  UNL     1      28.186  61.809 -27.509  1.00  0.00    -0.069 N 
ATOM     25  H63 UNL     1      27.302  61.613 -27.038  1.00  0.00     0.275 HD
ATOM     26  H62 UNL     1      27.988  62.775 -27.772  1.00  0.00     0.275 HD
ATOM     27  H61 UNL     1      28.348  61.204 -28.314  1.00  0.00     0.275 HD
ENDBRANCH   6  24
BRANCH   5  28
HETATM   28  C5  UNL     1      29.087  59.298 -26.408  1.00  0.00     0.113 C 
HETATM   29  N4  UNL     1      30.163  58.606 -26.335  1.00  0.00    -0.254 N 
ATOM     30  H4  UNL     1      30.918  58.979 -25.761  1.00  0.00     0.192 HD
BRANCH  29  31
HETATM   31  N5  UNL     1      30.388  57.405 -26.963  1.00  0.00    -0.040 N 
HETATM   32  O5  UNL     1      31.502  57.154 -27.455  1.00  0.00    -0.516 OA
HETATM   33  O6  UNL     1      29.414  56.449 -27.073  1.00  0.00    -0.516 OA
ENDBRANCH  29  31
ENDBRANCH   5  28
TORSDOF 8
ENDMDL
MODEL 3
REMARK VINA RESULT: -5.923467775      4.517      7.447
REMARK  8 active torsions:
REMARK  status: ('A' for Active; 'I' for Inactive)
REMARK    1  A    between atoms: C1_4  and  C2_6 
REMARK    2  A    between atoms: C2_6  and  O1_7 
REMARK    3  A    between atoms: C3_9  and  S1_10 
REMARK    4  A    between atoms: C4_16  and  C5_17 
REMARK    5  A    between atoms: N4_18  and  N5_20 
REMARK    6  A    between atoms: C6_23  and  N6_24 
REMARK    7  A    between atoms: C7_28  and  O7_29 
REMARK    8  A    between atoms: C7_28  and  C8_31 
ROOT
HETATM    1  C2  UNL     1      30.233  63.064 -24.740  1.00  0.00     0.212 C 
HETATM    2  C3  UNL     1      30.612  61.683 -24.294  1.00  0.00     0.169 C 
HETATM    3  N3  UNL     1      30.034  60.647 -24.714  1.00  0.00    -0.367 N 
ATOM      4  H3  UNL     1      30.350  59.744 -24.361  1.00  0.00     0.161 HD
HETATM    5  C4  UNL     1      28.957  60.661 -25.662  1.00  0.00     0.156 C 
HETATM    6  C6  UNL     1      29.283  61.729 -26.671  1.00  0.00     0.260 C 
HETATM    7  C7  UNL     1      29.500  63.086 -26.049  1.00  0.00     0.221 C 
ENDROOT
BRANCH   1   8
HETATM    8  C1  UNL     1      29.416  63.642 -23.650  1.00  0.00     0.132 C 
HETATM    9  N1  UNL     1      29.585  64.869 -23.325  1.00  0.00    -0.388 N 
ATOM     10  H12 UNL     1      29.021  65.267 -22.574  1.00  0.00     0.157 HD
ATOM     11  H11 UNL     1      30.289  65.394 -23.845  1.00  0.00     0.157 HD
HETATM   12  N2  UNL     1      28.433  62.910 -22.925  1.00  0.00    -0.084 NA
ENDBRANCH   1   8
BRANCH   1  13
HETATM   13  O1  UNL     1      31.435  63.771 -24.789  1.00  0.00    -0.372 OA
ATOM     14  H1  UNL     1      32.137  63.141 -24.907  1.00  0.00     0.211 HD
ENDBRANCH   1  13
BRANCH   2  15
HETATM   15  S1  UNL     1      31.920  61.472 -23.133  1.00  0.00     0.153 S 
HETATM   16  O2  UNL     1      31.539  62.036 -21.793  1.00  0.00    -0.590 OA
HETATM   17  O3  UNL     1      32.126  59.996 -22.935  1.00  0.00    -0.590 OA
HETATM   18  O4  UNL     1      33.342  62.165 -23.704  1.00  0.00    -0.590 OA
ENDBRANCH   2  15
BRANCH   7  19
HETATM   19  O7  UNL     1      28.232  63.608 -25.809  1.00  0.00    -0.374 OA
ATOM     20  H7  UNL     1      27.817  63.749 -26.652  1.00  0.00     0.211 HD
ENDBRANCH   7  19
BRANCH   7  21
HETATM   21  C8  UNL     1      30.151  63.916 -27.074  1.00  0.00     0.215 C 
HETATM   22  O8  UNL     1      30.040  65.163 -27.158  1.00  0.00    -0.646 OA
HETATM   23  O9  UNL     1      30.949  63.298 -28.019  1.00  0.00    -0.646 OA
ENDBRANCH   7  21
BRANCH   6  24
HETATM   24  N6  UNL     1      28.160  61.829 -27.591  1.00  0.00    -0.069 N 
ATOM     25  H63 UNL     1      27.660  60.947 -27.701  1.00  0.00     0.275 HD
ATOM     26  H62 UNL     1      27.387  62.377 -27.213  1.00  0.00     0.275 HD
ATOM     27  H61 UNL     1      28.513  62.198 -28.474  1.00  0.00     0.275 HD
ENDBRANCH   6  24
BRANCH   5  28
HETATM   28  C5  UNL     1      29.008  59.348 -26.384  1.00  0.00     0.113 C 
HETATM   29  N4  UNL     1      30.116  58.706 -26.357  1.00  0.00    -0.254 N 
ATOM     30  H4  UNL     1      30.888  59.132 -25.846  1.00  0.00     0.192 HD
BRANCH  29  31
HETATM   31  N5  UNL     1      30.355  57.493 -26.957  1.00  0.00    -0.040 N 
HETATM   32  O5  UNL     1      31.466  57.249 -27.457  1.00  0.00    -0.516 OA
HETATM   33  O6  UNL     1      29.397  56.517 -27.029  1.00  0.00    -0.516 OA
ENDBRANCH  29  31
ENDBRANCH   5  28
TORSDOF 8
ENDMDL
MODEL 4
REMARK VINA RESULT: -5.762384617     10.457     12.592
REMARK  8 active torsions:
REMARK  status: ('A' for Active; 'I' for Inactive)
REMARK    1  A    between atoms: C1_4  and  C2_6 
REMARK    2  A    between atoms: C2_6  and  O1_7 
REMARK    3  A    between atoms: C3_9  and  S1_10 
REMARK    4  A    between atoms: C4_16  and  C5_17 
REMARK    5  A    between atoms: N4_18  and  N5_20 
REMARK    6  A    between atoms: C6_23  and  N6_24 
REMARK    7  A    between atoms: C7_28  and  O7_29 
REMARK    8  A    between atoms: C7_28  and  C8_31 
ROOT
HETATM    1  C2  UNL     1      24.620  61.069 -34.876  1.00  0.00     0.212 C 
HETATM    2  C3  UNL     1      25.515  61.889 -33.994  1.00  0.00     0.169 C 
HETATM    3  N3  UNL     1      25.502  61.802 -32.738  1.00  0.00    -0.367 N 
ATOM      4  H3  UNL     1      26.141  62.396 -32.209  1.00  0.00     0.161 HD
HETATM    5  C4  UNL     1      24.641  60.917 -32.007  1.00  0.00     0.156 C 
HETATM    6  C6  UNL     1      24.575  59.633 -32.789  1.00  0.00     0.260 C 
HETATM    7  C7  UNL     1      24.103  59.828 -34.209  1.00  0.00     0.221 C 
ENDROOT
BRANCH   1   8
HETATM    8  C1  UNL     1      23.516  61.962 -35.291  1.00  0.00     0.132 C 
HETATM    9  N1  UNL     1      22.857  61.689 -36.354  1.00  0.00    -0.388 N 
ATOM     10  H12 UNL     1      22.096  62.305 -36.640  1.00  0.00     0.157 HD
ATOM     11  H11 UNL     1      23.134  60.853 -36.869  1.00  0.00     0.157 HD
HETATM   12  N2  UNL     1      23.130  63.129 -34.571  1.00  0.00    -0.084 NA
ENDBRANCH   1   8
BRANCH   1  13
HETATM   13  O1  UNL     1      25.386  60.788 -36.007  1.00  0.00    -0.372 OA
ATOM     14  H1  UNL     1      26.236  60.481 -35.712  1.00  0.00     0.211 HD
ENDBRANCH   1  13
BRANCH   2  15
HETATM   15  S1  UNL     1      26.644  63.029 -34.720  1.00  0.00     0.153 S 
HETATM   16  O2  UNL     1      26.916  64.176 -33.786  1.00  0.00    -0.590 OA
HETATM   17  O3  UNL     1      27.952  62.318 -34.919  1.00  0.00    -0.590 OA
HETATM   18  O4  UNL     1      26.070  63.575 -36.203  1.00  0.00    -0.590 OA
ENDBRANCH   2  15
BRANCH   7  19
HETATM   19  O7  UNL     1      22.717  59.935 -34.143  1.00  0.00    -0.374 OA
ATOM     20  H7  UNL     1      22.366  59.057 -34.059  1.00  0.00     0.211 HD
ENDBRANCH   7  19
BRANCH   7  21
HETATM   21  C8  UNL     1      24.434  58.591 -34.932  1.00  0.00     0.215 C 
HETATM   22  O8  UNL     1      25.099  57.640 -34.454  1.00  0.00    -0.646 OA
HETATM   23  O9  UNL     1      23.986  58.445 -36.233  1.00  0.00    -0.646 OA
ENDBRANCH   7  21
BRANCH   6  24
HETATM   24  N6  UNL     1      23.634  58.751 -32.118  1.00  0.00    -0.069 N 
ATOM     25  H63 UNL     1      22.662  58.956 -32.354  1.00  0.00     0.275 HD
ATOM     26  H62 UNL     1      23.661  57.796 -32.476  1.00  0.00     0.275 HD
ATOM     27  H61 UNL     1      23.817  58.804 -31.116  1.00  0.00     0.275 HD
ENDBRANCH   6  24
BRANCH   5  28
HETATM   28  C5  UNL     1      25.344  60.608 -30.719  1.00  0.00     0.113 C 
HETATM   29  N4  UNL     1      25.050  61.329 -29.702  1.00  0.00    -0.254 N 
ATOM     30  H4  UNL     1      24.357  62.064 -29.838  1.00  0.00     0.192 HD
BRANCH  29  31
HETATM   31  N5  UNL     1      25.586  61.198 -28.444  1.00  0.00    -0.040 N 
HETATM   32  O5  UNL     1      26.704  61.676 -28.185  1.00  0.00    -0.516 OA
HETATM   33  O6  UNL     1      24.925  60.547 -27.437  1.00  0.00    -0.516 OA
ENDBRANCH  29  31
ENDBRANCH   5  28
TORSDOF 8
ENDMDL
MODEL 5
REMARK VINA RESULT: -5.742226673      4.782      7.661
REMARK  8 active torsions:
REMARK  status: ('A' for Active; 'I' for Inactive)
REMARK    1  A    between atoms: C1_4  and  C2_6 
REMARK    2  A    between atoms: C2_6  and  O1_7 
REMARK    3  A    between atoms: C3_9  and  S1_10 
REMARK    4  A    between atoms: C4_16  and  C5_17 
REMARK    5  A    between atoms: N4_18  and  N5_20 
REMARK    6  A    between atoms: C6_23  and  N6_24 
REMARK    7  A    between atoms: C7_28  and  O7_29 
REMARK    8  A    between atoms: C7_28  and  C8_31 
ROOT
HETATM    1  C2  UNL     1      29.977  61.332 -26.522  1.00  0.00     0.212 C 
HETATM    2  C3  UNL     1      29.894  59.895 -26.102  1.00  0.00     0.169 C 
HETATM    3  N3  UNL     1      28.828  59.228 -26.153  1.00  0.00    -0.367 N 
ATOM      4  H3  UNL     1      28.855  58.255 -25.847  1.00  0.00     0.161 HD
HETATM    5  C4  UNL     1      27.576  59.756 -26.615  1.00  0.00     0.156 C 
HETATM    6  C6  UNL     1      27.889  60.650 -27.785  1.00  0.00     0.260 C 
HETATM    7  C7  UNL     1      28.870  61.746 -27.449  1.00  0.00     0.221 C 
ENDROOT
BRANCH   1   8
HETATM    8  C1  UNL     1      29.968  62.130 -25.276  1.00  0.00     0.132 C 
HETATM    9  N1  UNL     1      30.781  63.110 -25.155  1.00  0.00    -0.388 N 
ATOM     10  H12 UNL     1      30.775  63.660 -24.296  1.00  0.00     0.157 HD
ATOM     11  H11 UNL     1      31.406  63.294 -25.940  1.00  0.00     0.157 HD
HETATM   12  N2  UNL     1      29.095  61.874 -24.180  1.00  0.00    -0.084 NA
ENDBRANCH   1   8
BRANCH   1  13
HETATM   13  O1  UNL     1      31.238  61.468 -27.103  1.00  0.00    -0.372 OA
ATOM     14  H1  UNL     1      31.607  60.598 -27.201  1.00  0.00     0.211 HD
ENDBRANCH   1  13
BRANCH   2  15
HETATM   15  S1  UNL     1      31.338  59.077 -25.510  1.00  0.00     0.153 S 
HETATM   16  O2  UNL     1      30.970  57.952 -24.583  1.00  0.00    -0.590 OA
HETATM   17  O3  UNL     1      32.030  58.454 -26.689  1.00  0.00    -0.590 OA
HETATM   18  O4  UNL     1      32.377  60.168 -24.762  1.00  0.00    -0.590 OA
ENDBRANCH   2  15
BRANCH   7  19
HETATM   19  O7  UNL     1      28.134  62.737 -26.804  1.00  0.00    -0.374 OA
ATOM     20  H7  UNL     1      27.236  62.668 -27.107  1.00  0.00     0.211 HD
ENDBRANCH   7  19
BRANCH   7  21
HETATM   21  C8  UNL     1      29.347  62.288 -28.729  1.00  0.00     0.215 C 
HETATM   22  O8  UNL     1      29.675  63.484 -28.920  1.00  0.00    -0.646 OA
HETATM   23  O9  UNL     1      29.451  61.434 -29.813  1.00  0.00    -0.646 OA
ENDBRANCH   7  21
BRANCH   6  24
HETATM   24  N6  UNL     1      26.647  61.273 -28.214  1.00  0.00    -0.069 N 
ATOM     25  H63 UNL     1      25.910  61.211 -27.510  1.00  0.00     0.275 HD
ATOM     26  H62 UNL     1      26.708  62.290 -28.256  1.00  0.00     0.275 HD
ATOM     27  H61 UNL     1      26.380  60.854 -29.104  1.00  0.00     0.275 HD
ENDBRANCH   6  24
BRANCH   5  28
HETATM   28  C5  UNL     1      26.796  58.594 -27.150  1.00  0.00     0.113 C 
HETATM   29  N4  UNL     1      25.600  58.441 -26.718  1.00  0.00    -0.254 N 
ATOM     30  H4  UNL     1      25.260  59.122 -26.040  1.00  0.00     0.192 HD
BRANCH  29  31
HETATM   31  N5  UNL     1      24.734  57.441 -27.089  1.00  0.00    -0.040 N 
HETATM   32  O5  UNL     1      24.304  57.383 -28.254  1.00  0.00    -0.516 OA
HETATM   33  O6  UNL     1      24.313  56.480 -26.208  1.00  0.00    -0.516 OA
ENDBRANCH  29  31
ENDBRANCH   5  28
TORSDOF 8
ENDMDL
