MODEL 1
REMARK VINA RESULT: -8.494840641      0.000      0.000
REMARK  8 active torsions:
REMARK  status: ('A' for Active; 'I' for Inactive)
REMARK    1  A    between atoms: C2_3  and  O1_4 
REMARK    2  A    between atoms: N5_15  and  C6_16 
REMARK    3  A    between atoms: C6_16  and  C7_17 
REMARK    4  A    between atoms: C7_17  and  C8_18 
REMARK    5  A    between atoms: C8_18  and  N6_19 
REMARK    6  A    between atoms: C11_24  and  N8_25 
REMARK    7  A    between atoms: C12_30  and  N10_31 
REMARK    8  A    between atoms: N10_31  and  N11_33 
ROOT
HETATM    1  N1  UNL     1      32.955  56.169 -27.647  1.00  0.00    -0.190 NA
HETATM    2  C1  UNL     1      32.574  56.151 -26.552  1.00  0.00     0.148 C 
HETATM    3  C2  UNL     1      32.106  56.127 -25.150  1.00  0.00     0.340 C 
HETATM    4  O2  UNL     1      33.068  55.608 -24.348  1.00  0.00    -0.315 OA
HETATM    5  C3  UNL     1      33.725  56.464 -23.519  1.00  0.00     0.213 C 
HETATM    6  C4  UNL     1      34.464  55.755 -22.414  1.00  0.00     0.175 C 
HETATM    7  N2  UNL     1      34.213  56.585 -21.257  1.00  0.00    -0.137 NA
HETATM    8  N3  UNL     1      33.010  57.259 -21.488  1.00  0.00    -0.290 N 
ATOM      9  H3  UNL     1      32.455  57.721 -20.768  1.00  0.00     0.183 HD
HETATM   10  C5  UNL     1      32.702  57.215 -22.738  1.00  0.00     0.134 C 
HETATM   11  N4  UNL     1      31.607  57.728 -23.486  1.00  0.00    -0.300 N 
ATOM     12  H4  UNL     1      30.876  58.294 -23.055  1.00  0.00     0.182 HD
HETATM   13  N5  UNL     1      31.591  57.410 -24.844  1.00  0.00    -0.158 NA
ENDROOT
BRANCH   3  14
HETATM   14  O1  UNL     1      31.017  55.222 -25.149  1.00  0.00    -0.340 OA
ATOM     15  H1  UNL     1      30.488  55.481 -24.404  1.00  0.00     0.215 HD
ENDBRANCH   3  14
BRANCH  13  16
HETATM   16  C6  UNL     1      32.170  58.497 -25.594  1.00  0.00     0.122 C 
BRANCH  16  17
HETATM   17  C7  UNL     1      31.039  59.365 -26.072  1.00  0.00     0.037 C 
BRANCH  17  18
HETATM   18  C8  UNL     1      29.923  58.594 -26.721  1.00  0.00     0.133 C 
BRANCH  18  19
HETATM   19  N6  UNL     1      28.884  59.461 -27.211  1.00  0.00    -0.327 N 
HETATM   20  C9  UNL     1      29.076  60.647 -27.817  1.00  0.00     0.185 A 
HETATM   21  N7  UNL     1      27.893  61.197 -28.128  1.00  0.00    -0.346 N 
HETATM   22  C10 UNL     1      26.940  60.331 -27.705  1.00  0.00     0.123 A 
ATOM     23  H7  UNL     1      27.740  62.092 -28.593  1.00  0.00     0.167 HD
HETATM   24  C11 UNL     1      25.566  60.368 -27.763  1.00  0.00     0.145 A 
HETATM   25  C13 UNL     1      27.544  59.234 -27.125  1.00  0.00     0.155 A 
HETATM   26  N9  UNL     1      24.828  59.377 -27.278  1.00  0.00    -0.173 N 
HETATM   27  C12 UNL     1      25.460  58.328 -26.724  1.00  0.00     0.699 A 
ATOM     28  H9  UNL     1      23.810  59.410 -27.325  1.00  0.00     0.186 HD
HETATM   29  N12 UNL     1      26.783  58.260 -26.650  1.00  0.00    -0.172 N 
ATOM     30  H12 UNL     1      27.220  57.444 -26.220  1.00  0.00     0.186 HD
BRANCH  24  31
HETATM   31  N8  UNL     1      24.993  61.389 -28.302  1.00  0.00    -0.383 N 
ATOM     32  H82 UNL     1      24.074  61.287 -28.733  1.00  0.00     0.157 HD
ATOM     33  H81 UNL     1      25.475  62.288 -28.288  1.00  0.00     0.157 HD
ENDBRANCH  24  31
BRANCH  27  34
HETATM   34  N10 UNL     1      24.712  57.370 -26.257  1.00  0.00    -0.138 N 
ATOM     35  H10 UNL     1      24.732  57.168 -25.257  1.00  0.00     0.205 HD
BRANCH  34  36
HETATM   36  N11 UNL     1      23.888  56.617 -27.085  1.00  0.00    -0.331 N 
ATOM     37 2H11 UNL     1      23.125  57.093 -27.567  1.00  0.00     0.177 HD
ATOM     38 1H11 UNL     1      24.032  55.616 -27.218  1.00  0.00     0.177 HD
ENDBRANCH  34  36
ENDBRANCH  27  34
ENDBRANCH  18  19
ENDBRANCH  17  18
ENDBRANCH  16  17
ENDBRANCH  13  16
TORSDOF 8
ENDMDL
MODEL 2
REMARK VINA RESULT: -8.494500152      4.057      6.083
REMARK  8 active torsions:
REMARK  status: ('A' for Active; 'I' for Inactive)
REMARK    1  A    between atoms: C2_3  and  O1_4 
REMARK    2  A    between atoms: N5_15  and  C6_16 
REMARK    3  A    between atoms: C6_16  and  C7_17 
REMARK    4  A    between atoms: C7_17  and  C8_18 
REMARK    5  A    between atoms: C8_18  and  N6_19 
REMARK    6  A    between atoms: C11_24  and  N8_25 
REMARK    7  A    between atoms: C12_30  and  N10_31 
REMARK    8  A    between atoms: N10_31  and  N11_33 
ROOT
HETATM    1  N1  UNL     1      29.798  60.120 -24.778  1.00  0.00    -0.190 NA
HETATM    2  C1  UNL     1      29.612  61.219 -24.460  1.00  0.00     0.148 C 
HETATM    3  C2  UNL     1      29.391  62.624 -24.056  1.00  0.00     0.340 C 
HETATM    4  O2  UNL     1      30.534  63.143 -23.543  1.00  0.00    -0.315 OA
HETATM    5  C3  UNL     1      31.201  64.059 -24.296  1.00  0.00     0.213 C 
HETATM    6  C4  UNL     1      32.202  64.854 -23.499  1.00  0.00     0.175 C 
HETATM    7  N2  UNL     1      32.040  66.199 -24.005  1.00  0.00    -0.137 NA
HETATM    8  N3  UNL     1      30.737  66.298 -24.502  1.00  0.00    -0.290 N 
ATOM      9  H3  UNL     1      30.255  67.174 -24.698  1.00  0.00     0.183 HD
HETATM   10  C5  UNL     1      30.233  65.125 -24.680  1.00  0.00     0.134 C 
HETATM   11  N4  UNL     1      28.971  64.673 -25.151  1.00  0.00    -0.300 N 
ATOM     12  H4  UNL     1      28.255  65.320 -25.481  1.00  0.00     0.182 HD
HETATM   13  N5  UNL     1      28.770  63.293 -25.137  1.00  0.00    -0.158 NA
ENDROOT
BRANCH   3  14
HETATM   14  O1  UNL     1      28.447  62.552 -23.003  1.00  0.00    -0.340 OA
ATOM     15  H1  UNL     1      28.060  63.418 -22.966  1.00  0.00     0.215 HD
ENDBRANCH   3  14
BRANCH  13  16
HETATM   16  C6  UNL     1      29.067  62.755 -26.442  1.00  0.00     0.122 C 
BRANCH  16  17
HETATM   17  C7  UNL     1      27.968  63.194 -27.369  1.00  0.00     0.037 C 
BRANCH  17  18
HETATM   18  C8  UNL     1      27.701  62.225 -28.487  1.00  0.00     0.133 C 
BRANCH  18  19
HETATM   19  N6  UNL     1      26.741  61.221 -28.110  1.00  0.00    -0.327 N 
HETATM   20  C9  UNL     1      25.404  61.375 -28.120  1.00  0.00     0.185 A 
HETATM   21  N7  UNL     1      24.813  60.249 -27.694  1.00  0.00    -0.346 N 
HETATM   22  C10 UNL     1      25.807  59.372 -27.412  1.00  0.00     0.123 A 
ATOM     23  H7  UNL     1      23.810  60.084 -27.601  1.00  0.00     0.167 HD
HETATM   24  C11 UNL     1      25.793  58.076 -26.951  1.00  0.00     0.145 A 
HETATM   25  C13 UNL     1      27.026  59.965 -27.667  1.00  0.00     0.155 A 
HETATM   26  N9  UNL     1      26.919  57.402 -26.754  1.00  0.00    -0.173 N 
HETATM   27  C12 UNL     1      28.083  58.020 -27.017  1.00  0.00     0.699 A 
ATOM     28  H9  UNL     1      26.902  56.441 -26.412  1.00  0.00     0.186 HD
HETATM   29  N12 UNL     1      28.134  59.269 -27.462  1.00  0.00    -0.172 N 
ATOM     30  H12 UNL     1      29.040  59.699 -27.648  1.00  0.00     0.186 HD
BRANCH  24  31
HETATM   31  N8  UNL     1      24.658  57.514 -26.709  1.00  0.00    -0.383 N 
ATOM     32  H82 UNL     1      23.880  58.072 -26.359  1.00  0.00     0.157 HD
ATOM     33  H81 UNL     1      24.560  56.512 -26.873  1.00  0.00     0.157 HD
ENDBRANCH  24  31
BRANCH  27  34
HETATM   34  N10 UNL     1      29.172  57.336 -26.815  1.00  0.00    -0.138 N 
ATOM     35  H10 UNL     1      29.099  56.363 -26.515  1.00  0.00     0.205 HD
BRANCH  34  36
HETATM   36  N11 UNL     1      30.431  57.896 -26.999  1.00  0.00    -0.331 N 
ATOM     37 2H11 UNL     1      30.604  58.421 -27.857  1.00  0.00     0.177 HD
ATOM     38 1H11 UNL     1      31.170  57.793 -26.304  1.00  0.00     0.177 HD
ENDBRANCH  34  36
ENDBRANCH  27  34
ENDBRANCH  18  19
ENDBRANCH  17  18
ENDBRANCH  16  17
ENDBRANCH  13  16
TORSDOF 8
ENDMDL
MODEL 3
REMARK VINA RESULT: -8.484456896      4.434      6.062
REMARK  8 active torsions:
REMARK  status: ('A' for Active; 'I' for Inactive)
REMARK    1  A    between atoms: C2_3  and  O1_4 
REMARK    2  A    between atoms: N5_15  and  C6_16 
REMARK    3  A    between atoms: C6_16  and  C7_17 
REMARK    4  A    between atoms: C7_17  and  C8_18 
REMARK    5  A    between atoms: C8_18  and  N6_19 
REMARK    6  A    between atoms: C11_24  and  N8_25 
REMARK    7  A    between atoms: C12_30  and  N10_31 
REMARK    8  A    between atoms: N10_31  and  N11_33 
ROOT
HETATM    1  N1  UNL     1      30.157  60.348 -24.725  1.00  0.00    -0.190 NA
HETATM    2  C1  UNL     1      29.808  61.424 -24.473  1.00  0.00     0.148 C 
HETATM    3  C2  UNL     1      29.381  62.803 -24.153  1.00  0.00     0.340 C 
HETATM    4  O2  UNL     1      30.412  63.492 -23.605  1.00  0.00    -0.315 OA
HETATM    5  C3  UNL     1      30.999  64.457 -24.366  1.00  0.00     0.213 C 
HETATM    6  C4  UNL     1      31.836  65.412 -23.555  1.00  0.00     0.175 C 
HETATM    7  N2  UNL     1      31.530  66.700 -24.136  1.00  0.00    -0.137 NA
HETATM    8  N3  UNL     1      30.258  66.602 -24.709  1.00  0.00    -0.290 N 
ATOM      9  H3  UNL     1      29.678  67.397 -24.974  1.00  0.00     0.183 HD
HETATM   10  C5  UNL     1      29.924  65.366 -24.854  1.00  0.00     0.134 C 
HETATM   11  N4  UNL     1      28.763  64.730 -25.371  1.00  0.00    -0.300 N 
ATOM     12  H4  UNL     1      27.990  65.260 -25.772  1.00  0.00     0.182 HD
HETATM   13  N5  UNL     1      28.745  63.337 -25.299  1.00  0.00    -0.158 NA
ENDROOT
BRANCH   3  14
HETATM   14  O1  UNL     1      28.392  62.650 -23.151  1.00  0.00    -0.340 OA
ATOM     15  H1  UNL     1      27.777  62.023 -23.513  1.00  0.00     0.215 HD
ENDBRANCH   3  14
BRANCH  13  16
HETATM   16  C6  UNL     1      29.189  62.789 -26.557  1.00  0.00     0.122 C 
BRANCH  16  17
HETATM   17  C7  UNL     1      27.965  62.535 -27.393  1.00  0.00     0.037 C 
BRANCH  17  18
HETATM   18  C8  UNL     1      27.650  61.076 -27.570  1.00  0.00     0.133 C 
BRANCH  18  19
HETATM   19  N6  UNL     1      26.750  60.849 -28.670  1.00  0.00    -0.327 N 
HETATM   20  C9  UNL     1      26.660  61.610 -29.776  1.00  0.00     0.185 A 
HETATM   21  N7  UNL     1      25.708  61.124 -30.586  1.00  0.00    -0.346 N 
HETATM   22  C10 UNL     1      25.193  60.033 -29.969  1.00  0.00     0.123 A 
ATOM     23  H7  UNL     1      25.427  61.501 -31.492  1.00  0.00     0.167 HD
HETATM   24  C11 UNL     1      24.206  59.145 -30.332  1.00  0.00     0.145 A 
HETATM   25  C13 UNL     1      25.835  59.845 -28.763  1.00  0.00     0.155 A 
HETATM   26  N9  UNL     1      23.873  58.127 -29.548  1.00  0.00    -0.173 N 
HETATM   27  C12 UNL     1      24.527  57.982 -28.383  1.00  0.00     0.699 A 
ATOM     28  H9  UNL     1      23.141  57.472 -29.823  1.00  0.00     0.186 HD
HETATM   29  N12 UNL     1      25.482  58.819 -28.001  1.00  0.00    -0.172 N 
ATOM     30  H12 UNL     1      25.952  58.672 -27.107  1.00  0.00     0.186 HD
BRANCH  24  31
HETATM   31  N8  UNL     1      23.600  59.314 -31.457  1.00  0.00    -0.383 N 
ATOM     32  H82 UNL     1      22.705  59.803 -31.483  1.00  0.00     0.157 HD
ATOM     33  H81 UNL     1      24.031  58.951 -32.308  1.00  0.00     0.157 HD
ENDBRANCH  24  31
BRANCH  27  34
HETATM   34  N10 UNL     1      24.180  56.975 -27.635  1.00  0.00    -0.138 N 
ATOM     35  H10 UNL     1      23.737  56.164 -28.067  1.00  0.00     0.205 HD
BRANCH  34  36
HETATM   36  N11 UNL     1      24.400  56.975 -26.261  1.00  0.00    -0.331 N 
ATOM     37 2H11 UNL     1      24.435  56.077 -25.779  1.00  0.00     0.177 HD
ATOM     38 1H11 UNL     1      24.526  57.843 -25.739  1.00  0.00     0.177 HD
ENDBRANCH  34  36
ENDBRANCH  27  34
ENDBRANCH  18  19
ENDBRANCH  17  18
ENDBRANCH  16  17
ENDBRANCH  13  16
TORSDOF 8
ENDMDL
MODEL 4
REMARK VINA RESULT: -8.417478361      5.487      9.542
REMARK  8 active torsions:
REMARK  status: ('A' for Active; 'I' for Inactive)
REMARK    1  A    between atoms: C2_3  and  O1_4 
REMARK    2  A    between atoms: N5_15  and  C6_16 
REMARK    3  A    between atoms: C6_16  and  C7_17 
REMARK    4  A    between atoms: C7_17  and  C8_18 
REMARK    5  A    between atoms: C8_18  and  N6_19 
REMARK    6  A    between atoms: C11_24  and  N8_25 
REMARK    7  A    between atoms: C12_30  and  N10_31 
REMARK    8  A    between atoms: N10_31  and  N11_33 
ROOT
HETATM    1  N1  UNL     1      24.031  61.241 -34.780  1.00  0.00    -0.190 NA
HETATM    2  C1  UNL     1      23.662  60.226 -34.361  1.00  0.00     0.148 C 
HETATM    3  C2  UNL     1      23.205  58.922 -33.834  1.00  0.00     0.340 C 
HETATM    4  O2  UNL     1      23.640  57.920 -34.637  1.00  0.00    -0.315 OA
HETATM    5  C3  UNL     1      24.636  57.122 -34.162  1.00  0.00     0.213 C 
HETATM    6  C4  UNL     1      24.766  55.832 -34.929  1.00  0.00     0.175 C 
HETATM    7  N2  UNL     1      24.997  54.849 -33.894  1.00  0.00    -0.137 NA
HETATM    8  N3  UNL     1      24.431  55.350 -32.717  1.00  0.00    -0.290 N 
ATOM      9  H3  UNL     1      24.220  54.792 -31.890  1.00  0.00     0.183 HD
HETATM   10  C5  UNL     1      24.214  56.616 -32.826  1.00  0.00     0.134 C 
HETATM   11  N4  UNL     1      23.665  57.585 -31.943  1.00  0.00    -0.300 N 
ATOM     12  H4  UNL     1      23.387  57.351 -30.990  1.00  0.00     0.182 HD
HETATM   13  N5  UNL     1      23.528  58.874 -32.457  1.00  0.00    -0.158 NA
ENDROOT
BRANCH   3  14
HETATM   14  O1  UNL     1      21.794  58.967 -33.938  1.00  0.00    -0.340 OA
ATOM     15  H1  UNL     1      21.554  59.824 -33.605  1.00  0.00     0.215 HD
ENDBRANCH   3  14
BRANCH  13  16
HETATM   16  C6  UNL     1      24.669  59.665 -32.068  1.00  0.00     0.122 C 
BRANCH  16  17
HETATM   17  C7  UNL     1      24.437  60.122 -30.654  1.00  0.00     0.037 C 
BRANCH  17  18
HETATM   18  C8  UNL     1      25.241  61.334 -30.274  1.00  0.00     0.133 C 
BRANCH  18  19
HETATM   19  N6  UNL     1      26.342  61.000 -29.409  1.00  0.00    -0.327 N 
HETATM   20  C9  UNL     1      27.584  61.510 -29.491  1.00  0.00     0.185 A 
HETATM   21  N7  UNL     1      28.363  60.968 -28.543  1.00  0.00    -0.346 N 
HETATM   22  C10 UNL     1      27.586  60.097 -27.855  1.00  0.00     0.123 A 
ATOM     23  H7  UNL     1      29.348  61.171 -28.374  1.00  0.00     0.167 HD
HETATM   24  C11 UNL     1      27.846  59.273 -26.784  1.00  0.00     0.145 A 
HETATM   25  C13 UNL     1      26.312  60.103 -28.384  1.00  0.00     0.155 A 
HETATM   26  N9  UNL     1      26.901  58.498 -26.264  1.00  0.00    -0.173 N 
HETATM   27  C12 UNL     1      25.675  58.538 -26.812  1.00  0.00     0.699 A 
ATOM     28  H9  UNL     1      27.101  57.890 -25.470  1.00  0.00     0.186 HD
HETATM   29  N12 UNL     1      25.389  59.320 -27.845  1.00  0.00    -0.172 N 
ATOM     30  H12 UNL     1      24.444  59.319 -28.230  1.00  0.00     0.186 HD
BRANCH  24  31
HETATM   31  N8  UNL     1      29.034  59.260 -26.283  1.00  0.00    -0.383 N 
ATOM     32  H82 UNL     1      29.679  60.023 -26.487  1.00  0.00     0.157 HD
ATOM     33  H81 UNL     1      29.308  58.479 -25.686  1.00  0.00     0.157 HD
ENDBRANCH  24  31
BRANCH  27  34
HETATM   34  N10 UNL     1      24.768  57.770 -26.283  1.00  0.00    -0.138 N 
ATOM     35  H10 UNL     1      24.580  57.840 -25.283  1.00  0.00     0.205 HD
BRANCH  34  36
HETATM   36  N11 UNL     1      24.049  56.855 -27.046  1.00  0.00    -0.331 N 
ATOM     37 2H11 UNL     1      23.637  56.052 -26.571  1.00  0.00     0.177 HD
ATOM     38 1H11 UNL     1      23.929  56.974 -28.051  1.00  0.00     0.177 HD
ENDBRANCH  34  36
ENDBRANCH  27  34
ENDBRANCH  18  19
ENDBRANCH  17  18
ENDBRANCH  16  17
ENDBRANCH  13  16
TORSDOF 8
ENDMDL
MODEL 5
REMARK VINA RESULT: -8.337571096      7.002     10.242
REMARK  8 active torsions:
REMARK  status: ('A' for Active; 'I' for Inactive)
REMARK    1  A    between atoms: C2_3  and  O1_4 
REMARK    2  A    between atoms: N5_15  and  C6_16 
REMARK    3  A    between atoms: C6_16  and  C7_17 
REMARK    4  A    between atoms: C7_17  and  C8_18 
REMARK    5  A    between atoms: C8_18  and  N6_19 
REMARK    6  A    between atoms: C11_24  and  N8_25 
REMARK    7  A    between atoms: C12_30  and  N10_31 
REMARK    8  A    between atoms: N10_31  and  N11_33 
ROOT
HETATM    1  N1  UNL     1      24.273  57.732 -36.093  1.00  0.00    -0.190 NA
HETATM    2  C1  UNL     1      23.654  56.943 -35.511  1.00  0.00     0.148 C 
HETATM    3  C2  UNL     1      22.876  55.925 -34.773  1.00  0.00     0.340 C 
HETATM    4  O2  UNL     1      23.155  54.689 -35.256  1.00  0.00    -0.315 OA
HETATM    5  C3  UNL     1      23.903  53.863 -34.475  1.00  0.00     0.213 C 
HETATM    6  C4  UNL     1      23.819  52.421 -34.902  1.00  0.00     0.175 C 
HETATM    7  N2  UNL     1      23.732  51.706 -33.649  1.00  0.00    -0.137 NA
HETATM    8  N3  UNL     1      23.183  52.584 -32.710  1.00  0.00    -0.290 N 
ATOM      9  H3  UNL     1      22.779  52.303 -31.817  1.00  0.00     0.183 HD
HETATM   10  C5  UNL     1      23.259  53.799 -33.133  1.00  0.00     0.134 C 
HETATM   11  N4  UNL     1      22.854  55.046 -32.581  1.00  0.00    -0.300 N 
ATOM     12  H4  UNL     1      22.445  55.116 -31.650  1.00  0.00     0.182 HD
HETATM   13  N5  UNL     1      23.051  56.165 -33.389  1.00  0.00    -0.158 NA
ENDROOT
BRANCH   3  14
HETATM   14  O1  UNL     1      21.524  56.209 -35.085  1.00  0.00    -0.340 OA
ATOM     15  H1  UNL     1      21.499  57.149 -35.217  1.00  0.00     0.215 HD
ENDBRANCH   3  14
BRANCH  13  16
HETATM   16  C6  UNL     1      24.296  56.799 -33.031  1.00  0.00     0.122 C 
BRANCH  16  17
HETATM   17  C7  UNL     1      24.145  57.325 -31.630  1.00  0.00     0.037 C 
BRANCH  17  18
HETATM   18  C8  UNL     1      23.516  58.688 -31.565  1.00  0.00     0.133 C 
BRANCH  18  19
HETATM   19  N6  UNL     1      24.359  59.638 -30.888  1.00  0.00    -0.327 N 
HETATM   20  C9  UNL     1      24.912  60.730 -31.447  1.00  0.00     0.185 A 
HETATM   21  N7  UNL     1      25.652  61.382 -30.538  1.00  0.00    -0.346 N 
HETATM   22  C10 UNL     1      25.558  60.677 -29.384  1.00  0.00     0.123 A 
ATOM     23  H7  UNL     1      26.183  62.241 -30.685  1.00  0.00     0.167 HD
HETATM   24  C11 UNL     1      26.097  60.874 -28.134  1.00  0.00     0.145 A 
HETATM   25  C13 UNL     1      24.750  59.577 -29.585  1.00  0.00     0.155 A 
HETATM   26  N9  UNL     1      25.851  60.034 -27.136  1.00  0.00    -0.173 N 
HETATM   27  C12 UNL     1      25.057  58.977 -27.378  1.00  0.00     0.699 A 
ATOM     28  H9  UNL     1      26.253  60.186 -26.211  1.00  0.00     0.186 HD
HETATM   29  N12 UNL     1      24.521  58.755 -28.571  1.00  0.00    -0.172 N 
ATOM     30  H12 UNL     1      23.924  57.939 -28.710  1.00  0.00     0.186 HD
BRANCH  24  31
HETATM   31  N8  UNL     1      26.854  61.899 -27.937  1.00  0.00    -0.383 N 
ATOM     32  H82 UNL     1      27.418  62.268 -28.703  1.00  0.00     0.157 HD
ATOM     33  H81 UNL     1      26.876  62.324 -27.010  1.00  0.00     0.157 HD
ENDBRANCH  24  31
BRANCH  27  34
HETATM   34  N10 UNL     1      24.831  58.169 -26.382  1.00  0.00    -0.138 N 
ATOM     35  H10 UNL     1      25.053  58.476 -25.435  1.00  0.00     0.205 HD
BRANCH  34  36
HETATM   36  N11 UNL     1      24.297  56.900 -26.577  1.00  0.00    -0.331 N 
ATOM     37 2H11 UNL     1      24.850  56.220 -27.099  1.00  0.00     0.177 HD
ATOM     38 1H11 UNL     1      23.379  56.644 -26.213  1.00  0.00     0.177 HD
ENDBRANCH  34  36
ENDBRANCH  27  34
ENDBRANCH  18  19
ENDBRANCH  17  18
ENDBRANCH  16  17
ENDBRANCH  13  16
TORSDOF 8
ENDMDL
