MODEL 1
REMARK VINA RESULT: -7.018344823      0.000      0.000
REMARK  6 active torsions:
REMARK  status: ('A' for Active; 'I' for Inactive)
REMARK    1  A    between atoms: C2_2  and  N1_3 
REMARK    2  A    between atoms: C2_2  and  C3_7 
REMARK       I    between atoms: C3_7  and  N2_9 
REMARK    3  A    between atoms: N2_9  and  C4_11 
REMARK    4  A    between atoms: C4_11  and  C5_12 
REMARK       I    between atoms: C5_12  and  N3_14 
REMARK    5  A    between atoms: N3_14  and  C6_16 
REMARK    6  A    between atoms: C6_16  and  C7_17 
ROOT
HETATM    1  C5  UNL     1      28.762  60.668 -26.784  1.00  0.00     0.248 C 
HETATM    2  O2  UNL     1      28.478  59.809 -25.898  1.00  0.00    -0.271 OA
HETATM    3  N3  UNL     1      29.798  61.613 -26.602  1.00  0.00    -0.325 N 
ATOM      4  H3  UNL     1      29.945  62.310 -27.332  1.00  0.00     0.165 HD
ENDROOT
BRANCH   1   5
HETATM    5  C4  UNL     1      27.909  60.615 -28.033  1.00  0.00     0.114 A 
HETATM    6  C12 UNL     1      27.675  61.873 -28.731  1.00  0.00     0.044 A 
HETATM    7  C13 UNL     1      28.700  60.889 -29.301  1.00  0.00     0.044 A 
BRANCH   5   8
HETATM    8  N2  UNL     1      27.122  59.410 -28.115  1.00  0.00    -0.341 N 
HETATM    9  C3  UNL     1      25.725  59.321 -27.938  1.00  0.00     0.248 C 
HETATM   10  O1  UNL     1      25.056  60.369 -27.709  1.00  0.00    -0.271 OA
ATOM     11  H2  UNL     1      27.620  58.544 -28.319  1.00  0.00     0.163 HD
BRANCH   9  12
HETATM   12  C2  UNL     1      24.996  58.032 -28.001  1.00  0.00     0.270 C 
HETATM   13  C1  UNL     1      24.899  57.534 -26.538  1.00  0.00     0.050 C 
BRANCH  12  14
HETATM   14  N1  UNL     1      23.614  58.244 -28.456  1.00  0.00    -0.067 N 
ATOM     15  H13 UNL     1      22.937  57.637 -27.993  1.00  0.00     0.275 HD
ATOM     16  H12 UNL     1      23.218  59.132 -28.149  1.00  0.00     0.275 HD
ATOM     17  H11 UNL     1      23.628  58.135 -29.470  1.00  0.00     0.275 HD
ENDBRANCH  12  14
ENDBRANCH   9  12
ENDBRANCH   5   8
ENDBRANCH   1   5
BRANCH   3  18
HETATM   18  C6  UNL     1      30.670  61.648 -25.432  1.00  0.00     0.189 C 
HETATM   19  C8  UNL     1      31.546  62.838 -25.433  1.00  0.00     0.064 C 
HETATM   20  C9  UNL     1      31.357  63.751 -24.261  1.00  0.00     0.014 C 
HETATM   21  C10 UNL     1      29.952  63.976 -23.819  1.00  0.00     0.103 C 
HETATM   22  C11 UNL     1      29.246  62.667 -23.672  1.00  0.00     0.219 C 
HETATM   23  O4  UNL     1      28.143  62.628 -23.030  1.00  0.00    -0.274 OA
HETATM   24  N5  UNL     1      29.814  61.533 -24.243  1.00  0.00    -0.327 N 
ATOM     25  H5  UNL     1      29.634  60.616 -23.835  1.00  0.00     0.165 HD
BRANCH  18  26
HETATM   26  C7  UNL     1      31.445  60.379 -25.420  1.00  0.00     0.280 C 
HETATM   27  N4  UNL     1      32.235  59.992 -26.578  1.00  0.00    -0.058 NA
HETATM   28  O3  UNL     1      31.461  59.602 -24.458  1.00  0.00    -0.272 OA
ENDBRANCH  18  26
ENDBRANCH   3  18
TORSDOF 6
ENDMDL
MODEL 2
REMARK VINA RESULT: -6.959789694      5.917      9.926
REMARK  6 active torsions:
REMARK  status: ('A' for Active; 'I' for Inactive)
REMARK    1  A    between atoms: C2_2  and  N1_3 
REMARK    2  A    between atoms: C2_2  and  C3_7 
REMARK       I    between atoms: C3_7  and  N2_9 
REMARK    3  A    between atoms: N2_9  and  C4_11 
REMARK    4  A    between atoms: C4_11  and  C5_12 
REMARK       I    between atoms: C5_12  and  N3_14 
REMARK    5  A    between atoms: N3_14  and  C6_16 
REMARK    6  A    between atoms: C6_16  and  C7_17 
ROOT
HETATM    1  C5  UNL     1      24.956  58.871 -33.287  1.00  0.00     0.248 C 
HETATM    2  O2  UNL     1      23.797  59.220 -33.657  1.00  0.00    -0.271 OA
HETATM    3  N3  UNL     1      25.606  57.741 -33.836  1.00  0.00    -0.325 N 
ATOM      4  H3  UNL     1      26.519  57.483 -33.460  1.00  0.00     0.165 HD
ENDROOT
BRANCH   1   5
HETATM    5  C4  UNL     1      25.582  59.737 -32.216  1.00  0.00     0.114 A 
HETATM    6  C12 UNL     1      26.215  60.977 -32.649  1.00  0.00     0.044 A 
HETATM    7  C13 UNL     1      24.832  61.040 -31.996  1.00  0.00     0.044 A 
BRANCH   5   8
HETATM    8  N2  UNL     1      25.820  59.016 -30.990  1.00  0.00    -0.341 N 
HETATM    9  C3  UNL     1      24.829  58.526 -30.113  1.00  0.00     0.248 C 
HETATM   10  O1  UNL     1      23.608  58.687 -30.397  1.00  0.00    -0.271 OA
ATOM     11  H2  UNL     1      26.792  58.845 -30.734  1.00  0.00     0.163 HD
BRANCH   9  12
HETATM   12  C2  UNL     1      25.162  57.825 -28.850  1.00  0.00     0.270 C 
HETATM   13  C1  UNL     1      26.183  58.736 -28.124  1.00  0.00     0.050 C 
BRANCH  12  14
HETATM   14  N1  UNL     1      23.982  57.752 -27.976  1.00  0.00    -0.067 N 
ATOM     15  H13 UNL     1      23.249  57.139 -28.335  1.00  0.00     0.275 HD
ATOM     16  H12 UNL     1      24.152  57.247 -27.106  1.00  0.00     0.275 HD
ATOM     17  H11 UNL     1      23.672  58.713 -27.833  1.00  0.00     0.275 HD
ENDBRANCH  12  14
ENDBRANCH   9  12
ENDBRANCH   5   8
ENDBRANCH   1   5
BRANCH   3  18
HETATM   18  C6  UNL     1      25.047  56.922 -34.908  1.00  0.00     0.189 C 
HETATM   19  C8  UNL     1      25.849  55.704 -35.146  1.00  0.00     0.064 C 
HETATM   20  C9  UNL     1      25.107  54.420 -34.935  1.00  0.00     0.014 C 
HETATM   21  C10 UNL     1      24.183  54.375 -33.766  1.00  0.00     0.103 C 
HETATM   22  C11 UNL     1      23.298  55.579 -33.768  1.00  0.00     0.219 C 
HETATM   23  O4  UNL     1      22.257  55.582 -33.029  1.00  0.00    -0.274 OA
HETATM   24  N5  UNL     1      23.640  56.661 -34.572  1.00  0.00    -0.327 N 
ATOM     25  H5  UNL     1      22.911  57.276 -34.931  1.00  0.00     0.165 HD
BRANCH  18  26
HETATM   26  C7  UNL     1      24.957  57.782 -36.118  1.00  0.00     0.280 C 
HETATM   27  N4  UNL     1      26.146  58.434 -36.644  1.00  0.00    -0.058 NA
HETATM   28  O3  UNL     1      23.900  57.988 -36.727  1.00  0.00    -0.272 OA
ENDBRANCH  18  26
ENDBRANCH   3  18
TORSDOF 6
ENDMDL
MODEL 3
REMARK VINA RESULT: -6.832389307      6.237     10.365
REMARK  6 active torsions:
REMARK  status: ('A' for Active; 'I' for Inactive)
REMARK    1  A    between atoms: C2_2  and  N1_3 
REMARK    2  A    between atoms: C2_2  and  C3_7 
REMARK       I    between atoms: C3_7  and  N2_9 
REMARK    3  A    between atoms: N2_9  and  C4_11 
REMARK    4  A    between atoms: C4_11  and  C5_12 
REMARK       I    between atoms: C5_12  and  N3_14 
REMARK    5  A    between atoms: N3_14  and  C6_16 
REMARK    6  A    between atoms: C6_16  and  C7_17 
ROOT
HETATM    1  C5  UNL     1      24.557  58.463 -32.809  1.00  0.00     0.248 C 
HETATM    2  O2  UNL     1      23.470  58.879 -33.306  1.00  0.00    -0.271 OA
HETATM    3  N3  UNL     1      25.343  57.479 -33.451  1.00  0.00    -0.325 N 
ATOM      4  H3  UNL     1      26.184  57.149 -32.975  1.00  0.00     0.165 HD
ENDROOT
BRANCH   1   5
HETATM    5  C4  UNL     1      24.942  59.083 -31.483  1.00  0.00     0.114 A 
HETATM    6  C12 UNL     1      23.949  59.042 -30.417  1.00  0.00     0.044 A 
HETATM    7  C13 UNL     1      25.119  58.056 -30.378  1.00  0.00     0.044 A 
BRANCH   5   8
HETATM    8  N2  UNL     1      26.066  59.980 -31.597  1.00  0.00    -0.341 N 
HETATM    9  C3  UNL     1      25.999  61.352 -31.920  1.00  0.00     0.248 C 
HETATM   10  O1  UNL     1      24.874  61.895 -32.110  1.00  0.00    -0.271 OA
ATOM     11  H2  UNL     1      26.992  59.587 -31.430  1.00  0.00     0.163 HD
BRANCH   9  12
HETATM   12  C2  UNL     1      27.210  62.196 -32.055  1.00  0.00     0.270 C 
HETATM   13  C1  UNL     1      28.232  61.627 -31.038  1.00  0.00     0.050 C 
BRANCH  12  14
HETATM   14  N1  UNL     1      27.813  62.022 -33.385  1.00  0.00    -0.067 N 
ATOM     15  H13 UNL     1      28.832  62.069 -33.378  1.00  0.00     0.275 HD
ATOM     16  H12 UNL     1      27.733  61.071 -33.745  1.00  0.00     0.275 HD
ATOM     17  H11 UNL     1      27.379  62.721 -33.987  1.00  0.00     0.275 HD
ENDBRANCH  12  14
ENDBRANCH   9  12
ENDBRANCH   5   8
ENDBRANCH   1   5
BRANCH   3  18
HETATM   18  C6  UNL     1      25.023  56.906 -34.756  1.00  0.00     0.189 C 
HETATM   19  C8  UNL     1      25.858  55.726 -35.059  1.00  0.00     0.064 C 
HETATM   20  C9  UNL     1      25.089  54.456 -35.263  1.00  0.00     0.014 C 
HETATM   21  C10 UNL     1      23.941  54.224 -34.343  1.00  0.00     0.103 C 
HETATM   22  C11 UNL     1      23.075  55.440 -34.288  1.00  0.00     0.219 C 
HETATM   23  O4  UNL     1      21.902  55.342 -33.794  1.00  0.00    -0.274 OA
HETATM   24  N5  UNL     1      23.577  56.642 -34.775  1.00  0.00    -0.327 N 
ATOM     25  H5  UNL     1      22.939  57.344 -35.148  1.00  0.00     0.165 HD
BRANCH  18  26
HETATM   26  C7  UNL     1      25.188  57.987 -35.764  1.00  0.00     0.280 C 
HETATM   27  N4  UNL     1      24.102  58.309 -36.676  1.00  0.00    -0.058 NA
HETATM   28  O3  UNL     1      26.224  58.652 -35.883  1.00  0.00    -0.272 OA
ENDBRANCH  18  26
ENDBRANCH   3  18
TORSDOF 6
ENDMDL
MODEL 4
REMARK VINA RESULT: -6.744852428      5.744     10.100
REMARK  6 active torsions:
REMARK  status: ('A' for Active; 'I' for Inactive)
REMARK    1  A    between atoms: C2_2  and  N1_3 
REMARK    2  A    between atoms: C2_2  and  C3_7 
REMARK       I    between atoms: C3_7  and  N2_9 
REMARK    3  A    between atoms: N2_9  and  C4_11 
REMARK    4  A    between atoms: C4_11  and  C5_12 
REMARK       I    between atoms: C5_12  and  N3_14 
REMARK    5  A    between atoms: N3_14  and  C6_16 
REMARK    6  A    between atoms: C6_16  and  C7_17 
ROOT
HETATM    1  C5  UNL     1      24.332  57.709 -32.315  1.00  0.00     0.248 C 
HETATM    2  O2  UNL     1      23.082  57.753 -32.119  1.00  0.00    -0.271 OA
HETATM    3  N3  UNL     1      24.902  56.893 -33.319  1.00  0.00    -0.325 N 
ATOM      4  H3  UNL     1      25.919  56.863 -33.394  1.00  0.00     0.165 HD
ENDROOT
BRANCH   1   5
HETATM    5  C4  UNL     1      25.162  58.577 -31.394  1.00  0.00     0.114 A 
HETATM    6  C12 UNL     1      25.828  59.730 -31.989  1.00  0.00     0.044 A 
HETATM    7  C13 UNL     1      24.555  59.951 -31.169  1.00  0.00     0.044 A 
BRANCH   5   8
HETATM    8  N2  UNL     1      25.503  57.909 -30.163  1.00  0.00    -0.341 N 
HETATM    9  C3  UNL     1      24.767  57.965 -28.960  1.00  0.00     0.248 C 
HETATM   10  O1  UNL     1      23.692  58.628 -28.915  1.00  0.00    -0.271 OA
ATOM     11  H2  UNL     1      26.353  57.345 -30.161  1.00  0.00     0.163 HD
BRANCH   9  12
HETATM   12  C2  UNL     1      25.211  57.276 -27.725  1.00  0.00     0.270 C 
HETATM   13  C1  UNL     1      25.942  58.353 -26.885  1.00  0.00     0.050 C 
BRANCH  12  14
HETATM   14  N1  UNL     1      24.050  56.851 -26.928  1.00  0.00    -0.067 N 
ATOM     15  H13 UNL     1      24.274  56.138 -26.234  1.00  0.00     0.275 HD
ATOM     16  H12 UNL     1      23.724  57.564 -26.275  1.00  0.00     0.275 HD
ATOM     17  H11 UNL     1      23.338  56.557 -27.596  1.00  0.00     0.275 HD
ENDBRANCH  12  14
ENDBRANCH   9  12
ENDBRANCH   5   8
ENDBRANCH   1   5
BRANCH   3  18
HETATM   18  C6  UNL     1      24.120  56.090 -34.255  1.00  0.00     0.189 C 
HETATM   19  C8  UNL     1      24.981  55.369 -35.215  1.00  0.00     0.064 C 
HETATM   20  C9  UNL     1      24.861  53.877 -35.159  1.00  0.00     0.014 C 
HETATM   21  C10 UNL     1      24.750  53.274 -33.801  1.00  0.00     0.103 C 
HETATM   22  C11 UNL     1      23.700  53.984 -33.010  1.00  0.00     0.219 C 
HETATM   23  O4  UNL     1      23.256  53.439 -31.945  1.00  0.00    -0.274 OA
HETATM   24  N5  UNL     1      23.244  55.218 -33.460  1.00  0.00    -0.327 N 
ATOM     25  H5  UNL     1      22.297  55.520 -33.236  1.00  0.00     0.165 HD
BRANCH  18  26
HETATM   26  C7  UNL     1      23.166  57.008 -34.933  1.00  0.00     0.280 C 
HETATM   27  N4  UNL     1      23.656  58.173 -35.652  1.00  0.00    -0.058 NA
HETATM   28  O3  UNL     1      21.940  56.840 -34.925  1.00  0.00    -0.272 OA
ENDBRANCH  18  26
ENDBRANCH   3  18
TORSDOF 6
ENDMDL
MODEL 5
REMARK VINA RESULT: -6.736392609      6.398     10.134
REMARK  6 active torsions:
REMARK  status: ('A' for Active; 'I' for Inactive)
REMARK    1  A    between atoms: C2_2  and  N1_3 
REMARK    2  A    between atoms: C2_2  and  C3_7 
REMARK       I    between atoms: C3_7  and  N2_9 
REMARK    3  A    between atoms: N2_9  and  C4_11 
REMARK    4  A    between atoms: C4_11  and  C5_12 
REMARK       I    between atoms: C5_12  and  N3_14 
REMARK    5  A    between atoms: N3_14  and  C6_16 
REMARK    6  A    between atoms: C6_16  and  C7_17 
ROOT
HETATM    1  C5  UNL     1      24.179  57.995 -31.801  1.00  0.00     0.248 C 
HETATM    2  O2  UNL     1      22.919  57.900 -31.712  1.00  0.00    -0.271 OA
HETATM    3  N3  UNL     1      24.900  57.400 -32.861  1.00  0.00    -0.325 N 
ATOM      4  H3  UNL     1      25.917  57.471 -32.849  1.00  0.00     0.165 HD
ENDROOT
BRANCH   1   5
HETATM    5  C4  UNL     1      24.848  58.777 -30.691  1.00  0.00     0.114 A 
HETATM    6  C12 UNL     1      24.133  58.878 -29.424  1.00  0.00     0.044 A 
HETATM    7  C13 UNL     1      25.304  57.898 -29.539  1.00  0.00     0.044 A 
BRANCH   5   8
HETATM    8  N2  UNL     1      25.892  59.645 -31.177  1.00  0.00    -0.341 N 
HETATM    9  C3  UNL     1      25.702  60.830 -31.920  1.00  0.00     0.248 C 
HETATM   10  O1  UNL     1      24.530  61.220 -32.186  1.00  0.00    -0.271 OA
ATOM     11  H2  UNL     1      26.853  59.378 -30.966  1.00  0.00     0.163 HD
BRANCH   9  12
HETATM   12  C2  UNL     1      26.836  61.647 -32.415  1.00  0.00     0.270 C 
HETATM   13  C1  UNL     1      28.051  61.249 -31.542  1.00  0.00     0.050 C 
BRANCH  12  14
HETATM   14  N1  UNL     1      27.178  61.267 -33.794  1.00  0.00    -0.067 N 
ATOM     15  H13 UNL     1      26.363  61.133 -34.392  1.00  0.00     0.275 HD
ATOM     16  H12 UNL     1      27.603  62.025 -34.330  1.00  0.00     0.275 HD
ATOM     17  H11 UNL     1      27.769  60.440 -33.724  1.00  0.00     0.275 HD
ENDBRANCH  12  14
ENDBRANCH   9  12
ENDBRANCH   5   8
ENDBRANCH   1   5
BRANCH   3  18
HETATM   18  C6  UNL     1      24.273  56.689 -33.972  1.00  0.00     0.189 C 
HETATM   19  C8  UNL     1      25.260  56.290 -34.997  1.00  0.00     0.064 C 
HETATM   20  C9  UNL     1      25.357  54.812 -35.222  1.00  0.00     0.014 C 
HETATM   21  C10 UNL     1      25.294  53.952 -34.007  1.00  0.00     0.103 C 
HETATM   22  C11 UNL     1      24.128  54.347 -33.161  1.00  0.00     0.219 C 
HETATM   23  O4  UNL     1      23.735  53.554 -32.241  1.00  0.00    -0.274 OA
HETATM   24  N5  UNL     1      23.510  55.570 -33.402  1.00  0.00    -0.327 N 
ATOM     25  H5  UNL     1      22.522  55.690 -33.182  1.00  0.00     0.165 HD
BRANCH  18  26
HETATM   26  C7  UNL     1      23.216  57.578 -34.524  1.00  0.00     0.280 C 
HETATM   27  N4  UNL     1      23.561  58.895 -35.036  1.00  0.00    -0.058 NA
HETATM   28  O3  UNL     1      22.022  57.262 -34.578  1.00  0.00    -0.272 OA
ENDBRANCH  18  26
ENDBRANCH   3  18
TORSDOF 6
ENDMDL
