MODEL 1
REMARK VINA RESULT: -7.596630172      0.000      0.000
REMARK  6 active torsions:
REMARK  status: ('A' for Active; 'I' for Inactive)
REMARK    1  A    between atoms: C3_5  and  N2_6 
REMARK    2  A    between atoms: N5_17  and  C9_19 
REMARK    3  A    between atoms: C9_19  and  C10_23 
REMARK    4  A    between atoms: C10_23  and  C11_24 
REMARK    5  A    between atoms: C11_24  and  C12_25 
REMARK    6  A    between atoms: C12_25  and  N7_26 
ROOT
HETATM    1  C1  UNL     1      23.578  53.353 -32.480  1.00  0.00     0.064 C 
HETATM    2  C2  UNL     1      24.225  54.326 -33.090  1.00  0.00     0.127 A 
HETATM    3  N1  UNL     1      24.878  54.169 -34.335  1.00  0.00    -0.176 N 
ATOM      4  H1  UNL     1      24.836  53.248 -34.772  1.00  0.00     0.185 HD
HETATM    5  C3  UNL     1      25.521  55.092 -34.965  1.00  0.00     0.696 A 
HETATM    6  N4  UNL     1      25.598  56.387 -34.386  1.00  0.00    -0.022 N 
ATOM      7  H4  UNL     1      26.102  57.132 -34.866  1.00  0.00     0.203 HD
HETATM    8  C8  UNL     1      24.972  56.644 -33.136  1.00  0.00     0.699 A 
HETATM    9  N5  UNL     1      25.042  57.822 -32.609  1.00  0.00    -0.180 N 
ATOM     10  H5  UNL     1      25.550  58.555 -33.105  1.00  0.00     0.185 HD
HETATM   11  N10 UNL     1      24.275  55.613 -32.468  1.00  0.00    -0.176 N 
ATOM     12  H10 UNL     1      23.821  55.781 -31.570  1.00  0.00     0.185 HD
ENDROOT
BRANCH   9  13
HETATM   13  C9  UNL     1      24.442  58.125 -31.378  1.00  0.00     0.091 C 
HETATM   14  N6  UNL     1      23.145  58.132 -31.299  1.00  0.00    -0.388 N 
ATOM     15  H62 UNL     1      22.597  57.917 -32.131  1.00  0.00     0.157 HD
ATOM     16  H61 UNL     1      22.709  58.351 -30.403  1.00  0.00     0.157 HD
BRANCH  13  17
HETATM   17  C10 UNL     1      25.238  58.436 -30.169  1.00  0.00     0.078 C 
BRANCH  17  18
HETATM   18  C11 UNL     1      24.702  59.679 -29.491  1.00  0.00     0.027 C 
BRANCH  18  19
HETATM   19  C12 UNL     1      25.398  59.746 -28.126  1.00  0.00     0.122 C 
BRANCH  19  20
HETATM   20  N7  UNL     1      24.757  58.788 -27.248  1.00  0.00    -0.367 N 
HETATM   21  C13 UNL     1      25.400  57.841 -26.659  1.00  0.00     0.196 C 
HETATM   22  N8  UNL     1      24.722  56.943 -25.820  1.00  0.00    -0.067 NA
HETATM   23  N9  UNL     1      26.799  57.699 -26.855  1.00  0.00    -0.067 NA
ATOM     24  H7  UNL     1      23.752  58.867 -27.091  1.00  0.00     0.161 HD
ENDBRANCH  19  20
ENDBRANCH  18  19
ENDBRANCH  17  18
ENDBRANCH  13  17
ENDBRANCH   9  13
BRANCH   5  25
HETATM   25  N2  UNL     1      26.147  54.804 -36.234  1.00  0.00    -0.214 N 
HETATM   26  C4  UNL     1      26.485  53.444 -36.506  1.00  0.00     0.168 C 
HETATM   27  C5  UNL     1      26.745  53.170 -37.964  1.00  0.00     0.252 C 
HETATM   28  N3  UNL     1      27.249  54.333 -38.663  1.00  0.00    -0.072 N 
HETATM   29  C6  UNL     1      26.260  55.381 -38.541  1.00  0.00     0.252 C 
ATOM     30  H32 UNL     1      28.172  54.621 -38.340  1.00  0.00     0.277 HD
ATOM     31  H31 UNL     1      27.500  54.136 -39.632  1.00  0.00     0.277 HD
HETATM   32  C7  UNL     1      26.374  55.921 -37.113  1.00  0.00     0.168 C 
ENDBRANCH   5  25
TORSDOF 6
ENDMDL
MODEL 2
REMARK VINA RESULT: -7.592764249      0.516      1.114
REMARK  6 active torsions:
REMARK  status: ('A' for Active; 'I' for Inactive)
REMARK    1  A    between atoms: C3_5  and  N2_6 
REMARK    2  A    between atoms: N5_17  and  C9_19 
REMARK    3  A    between atoms: C9_19  and  C10_23 
REMARK    4  A    between atoms: C10_23  and  C11_24 
REMARK    5  A    between atoms: C11_24  and  C12_25 
REMARK    6  A    between atoms: C12_25  and  N7_26 
ROOT
HETATM    1  C1  UNL     1      23.418  53.178 -32.210  1.00  0.00     0.064 C 
HETATM    2  C2  UNL     1      24.031  54.097 -32.929  1.00  0.00     0.127 A 
HETATM    3  N1  UNL     1      24.610  53.841 -34.194  1.00  0.00    -0.176 N 
ATOM      4  H1  UNL     1      24.541  52.890 -34.555  1.00  0.00     0.185 HD
HETATM    5  C3  UNL     1      25.218  54.710 -34.928  1.00  0.00     0.696 A 
HETATM    6  N4  UNL     1      25.331  56.045 -34.454  1.00  0.00    -0.022 N 
ATOM      7  H4  UNL     1      25.809  56.748 -35.019  1.00  0.00     0.203 HD
HETATM    8  C8  UNL     1      24.779  56.400 -33.194  1.00  0.00     0.699 A 
HETATM    9  N5  UNL     1      24.882  57.614 -32.763  1.00  0.00    -0.180 N 
ATOM     10  H5  UNL     1      25.362  58.304 -33.342  1.00  0.00     0.185 HD
HETATM   11  N10 UNL     1      24.119  55.427 -32.411  1.00  0.00    -0.176 N 
ATOM     12  H10 UNL     1      23.718  55.666 -31.504  1.00  0.00     0.185 HD
ENDROOT
BRANCH   9  13
HETATM   13  C9  UNL     1      24.355  58.013 -31.527  1.00  0.00     0.091 C 
HETATM   14  N6  UNL     1      23.065  58.093 -31.392  1.00  0.00    -0.388 N 
ATOM     15  H62 UNL     1      22.469  57.863 -32.187  1.00  0.00     0.157 HD
ATOM     16  H61 UNL     1      22.681  58.383 -30.493  1.00  0.00     0.157 HD
BRANCH  13  17
HETATM   17  C10 UNL     1      25.219  58.346 -30.372  1.00  0.00     0.078 C 
BRANCH  17  18
HETATM   18  C11 UNL     1      24.688  59.567 -29.650  1.00  0.00     0.027 C 
BRANCH  18  19
HETATM   19  C12 UNL     1      25.458  59.639 -28.325  1.00  0.00     0.122 C 
BRANCH  19  20
HETATM   20  N7  UNL     1      24.806  58.756 -27.379  1.00  0.00    -0.367 N 
HETATM   21  C13 UNL     1      25.435  57.835 -26.737  1.00  0.00     0.196 C 
HETATM   22  N8  UNL     1      24.748  57.011 -25.832  1.00  0.00    -0.067 NA
HETATM   23  N9  UNL     1      26.828  57.647 -26.939  1.00  0.00    -0.067 NA
ATOM     24  H7  UNL     1      23.806  58.870 -27.215  1.00  0.00     0.161 HD
ENDBRANCH  19  20
ENDBRANCH  18  19
ENDBRANCH  17  18
ENDBRANCH  13  17
ENDBRANCH   9  13
BRANCH   5  25
HETATM   25  N2  UNL     1      25.769  54.322 -36.205  1.00  0.00    -0.214 N 
HETATM   26  C4  UNL     1      26.378  55.343 -36.995  1.00  0.00     0.168 C 
HETATM   27  C5  UNL     1      27.268  54.807 -38.086  1.00  0.00     0.252 C 
HETATM   28  N3  UNL     1      26.846  53.502 -38.551  1.00  0.00    -0.072 N 
HETATM   29  C6  UNL     1      26.881  52.602 -37.420  1.00  0.00     0.252 C 
ATOM     30  H32 UNL     1      25.939  53.520 -39.016  1.00  0.00     0.277 HD
ATOM     31  H31 UNL     1      27.396  53.166 -39.342  1.00  0.00     0.277 HD
HETATM   32  C7  UNL     1      25.654  52.932 -36.566  1.00  0.00     0.168 C 
ENDBRANCH   5  25
TORSDOF 6
ENDMDL
MODEL 3
REMARK VINA RESULT: -7.573130506      1.436      2.193
REMARK  6 active torsions:
REMARK  status: ('A' for Active; 'I' for Inactive)
REMARK    1  A    between atoms: C3_5  and  N2_6 
REMARK    2  A    between atoms: N5_17  and  C9_19 
REMARK    3  A    between atoms: C9_19  and  C10_23 
REMARK    4  A    between atoms: C10_23  and  C11_24 
REMARK    5  A    between atoms: C11_24  and  C12_25 
REMARK    6  A    between atoms: C12_25  and  N7_26 
ROOT
HETATM    1  C1  UNL     1      24.490  58.814 -35.895  1.00  0.00     0.064 C 
HETATM    2  C2  UNL     1      24.717  57.753 -35.146  1.00  0.00     0.127 A 
HETATM    3  N1  UNL     1      25.041  56.480 -35.671  1.00  0.00    -0.176 N 
ATOM      4  H1  UNL     1      25.098  56.395 -36.686  1.00  0.00     0.185 HD
HETATM    5  C3  UNL     1      25.269  55.420 -34.976  1.00  0.00     0.696 A 
HETATM    6  N4  UNL     1      25.199  55.503 -33.559  1.00  0.00    -0.022 N 
ATOM      7  H4  UNL     1      25.375  54.676 -32.989  1.00  0.00     0.203 HD
HETATM    8  C8  UNL     1      24.881  56.741 -32.937  1.00  0.00     0.699 A 
HETATM    9  N5  UNL     1      24.817  56.817 -31.648  1.00  0.00    -0.180 N 
ATOM     10  H5  UNL     1      24.998  55.980 -31.094  1.00  0.00     0.185 HD
HETATM   11  N10 UNL     1      24.635  57.887 -33.724  1.00  0.00    -0.176 N 
ATOM     12  H10 UNL     1      24.405  58.782 -33.292  1.00  0.00     0.185 HD
ENDROOT
BRANCH   9  13
HETATM   13  C9  UNL     1      24.507  58.015 -30.987  1.00  0.00     0.091 C 
HETATM   14  N6  UNL     1      23.259  58.325 -30.805  1.00  0.00    -0.388 N 
ATOM     15  H62 UNL     1      22.537  57.692 -31.147  1.00  0.00     0.157 HD
ATOM     16  H61 UNL     1      23.034  59.196 -30.324  1.00  0.00     0.157 HD
BRANCH  13  17
HETATM   17  C10 UNL     1      25.556  58.934 -30.490  1.00  0.00     0.078 C 
BRANCH  17  18
HETATM   18  C11 UNL     1      24.931  60.087 -29.732  1.00  0.00     0.027 C 
BRANCH  18  19
HETATM   19  C12 UNL     1      25.575  60.073 -28.340  1.00  0.00     0.122 C 
BRANCH  19  20
HETATM   20  N7  UNL     1      24.871  59.101 -27.529  1.00  0.00    -0.367 N 
HETATM   21  C13 UNL     1      25.469  58.147 -26.907  1.00  0.00     0.196 C 
HETATM   22  N8  UNL     1      24.730  57.235 -26.136  1.00  0.00    -0.067 NA
HETATM   23  N9  UNL     1      26.879  58.010 -26.996  1.00  0.00    -0.067 NA
ATOM     24  H7  UNL     1      23.857  59.177 -27.449  1.00  0.00     0.161 HD
ENDBRANCH  19  20
ENDBRANCH  18  19
ENDBRANCH  17  18
ENDBRANCH  13  17
ENDBRANCH   9  13
BRANCH   5  25
HETATM   25  N2  UNL     1      25.590  54.175 -35.634  1.00  0.00    -0.214 N 
HETATM   26  C4  UNL     1      24.818  53.027 -35.282  1.00  0.00     0.168 C 
HETATM   27  C5  UNL     1      24.928  51.901 -36.276  1.00  0.00     0.252 C 
HETATM   28  N3  UNL     1      26.201  51.897 -36.966  1.00  0.00    -0.072 N 
HETATM   29  C6  UNL     1      26.328  53.161 -37.658  1.00  0.00     0.252 C 
ATOM     30  H32 UNL     1      26.988  51.703 -36.347  1.00  0.00     0.277 HD
ATOM     31  H31 UNL     1      26.315  51.094 -37.584  1.00  0.00     0.277 HD
HETATM   32  C7  UNL     1      26.665  54.206 -36.592  1.00  0.00     0.168 C 
ENDBRANCH   5  25
TORSDOF 6
ENDMDL
MODEL 4
REMARK VINA RESULT: -7.417291104      2.287      3.707
REMARK  6 active torsions:
REMARK  status: ('A' for Active; 'I' for Inactive)
REMARK    1  A    between atoms: C3_5  and  N2_6 
REMARK    2  A    between atoms: N5_17  and  C9_19 
REMARK    3  A    between atoms: C9_19  and  C10_23 
REMARK    4  A    between atoms: C10_23  and  C11_24 
REMARK    5  A    between atoms: C11_24  and  C12_25 
REMARK    6  A    between atoms: C12_25  and  N7_26 
ROOT
HETATM    1  C1  UNL     1      22.951  59.336 -33.756  1.00  0.00     0.064 C 
HETATM    2  C2  UNL     1      23.539  58.394 -33.045  1.00  0.00     0.127 A 
HETATM    3  N1  UNL     1      23.708  57.065 -33.499  1.00  0.00    -0.176 N 
ATOM      4  H1  UNL     1      23.351  56.839 -34.428  1.00  0.00     0.185 HD
HETATM    5  C3  UNL     1      24.274  56.114 -32.838  1.00  0.00     0.696 A 
HETATM    6  N4  UNL     1      24.784  56.394 -31.541  1.00  0.00    -0.022 N 
ATOM      7  H4  UNL     1      25.236  55.656 -31.000  1.00  0.00     0.203 HD
HETATM    8  C8  UNL     1      24.663  57.701 -30.998  1.00  0.00     0.699 A 
HETATM    9  N5  UNL     1      25.126  57.956 -29.819  1.00  0.00    -0.180 N 
ATOM     10  H5  UNL     1      25.576  57.206 -29.293  1.00  0.00     0.185 HD
HETATM   11  N10 UNL     1      24.036  58.723 -31.746  1.00  0.00    -0.176 N 
ATOM     12  H10 UNL     1      23.941  59.667 -31.369  1.00  0.00     0.185 HD
ENDROOT
BRANCH   9  13
HETATM   13  C9  UNL     1      25.031  59.230 -29.239  1.00  0.00     0.091 C 
HETATM   14  N6  UNL     1      24.333  59.372 -28.153  1.00  0.00    -0.388 N 
ATOM     15  H62 UNL     1      23.873  58.557 -27.749  1.00  0.00     0.157 HD
ATOM     16  H61 UNL     1      24.264  60.299 -27.731  1.00  0.00     0.157 HD
BRANCH  13  17
HETATM   17  C10 UNL     1      25.699  60.414 -29.825  1.00  0.00     0.078 C 
BRANCH  17  18
HETATM   18  C11 UNL     1      26.419  61.199 -28.749  1.00  0.00     0.027 C 
BRANCH  18  19
HETATM   19  C12 UNL     1      27.869  60.698 -28.764  1.00  0.00     0.122 C 
BRANCH  19  20
HETATM   20  N7  UNL     1      28.391  60.799 -27.416  1.00  0.00    -0.367 N 
HETATM   21  C13 UNL     1      28.462  59.792 -26.617  1.00  0.00     0.196 C 
HETATM   22  N8  UNL     1      28.979  59.954 -25.322  1.00  0.00    -0.067 NA
HETATM   23  N9  UNL     1      28.018  58.512 -27.042  1.00  0.00    -0.067 NA
ATOM     24  H7  UNL     1      28.717  61.708 -27.086  1.00  0.00     0.161 HD
ENDBRANCH  19  20
ENDBRANCH  18  19
ENDBRANCH  17  18
ENDBRANCH  13  17
ENDBRANCH   9  13
BRANCH   5  25
HETATM   25  N2  UNL     1      24.384  54.795 -33.414  1.00  0.00    -0.214 N 
HETATM   26  C4  UNL     1      23.563  53.766 -32.862  1.00  0.00     0.168 C 
HETATM   27  C5  UNL     1      23.431  52.559 -33.753  1.00  0.00     0.252 C 
HETATM   28  N3  UNL     1      24.592  52.367 -34.596  1.00  0.00    -0.072 N 
HETATM   29  C6  UNL     1      24.742  53.551 -35.412  1.00  0.00     0.252 C 
ATOM     30  H32 UNL     1      25.434  52.141 -34.067  1.00  0.00     0.277 HD
ATOM     31  H31 UNL     1      24.545  51.509 -35.147  1.00  0.00     0.277 HD
HETATM   32  C7  UNL     1      25.318  54.636 -34.499  1.00  0.00     0.168 C 
ENDBRANCH   5  25
TORSDOF 6
ENDMDL
MODEL 5
REMARK VINA RESULT: -7.404397506      1.036      1.112
REMARK  6 active torsions:
REMARK  status: ('A' for Active; 'I' for Inactive)
REMARK    1  A    between atoms: C3_5  and  N2_6 
REMARK    2  A    between atoms: N5_17  and  C9_19 
REMARK    3  A    between atoms: C9_19  and  C10_23 
REMARK    4  A    between atoms: C10_23  and  C11_24 
REMARK    5  A    between atoms: C11_24  and  C12_25 
REMARK    6  A    between atoms: C12_25  and  N7_26 
ROOT
HETATM    1  C1  UNL     1      23.279  53.180 -32.162  1.00  0.00     0.064 C 
HETATM    2  C2  UNL     1      23.920  53.943 -33.025  1.00  0.00     0.127 A 
HETATM    3  N1  UNL     1      24.520  53.450 -34.207  1.00  0.00    -0.176 N 
ATOM      4  H1  UNL     1      24.443  52.449 -34.388  1.00  0.00     0.185 HD
HETATM    5  C3  UNL     1      25.156  54.159 -35.076  1.00  0.00     0.696 A 
HETATM    6  N4  UNL     1      25.281  55.557 -34.856  1.00  0.00    -0.022 N 
ATOM      7  H4  UNL     1      25.780  56.137 -35.531  1.00  0.00     0.203 HD
HETATM    8  C8  UNL     1      24.711  56.147 -33.696  1.00  0.00     0.699 A 
HETATM    9  N5  UNL     1      24.824  57.419 -33.496  1.00  0.00    -0.180 N 
ATOM     10  H5  UNL     1      25.326  57.983 -34.182  1.00  0.00     0.185 HD
HETATM   11  N10 UNL     1      24.020  55.345 -32.761  1.00  0.00    -0.176 N 
ATOM     12  H10 UNL     1      23.605  55.753 -31.923  1.00  0.00     0.185 HD
ENDROOT
BRANCH   9  13
HETATM   13  C9  UNL     1      24.279  58.047 -32.367  1.00  0.00     0.091 C 
HETATM   14  N6  UNL     1      23.146  58.672 -32.484  1.00  0.00    -0.388 N 
ATOM     15  H62 UNL     1      22.682  58.690 -33.392  1.00  0.00     0.157 HD
ATOM     16  H61 UNL     1      22.749  59.129 -31.663  1.00  0.00     0.157 HD
BRANCH  13  17
HETATM   17  C10 UNL     1      24.952  58.021 -31.049  1.00  0.00     0.078 C 
BRANCH  17  18
HETATM   18  C11 UNL     1      24.135  58.780 -30.024  1.00  0.00     0.027 C 
BRANCH  18  19
HETATM   19  C12 UNL     1      25.069  59.010 -28.830  1.00  0.00     0.122 C 
BRANCH  19  20
HETATM   20  N7  UNL     1      24.548  58.262 -27.703  1.00  0.00    -0.367 N 
HETATM   21  C13 UNL     1      25.306  57.694 -26.831  1.00  0.00     0.196 C 
HETATM   22  N8  UNL     1      24.741  56.984 -25.761  1.00  0.00    -0.067 NA
HETATM   23  N9  UNL     1      26.718  57.784 -26.947  1.00  0.00    -0.067 NA
ATOM     24  H7  UNL     1      23.537  58.183 -27.597  1.00  0.00     0.161 HD
ENDBRANCH  19  20
ENDBRANCH  18  19
ENDBRANCH  17  18
ENDBRANCH  13  17
ENDBRANCH   9  13
BRANCH   5  25
HETATM   25  N2  UNL     1      25.726  53.534 -36.246  1.00  0.00    -0.214 N 
HETATM   26  C4  UNL     1      25.372  52.175 -36.504  1.00  0.00     0.168 C 
HETATM   27  C5  UNL     1      25.663  51.736 -37.915  1.00  0.00     0.252 C 
HETATM   28  N3  UNL     1      26.775  52.456 -38.499  1.00  0.00    -0.072 N 
HETATM   29  C6  UNL     1      26.437  53.862 -38.495  1.00  0.00     0.252 C 
ATOM     30  H32 UNL     1      27.662  52.260 -38.036  1.00  0.00     0.277 HD
ATOM     31  H31 UNL     1      27.027  52.112 -39.426  1.00  0.00     0.277 HD
HETATM   32  C7  UNL     1      26.603  54.343 -37.051  1.00  0.00     0.168 C 
ENDBRANCH   5  25
TORSDOF 6
ENDMDL
