MODEL 1
REMARK VINA RESULT: -7.043796049      0.000      0.000
REMARK  5 active torsions:
REMARK  status: ('A' for Active; 'I' for Inactive)
REMARK    1  A    between atoms: C5_9  and  C6_10 
REMARK    2  A    between atoms: C5_9  and  N6_23 
REMARK    3  A    between atoms: N3_11  and  N4_13 
REMARK       I    between atoms: N4_13  and  C7_15 
REMARK    4  A    between atoms: C7_15  and  C8_17 
REMARK    5  A    between atoms: C8_17  and  N5_18 
ROOT
HETATM    1  C1  UNL     1      26.315  54.826 -35.221  1.00  0.00     0.151 C 
HETATM    2  N1  UNL     1      25.153  54.147 -34.826  1.00  0.00    -0.364 N 
HETATM    3  C2  UNL     1      25.006  52.807 -35.207  1.00  0.00     0.088 C 
HETATM    4  C3  UNL     1      23.665  52.198 -34.914  1.00  0.00     0.276 C 
HETATM    5  N2  UNL     1      23.109  52.623 -33.654  1.00  0.00    -0.066 N 
ATOM      6  H21 UNL     1      22.788  51.824 -33.109  1.00  0.00     0.277 HD
ATOM      7  H22 UNL     1      22.217  53.098 -33.790  1.00  0.00     0.277 HD
HETATM    8  C4  UNL     1      24.021  53.440 -32.888  1.00  0.00     0.292 C 
HETATM    9  C5  UNL     1      24.354  54.651 -33.788  1.00  0.00     0.166 C 
ENDROOT
BRANCH   9  10
HETATM   10  C6  UNL     1      25.098  55.572 -32.883  1.00  0.00     0.135 C 
HETATM   11  N3  UNL     1      24.402  56.216 -32.021  1.00  0.00    -0.309 N 
ATOM     12  H3  UNL     1      23.395  56.051 -32.020  1.00  0.00     0.185 HD
BRANCH  11  13
HETATM   13  N4  UNL     1      24.898  57.124 -31.082  1.00  0.00    -0.269 N 
HETATM   14  C7  UNL     1      24.289  58.328 -30.737  1.00  0.00     0.264 C 
HETATM   15  O1  UNL     1      23.201  58.615 -31.329  1.00  0.00    -0.270 OA
ATOM     16  H4  UNL     1      25.772  56.887 -30.613  1.00  0.00     0.190 HD
BRANCH  14  17
HETATM   17  C8  UNL     1      24.840  59.242 -29.750  1.00  0.00     0.376 C 
BRANCH  17  18
HETATM   18  N5  UNL     1      24.870  60.634 -30.105  1.00  0.00     0.097 N 
HETATM   19  C9  UNL     1      25.439  61.326 -28.943  1.00  0.00     0.273 C 
HETATM   20  C10 UNL     1      26.932  61.318 -29.166  1.00  0.00     0.032 C 
HETATM   21  C11 UNL     1      27.005  61.578 -30.647  1.00  0.00     0.032 C 
HETATM   22  C12 UNL     1      25.800  60.901 -31.190  1.00  0.00     0.273 C 
ENDBRANCH  17  18
ENDBRANCH  14  17
ENDBRANCH  11  13
ENDBRANCH   9  10
BRANCH   9  23
HETATM   23  N6  UNL     1      23.101  55.202 -34.149  1.00  0.00    -0.334 N 
HETATM   24  C13 UNL     1      22.795  56.278 -34.726  1.00  0.00     0.199 C 
HETATM   25  N7  UNL     1      23.731  57.248 -35.179  1.00  0.00    -0.067 NA
HETATM   26  N8  UNL     1      21.429  56.561 -34.951  1.00  0.00    -0.067 NA
ATOM     27  H6  UNL     1      22.301  54.623 -33.893  1.00  0.00     0.164 HD
ENDBRANCH   9  23
TORSDOF 5
ENDMDL
MODEL 2
REMARK VINA RESULT: -6.767705041      5.644     11.575
REMARK  5 active torsions:
REMARK  status: ('A' for Active; 'I' for Inactive)
REMARK    1  A    between atoms: C5_9  and  C6_10 
REMARK    2  A    between atoms: C5_9  and  N6_23 
REMARK    3  A    between atoms: N3_11  and  N4_13 
REMARK       I    between atoms: N4_13  and  C7_15 
REMARK    4  A    between atoms: C7_15  and  C8_17 
REMARK    5  A    between atoms: C8_17  and  N5_18 
ROOT
HETATM    1  C1  UNL     1      31.084  62.152 -25.141  1.00  0.00     0.151 C 
HETATM    2  N1  UNL     1      30.926  63.545 -25.106  1.00  0.00    -0.364 N 
HETATM    3  C2  UNL     1      31.993  64.322 -24.632  1.00  0.00     0.088 C 
HETATM    4  C3  UNL     1      31.692  65.781 -24.445  1.00  0.00     0.276 C 
HETATM    5  N2  UNL     1      30.846  66.326 -25.476  1.00  0.00    -0.066 N 
ATOM      6  H21 UNL     1      31.235  67.192 -25.848  1.00  0.00     0.277 HD
ATOM      7  H22 UNL     1      29.979  66.691 -25.083  1.00  0.00     0.277 HD
HETATM    8  C4  UNL     1      30.577  65.381 -26.536  1.00  0.00     0.292 C 
HETATM    9  C5  UNL     1      29.913  64.165 -25.852  1.00  0.00     0.166 C 
ENDROOT
BRANCH   9  10
HETATM   10  C6  UNL     1      29.444  63.329 -26.993  1.00  0.00     0.135 C 
HETATM   11  N3  UNL     1      28.187  63.084 -27.047  1.00  0.00    -0.309 N 
ATOM     12  H3  UNL     1      27.605  63.476 -26.308  1.00  0.00     0.185 HD
BRANCH  11  13
HETATM   13  N4  UNL     1      27.543  62.326 -28.029  1.00  0.00    -0.269 N 
HETATM   14  C7  UNL     1      27.341  60.949 -27.970  1.00  0.00     0.264 C 
HETATM   15  O1  UNL     1      27.783  60.345 -26.943  1.00  0.00    -0.270 OA
ATOM     16  H4  UNL     1      27.193  62.819 -28.851  1.00  0.00     0.190 HD
BRANCH  14  17
HETATM   17  C8  UNL     1      26.662  60.202 -29.015  1.00  0.00     0.376 C 
BRANCH  17  18
HETATM   18  N5  UNL     1      25.256  60.451 -29.177  1.00  0.00     0.097 N 
HETATM   19  C9  UNL     1      25.111  61.044 -30.511  1.00  0.00     0.273 C 
HETATM   20  C10 UNL     1      24.932  59.876 -31.450  1.00  0.00     0.032 C 
HETATM   21  C11 UNL     1      24.045  58.978 -30.629  1.00  0.00     0.032 C 
HETATM   22  C12 UNL     1      24.486  59.220 -29.231  1.00  0.00     0.273 C 
ENDBRANCH  17  18
ENDBRANCH  14  17
ENDBRANCH  11  13
ENDBRANCH   9  10
BRANCH   9  23
HETATM   23  N6  UNL     1      28.815  64.696 -25.133  1.00  0.00    -0.334 N 
HETATM   24  C13 UNL     1      28.114  64.219 -24.203  1.00  0.00     0.199 C 
HETATM   25  N7  UNL     1      28.299  62.930 -23.630  1.00  0.00    -0.067 NA
HETATM   26  N8  UNL     1      27.063  65.003 -23.677  1.00  0.00    -0.067 NA
ATOM     27  H6  UNL     1      28.543  65.637 -25.421  1.00  0.00     0.164 HD
ENDBRANCH   9  23
TORSDOF 5
ENDMDL
MODEL 3
REMARK VINA RESULT: -6.562312069      5.748     11.655
REMARK  5 active torsions:
REMARK  status: ('A' for Active; 'I' for Inactive)
REMARK    1  A    between atoms: C5_9  and  C6_10 
REMARK    2  A    between atoms: C5_9  and  N6_23 
REMARK    3  A    between atoms: N3_11  and  N4_13 
REMARK       I    between atoms: N4_13  and  C7_15 
REMARK    4  A    between atoms: C7_15  and  C8_17 
REMARK    5  A    between atoms: C8_17  and  N5_18 
ROOT
HETATM    1  C1  UNL     1      31.048  65.737 -26.384  1.00  0.00     0.151 C 
HETATM    2  N1  UNL     1      30.322  65.287 -25.271  1.00  0.00    -0.364 N 
HETATM    3  C2  UNL     1      30.138  66.170 -24.198  1.00  0.00     0.088 C 
HETATM    4  C3  UNL     1      29.519  65.569 -22.969  1.00  0.00     0.276 C 
HETATM    5  N2  UNL     1      28.482  64.613 -23.262  1.00  0.00    -0.066 N 
ATOM      6  H21 UNL     1      27.643  64.804 -22.715  1.00  0.00     0.277 HD
ATOM      7  H22 UNL     1      28.716  63.693 -22.889  1.00  0.00     0.277 HD
HETATM    8  C4  UNL     1      28.174  64.537 -24.672  1.00  0.00     0.292 C 
HETATM    9  C5  UNL     1      29.500  64.155 -25.369  1.00  0.00     0.166 C 
ENDROOT
BRANCH   9  10
HETATM   10  C6  UNL     1      29.090  63.859 -26.771  1.00  0.00     0.135 C 
HETATM   11  N3  UNL     1      28.306  62.861 -26.942  1.00  0.00    -0.309 N 
ATOM     12  H3  UNL     1      28.022  62.345 -26.109  1.00  0.00     0.185 HD
BRANCH  11  13
HETATM   13  N4  UNL     1      27.803  62.415 -28.167  1.00  0.00    -0.269 N 
HETATM   14  C7  UNL     1      27.199  61.178 -28.380  1.00  0.00     0.264 C 
HETATM   15  O1  UNL     1      27.105  60.402 -27.377  1.00  0.00    -0.270 OA
ATOM     16  H4  UNL     1      27.884  63.043 -28.967  1.00  0.00     0.190 HD
BRANCH  14  17
HETATM   17  C8  UNL     1      26.687  60.757 -29.673  1.00  0.00     0.376 C 
BRANCH  17  18
HETATM   18  N5  UNL     1      25.314  61.071 -29.957  1.00  0.00     0.097 N 
HETATM   19  C9  UNL     1      25.328  61.782 -31.240  1.00  0.00     0.273 C 
HETATM   20  C10 UNL     1      25.219  60.706 -32.293  1.00  0.00     0.032 C 
HETATM   21  C11 UNL     1      24.224  59.775 -31.653  1.00  0.00     0.032 C 
HETATM   22  C12 UNL     1      24.520  59.878 -30.201  1.00  0.00     0.273 C 
ENDBRANCH  17  18
ENDBRANCH  14  17
ENDBRANCH  11  13
ENDBRANCH   9  10
BRANCH   9  23
HETATM   23  N6  UNL     1      29.939  62.979 -24.714  1.00  0.00    -0.334 N 
HETATM   24  C13 UNL     1      30.994  62.303 -24.828  1.00  0.00     0.199 C 
HETATM   25  N7  UNL     1      32.060  62.610 -25.718  1.00  0.00    -0.067 NA
HETATM   26  N8  UNL     1      31.150  61.152 -24.023  1.00  0.00    -0.067 NA
ATOM     27  H6  UNL     1      29.281  62.614 -24.025  1.00  0.00     0.164 HD
ENDBRANCH   9  23
TORSDOF 5
ENDMDL
MODEL 4
REMARK VINA RESULT: -6.498378652      1.399      2.473
REMARK  5 active torsions:
REMARK  status: ('A' for Active; 'I' for Inactive)
REMARK    1  A    between atoms: C5_9  and  C6_10 
REMARK    2  A    between atoms: C5_9  and  N6_23 
REMARK    3  A    between atoms: N3_11  and  N4_13 
REMARK       I    between atoms: N4_13  and  C7_15 
REMARK    4  A    between atoms: C7_15  and  C8_17 
REMARK    5  A    between atoms: C8_17  and  N5_18 
ROOT
HETATM    1  C1  UNL     1      24.694  57.483 -35.899  1.00  0.00     0.151 C 
HETATM    2  N1  UNL     1      25.221  56.184 -35.864  1.00  0.00    -0.364 N 
HETATM    3  C2  UNL     1      25.877  55.703 -37.006  1.00  0.00     0.088 C 
HETATM    4  C3  UNL     1      26.249  54.249 -36.970  1.00  0.00     0.276 C 
HETATM    5  N2  UNL     1      26.705  53.809 -35.676  1.00  0.00    -0.066 N 
ATOM      6  H21 UNL     1      27.579  53.291 -35.754  1.00  0.00     0.277 HD
ATOM      7  H22 UNL     1      26.107  53.069 -35.310  1.00  0.00     0.277 HD
HETATM    8  C4  UNL     1      26.827  54.893 -34.728  1.00  0.00     0.292 C 
HETATM    9  C5  UNL     1      25.422  55.530 -34.639  1.00  0.00     0.166 C 
ENDROOT
BRANCH   9  10
HETATM   10  C6  UNL     1      25.534  56.476 -33.493  1.00  0.00     0.135 C 
HETATM   11  N3  UNL     1      24.847  56.196 -32.448  1.00  0.00    -0.309 N 
ATOM     12  H3  UNL     1      24.276  55.352 -32.480  1.00  0.00     0.185 HD
BRANCH  11  13
HETATM   13  N4  UNL     1      24.809  56.945 -31.269  1.00  0.00    -0.269 N 
HETATM   14  C7  UNL     1      23.982  58.043 -31.047  1.00  0.00     0.264 C 
HETATM   15  O1  UNL     1      23.208  58.384 -31.997  1.00  0.00    -0.270 OA
ATOM     16  H4  UNL     1      25.434  56.666 -30.513  1.00  0.00     0.190 HD
BRANCH  14  17
HETATM   17  C8  UNL     1      23.973  58.792 -29.802  1.00  0.00     0.376 C 
BRANCH  17  18
HETATM   18  N5  UNL     1      25.253  59.137 -29.247  1.00  0.00     0.097 N 
HETATM   19  C9  UNL     1      25.929  59.935 -30.277  1.00  0.00     0.273 C 
HETATM   20  C10 UNL     1      25.516  61.362 -30.010  1.00  0.00     0.032 C 
HETATM   21  C11 UNL     1      25.550  61.396 -28.505  1.00  0.00     0.032 C 
HETATM   22  C12 UNL     1      25.131  60.028 -28.106  1.00  0.00     0.273 C 
ENDBRANCH  17  18
ENDBRANCH  14  17
ENDBRANCH  11  13
ENDBRANCH   9  10
BRANCH   9  23
HETATM   23  N6  UNL     1      24.549  54.461 -34.326  1.00  0.00    -0.334 N 
HETATM   24  C13 UNL     1      23.305  54.426 -34.137  1.00  0.00     0.199 C 
HETATM   25  N7  UNL     1      22.443  55.555 -34.206  1.00  0.00    -0.067 NA
HETATM   26  N8  UNL     1      22.702  53.185 -33.832  1.00  0.00    -0.067 NA
ATOM     27  H6  UNL     1      25.011  53.556 -34.239  1.00  0.00     0.164 HD
ENDBRANCH   9  23
TORSDOF 5
ENDMDL
MODEL 5
REMARK VINA RESULT: -6.399182752      1.685      2.061
REMARK  5 active torsions:
REMARK  status: ('A' for Active; 'I' for Inactive)
REMARK    1  A    between atoms: C5_9  and  C6_10 
REMARK    2  A    between atoms: C5_9  and  N6_23 
REMARK    3  A    between atoms: N3_11  and  N4_13 
REMARK       I    between atoms: N4_13  and  C7_15 
REMARK    4  A    between atoms: C7_15  and  C8_17 
REMARK    5  A    between atoms: C8_17  and  N5_18 
ROOT
HETATM    1  C1  UNL     1      25.901  58.354 -36.014  1.00  0.00     0.151 C 
HETATM    2  N1  UNL     1      25.720  56.971 -35.867  1.00  0.00    -0.364 N 
HETATM    3  C2  UNL     1      26.291  56.123 -36.826  1.00  0.00     0.088 C 
HETATM    4  C3  UNL     1      25.904  54.676 -36.715  1.00  0.00     0.276 C 
HETATM    5  N2  UNL     1      25.808  54.214 -35.354  1.00  0.00    -0.066 N 
ATOM      6  H21 UNL     1      26.321  53.342 -35.227  1.00  0.00     0.277 HD
ATOM      7  H22 UNL     1      24.866  53.882 -35.146  1.00  0.00     0.277 HD
HETATM    8  C4  UNL     1      26.231  55.208 -34.395  1.00  0.00     0.292 C 
HETATM    9  C5  UNL     1      25.320  56.433 -34.635  1.00  0.00     0.166 C 
ENDROOT
BRANCH   9  10
HETATM   10  C6  UNL     1      25.625  57.333 -33.486  1.00  0.00     0.135 C 
HETATM   11  N3  UNL     1      25.098  57.026 -32.360  1.00  0.00    -0.309 N 
ATOM     12  H3  UNL     1      24.510  56.193 -32.334  1.00  0.00     0.185 HD
BRANCH  11  13
HETATM   13  N4  UNL     1      25.256  57.729 -31.163  1.00  0.00    -0.269 N 
HETATM   14  C7  UNL     1      24.266  58.494 -30.550  1.00  0.00     0.264 C 
HETATM   15  O1  UNL     1      23.138  58.552 -31.133  1.00  0.00    -0.270 OA
ATOM     16  H4  UNL     1      26.165  57.679 -30.703  1.00  0.00     0.190 HD
BRANCH  14  17
HETATM   17  C8  UNL     1      24.474  59.208 -29.302  1.00  0.00     0.376 C 
BRANCH  17  18
HETATM   18  N5  UNL     1      24.825  60.598 -29.403  1.00  0.00     0.097 N 
HETATM   19  C9  UNL     1      25.906  60.805 -28.432  1.00  0.00     0.273 C 
HETATM   20  C10 UNL     1      27.179  60.509 -29.187  1.00  0.00     0.032 C 
HETATM   21  C11 UNL     1      26.874  61.130 -30.524  1.00  0.00     0.032 C 
HETATM   22  C12 UNL     1      25.414  60.920 -30.691  1.00  0.00     0.273 C 
ENDBRANCH  17  18
ENDBRANCH  14  17
ENDBRANCH  11  13
ENDBRANCH   9  10
BRANCH   9  23
HETATM   23  N6  UNL     1      23.997  55.936 -34.547  1.00  0.00    -0.334 N 
HETATM   24  C13 UNL     1      22.888  56.523 -34.452  1.00  0.00     0.199 C 
HETATM   25  N7  UNL     1      22.719  57.935 -34.414  1.00  0.00    -0.067 NA
HETATM   26  N8  UNL     1      21.713  55.741 -34.378  1.00  0.00    -0.067 NA
ATOM     27  H6  UNL     1      23.932  54.918 -34.562  1.00  0.00     0.164 HD
ENDBRANCH   9  23
TORSDOF 5
ENDMDL
