MODEL 1
REMARK VINA RESULT: -7.102668970      0.000      0.000
REMARK  7 active torsions:
REMARK  status: ('A' for Active; 'I' for Inactive)
REMARK    1  A    between atoms: N4_10  and  C5_12 
REMARK    2  A    between atoms: C5_12  and  C6_13 
REMARK    3  A    between atoms: C6_13  and  C7_14 
REMARK    4  A    between atoms: C7_14  and  C8_15 
REMARK    5  A    between atoms: C8_15  and  N5_16 
REMARK    6  A    between atoms: N8_21  and  C10_23 
REMARK    7  A    between atoms: C10_23  and  C11_27 
ROOT
HETATM    1  C11 UNL     1      24.035  53.796 -32.801  1.00  0.00     0.199 C 
HETATM    2  C12 UNL     1      23.204  52.709 -33.367  1.00  0.00     0.066 C 
HETATM    3  N10 UNL     1      22.559  51.855 -33.788  1.00  0.00    -0.197 NA
ENDROOT
BRANCH   1   4
HETATM    4  C10 UNL     1      23.439  55.118 -33.176  1.00  0.00     0.089 C 
HETATM    5  N9  UNL     1      22.517  55.171 -34.078  1.00  0.00    -0.388 N 
ATOM      6  H92 UNL     1      22.111  56.072 -34.334  1.00  0.00     0.157 HD
ATOM      7  H91 UNL     1      22.187  54.324 -34.540  1.00  0.00     0.157 HD
BRANCH   4   8
HETATM    8  N8  UNL     1      23.900  56.298 -32.532  1.00  0.00    -0.335 N 
HETATM    9  C5  UNL     1      24.802  57.087 -33.003  1.00  0.00     0.098 C 
ATOM     10  H8  UNL     1      23.486  56.538 -31.631  1.00  0.00     0.168 HD
BRANCH   9  11
HETATM   11  N4  UNL     1      25.396  56.796 -34.234  1.00  0.00    -0.179 N 
HETATM   12  C4  UNL     1      25.342  57.467 -35.309  1.00  0.00     0.695 C 
HETATM   13  N1  UNL     1      26.024  56.994 -36.463  1.00  0.00    -0.219 N 
HETATM   14  N3  UNL     1      24.630  58.700 -35.476  1.00  0.00    -0.136 N 
HETATM   15  C1  UNL     1      26.165  55.557 -36.638  1.00  0.00     0.168 C 
HETATM   16  C2  UNL     1      26.564  57.954 -37.435  1.00  0.00     0.161 C 
HETATM   17  C3  UNL     1      25.751  59.190 -37.523  1.00  0.00     0.160 C 
HETATM   18  N2  UNL     1      24.568  59.225 -36.745  1.00  0.00    -0.321 N 
ATOM     19  H2  UNL     1      23.704  59.625 -37.112  1.00  0.00     0.180 HD
ATOM     20  H3  UNL     1      24.187  59.169 -34.685  1.00  0.00     0.205 HD
ATOM     21  H4  UNL     1      25.942  55.936 -34.274  1.00  0.00     0.185 HD
ENDBRANCH   9  11
BRANCH   9  22
HETATM   22  C6  UNL     1      25.182  58.275 -32.240  1.00  0.00     0.079 C 
BRANCH  22  23
HETATM   23  C7  UNL     1      23.999  59.104 -31.802  1.00  0.00     0.027 C 
BRANCH  23  24
HETATM   24  C8  UNL     1      24.263  59.561 -30.375  1.00  0.00     0.122 C 
BRANCH  24  25
HETATM   25  N5  UNL     1      24.338  58.414 -29.496  1.00  0.00    -0.367 N 
HETATM   26  C9  UNL     1      24.618  58.579 -28.269  1.00  0.00     0.196 C 
HETATM   27  N6  UNL     1      24.701  57.466 -27.364  1.00  0.00    -0.067 NA
HETATM   28  N7  UNL     1      24.860  59.874 -27.734  1.00  0.00    -0.067 NA
ATOM     29  H5  UNL     1      24.167  57.477 -29.862  1.00  0.00     0.161 HD
ENDBRANCH  24  25
ENDBRANCH  23  24
ENDBRANCH  22  23
ENDBRANCH   9  22
ENDBRANCH   4   8
ENDBRANCH   1   4
TORSDOF 7
ENDMDL
MODEL 2
REMARK VINA RESULT: -7.059101800      0.789      1.138
REMARK  7 active torsions:
REMARK  status: ('A' for Active; 'I' for Inactive)
REMARK    1  A    between atoms: N4_10  and  C5_12 
REMARK    2  A    between atoms: C5_12  and  C6_13 
REMARK    3  A    between atoms: C6_13  and  C7_14 
REMARK    4  A    between atoms: C7_14  and  C8_15 
REMARK    5  A    between atoms: C8_15  and  N5_16 
REMARK    6  A    between atoms: N8_21  and  C10_23 
REMARK    7  A    between atoms: C10_23  and  C11_27 
ROOT
HETATM    1  C11 UNL     1      23.920  53.835 -32.688  1.00  0.00     0.199 C 
HETATM    2  C12 UNL     1      23.173  52.727 -33.325  1.00  0.00     0.066 C 
HETATM    3  N10 UNL     1      22.591  51.857 -33.803  1.00  0.00    -0.197 NA
ENDROOT
BRANCH   1   4
HETATM    4  C10 UNL     1      23.348  55.141 -33.142  1.00  0.00     0.089 C 
HETATM    5  N9  UNL     1      22.489  55.163 -34.105  1.00  0.00    -0.388 N 
ATOM      6  H92 UNL     1      22.099  56.053 -34.415  1.00  0.00     0.157 HD
ATOM      7  H91 UNL     1      22.193  54.301 -34.562  1.00  0.00     0.157 HD
BRANCH   4   8
HETATM    8  N8  UNL     1      23.761  56.343 -32.505  1.00  0.00    -0.335 N 
HETATM    9  C5  UNL     1      24.651  57.150 -32.967  1.00  0.00     0.098 C 
ATOM     10  H8  UNL     1      23.320  56.583 -31.617  1.00  0.00     0.168 HD
BRANCH   9  11
HETATM   11  N4  UNL     1      25.281  56.860 -34.180  1.00  0.00    -0.179 N 
HETATM   12  C4  UNL     1      25.257  57.530 -35.257  1.00  0.00     0.695 C 
HETATM   13  N1  UNL     1      25.973  57.056 -36.390  1.00  0.00    -0.219 N 
HETATM   14  N3  UNL     1      24.549  58.762 -35.445  1.00  0.00    -0.136 N 
HETATM   15  C1  UNL     1      26.121  55.619 -36.560  1.00  0.00     0.168 C 
HETATM   16  C2  UNL     1      26.540  58.016 -37.347  1.00  0.00     0.161 C 
HETATM   17  C3  UNL     1      25.728  59.251 -37.459  1.00  0.00     0.160 C 
HETATM   18  N2  UNL     1      24.524  59.286 -36.715  1.00  0.00    -0.321 N 
ATOM     19  H2  UNL     1      23.670  59.685 -37.107  1.00  0.00     0.180 HD
ATOM     20  H3  UNL     1      24.083  59.230 -34.668  1.00  0.00     0.205 HD
ATOM     21  H4  UNL     1      25.829  56.000 -34.204  1.00  0.00     0.185 HD
ENDBRANCH   9  11
BRANCH   9  22
HETATM   22  C6  UNL     1      24.982  58.359 -32.213  1.00  0.00     0.079 C 
BRANCH  22  23
HETATM   23  C7  UNL     1      23.797  58.946 -31.485  1.00  0.00     0.027 C 
BRANCH  23  24
HETATM   24  C8  UNL     1      24.156  59.018 -30.008  1.00  0.00     0.122 C 
BRANCH  24  25
HETATM   25  N5  UNL     1      25.102  60.089 -29.783  1.00  0.00    -0.367 N 
HETATM   26  C9  UNL     1      25.365  60.457 -28.596  1.00  0.00     0.196 C 
HETATM   27  N6  UNL     1      26.298  61.516 -28.331  1.00  0.00    -0.067 NA
HETATM   28  N7  UNL     1      24.747  59.836 -27.476  1.00  0.00    -0.067 NA
ATOM     29  H5  UNL     1      25.556  60.547 -30.573  1.00  0.00     0.161 HD
ENDBRANCH  24  25
ENDBRANCH  23  24
ENDBRANCH  22  23
ENDBRANCH   9  22
ENDBRANCH   4   8
ENDBRANCH   1   4
TORSDOF 7
ENDMDL
MODEL 3
REMARK VINA RESULT: -6.854385233      1.403      1.763
REMARK  7 active torsions:
REMARK  status: ('A' for Active; 'I' for Inactive)
REMARK    1  A    between atoms: N4_10  and  C5_12 
REMARK    2  A    between atoms: C5_12  and  C6_13 
REMARK    3  A    between atoms: C6_13  and  C7_14 
REMARK    4  A    between atoms: C7_14  and  C8_15 
REMARK    5  A    between atoms: C8_15  and  N5_16 
REMARK    6  A    between atoms: N8_21  and  C10_23 
REMARK    7  A    between atoms: C10_23  and  C11_27 
ROOT
HETATM    1  C11 UNL     1      24.106  54.481 -34.015  1.00  0.00     0.199 C 
HETATM    2  C12 UNL     1      23.737  53.603 -32.882  1.00  0.00     0.066 C 
HETATM    3  N10 UNL     1      23.453  52.904 -32.013  1.00  0.00    -0.197 NA
ENDROOT
BRANCH   1   4
HETATM    4  C10 UNL     1      25.119  55.481 -33.553  1.00  0.00     0.089 C 
HETATM    5  N9  UNL     1      26.375  55.255 -33.745  1.00  0.00    -0.388 N 
ATOM      6  H92 UNL     1      27.066  55.936 -33.430  1.00  0.00     0.157 HD
ATOM      7  H91 UNL     1      26.689  54.401 -34.207  1.00  0.00     0.157 HD
BRANCH   4   8
HETATM    8  N8  UNL     1      24.682  56.671 -32.909  1.00  0.00    -0.335 N 
HETATM    9  C5  UNL     1      24.471  57.792 -33.505  1.00  0.00     0.098 C 
ATOM     10  H8  UNL     1      24.524  56.634 -31.902  1.00  0.00     0.168 HD
BRANCH   9  11
HETATM   11  N4  UNL     1      24.675  57.889 -34.884  1.00  0.00    -0.179 N 
HETATM   12  C4  UNL     1      25.492  58.634 -35.506  1.00  0.00     0.695 C 
HETATM   13  N1  UNL     1      25.545  58.580 -36.925  1.00  0.00    -0.219 N 
HETATM   14  N3  UNL     1      26.398  59.558 -34.890  1.00  0.00    -0.136 N 
HETATM   15  C1  UNL     1      24.322  58.266 -37.648  1.00  0.00     0.168 C 
HETATM   16  C2  UNL     1      26.814  58.838 -37.618  1.00  0.00     0.161 C 
HETATM   17  C3  UNL     1      27.670  59.806 -36.892  1.00  0.00     0.160 C 
HETATM   18  N2  UNL     1      27.120  60.381 -35.721  1.00  0.00    -0.321 N 
ATOM     19  H2  UNL     1      27.255  61.369 -35.503  1.00  0.00     0.180 HD
ATOM     20  H3  UNL     1      26.502  59.604 -33.876  1.00  0.00     0.205 HD
ATOM     21  H4  UNL     1      24.093  57.285 -35.465  1.00  0.00     0.185 HD
ENDBRANCH   9  11
BRANCH   9  22
HETATM   22  C6  UNL     1      24.017  58.943 -32.724  1.00  0.00     0.079 C 
BRANCH  22  23
HETATM   23  C7  UNL     1      23.439  58.560 -31.383  1.00  0.00     0.027 C 
BRANCH  23  24
HETATM   24  C8  UNL     1      24.326  59.173 -30.310  1.00  0.00     0.122 C 
BRANCH  24  25
HETATM   25  N5  UNL     1      24.538  58.220 -29.243  1.00  0.00    -0.367 N 
HETATM   26  C9  UNL     1      24.789  58.634 -28.069  1.00  0.00     0.196 C 
HETATM   27  N6  UNL     1      25.006  57.720 -26.982  1.00  0.00    -0.067 NA
HETATM   28  N7  UNL     1      24.867  60.024 -27.778  1.00  0.00    -0.067 NA
ATOM     29  H5  UNL     1      24.486  57.219 -29.432  1.00  0.00     0.161 HD
ENDBRANCH  24  25
ENDBRANCH  23  24
ENDBRANCH  22  23
ENDBRANCH   9  22
ENDBRANCH   4   8
ENDBRANCH   1   4
TORSDOF 7
ENDMDL
MODEL 4
REMARK VINA RESULT: -6.772719955      2.822      6.320
REMARK  7 active torsions:
REMARK  status: ('A' for Active; 'I' for Inactive)
REMARK    1  A    between atoms: N4_10  and  C5_12 
REMARK    2  A    between atoms: C5_12  and  C6_13 
REMARK    3  A    between atoms: C6_13  and  C7_14 
REMARK    4  A    between atoms: C7_14  and  C8_15 
REMARK    5  A    between atoms: C8_15  and  N5_16 
REMARK    6  A    between atoms: N8_21  and  C10_23 
REMARK    7  A    between atoms: C10_23  and  C11_27 
ROOT
HETATM    1  C11 UNL     1      25.554  57.670 -28.371  1.00  0.00     0.199 C 
HETATM    2  C12 UNL     1      26.732  58.087 -27.579  1.00  0.00     0.066 C 
HETATM    3  N10 UNL     1      27.660  58.401 -26.976  1.00  0.00    -0.197 NA
ENDROOT
BRANCH   1   4
HETATM    4  C10 UNL     1      24.704  58.868 -28.660  1.00  0.00     0.089 C 
HETATM    5  N9  UNL     1      24.524  59.760 -27.745  1.00  0.00    -0.388 N 
ATOM      6  H92 UNL     1      23.945  60.576 -27.942  1.00  0.00     0.157 HD
ATOM      7  H91 UNL     1      24.952  59.660 -26.825  1.00  0.00     0.157 HD
BRANCH   4   8
HETATM    8  N8  UNL     1      24.107  59.006 -29.943  1.00  0.00    -0.335 N 
HETATM    9  C5  UNL     1      24.595  59.705 -30.908  1.00  0.00     0.098 C 
ATOM     10  H8  UNL     1      23.228  58.518 -30.111  1.00  0.00     0.168 HD
BRANCH   9  11
HETATM   11  N4  UNL     1      25.798  60.391 -30.721  1.00  0.00    -0.179 N 
HETATM   12  C4  UNL     1      26.538  60.931 -31.599  1.00  0.00     0.695 C 
HETATM   13  N1  UNL     1      27.732  61.588 -31.197  1.00  0.00    -0.219 N 
HETATM   14  N3  UNL     1      26.273  60.939 -33.008  1.00  0.00    -0.136 N 
HETATM   15  C1  UNL     1      28.431  61.088 -30.024  1.00  0.00     0.168 C 
HETATM   16  C2  UNL     1      28.225  62.739 -31.966  1.00  0.00     0.161 C 
HETATM   17  C3  UNL     1      27.893  62.642 -33.408  1.00  0.00     0.160 C 
HETATM   18  N2  UNL     1      27.247  61.455 -33.829  1.00  0.00    -0.321 N 
ATOM     19  H2  UNL     1      27.494  61.000 -34.708  1.00  0.00     0.180 HD
ATOM     20  H3  UNL     1      25.397  60.576 -33.386  1.00  0.00     0.205 HD
ATOM     21  H4  UNL     1      26.123  60.468 -29.757  1.00  0.00     0.185 HD
ENDBRANCH   9  11
BRANCH   9  22
HETATM   22  C6  UNL     1      23.881  59.761 -32.183  1.00  0.00     0.079 C 
BRANCH  22  23
HETATM   23  C7  UNL     1      23.127  58.491 -32.497  1.00  0.00     0.027 C 
BRANCH  23  24
HETATM   24  C8  UNL     1      23.750  57.886 -33.746  1.00  0.00     0.122 C 
BRANCH  24  25
HETATM   25  N5  UNL     1      23.772  56.443 -33.636  1.00  0.00    -0.367 N 
HETATM   26  C9  UNL     1      22.840  55.757 -34.156  1.00  0.00     0.196 C 
HETATM   27  N6  UNL     1      22.827  54.323 -34.069  1.00  0.00    -0.067 NA
HETATM   28  N7  UNL     1      21.765  56.379 -34.851  1.00  0.00    -0.067 NA
ATOM     29  H5  UNL     1      24.535  55.980 -33.142  1.00  0.00     0.161 HD
ENDBRANCH  24  25
ENDBRANCH  23  24
ENDBRANCH  22  23
ENDBRANCH   9  22
ENDBRANCH   4   8
ENDBRANCH   1   4
TORSDOF 7
ENDMDL
MODEL 5
REMARK VINA RESULT: -6.769636307      1.152      1.656
REMARK  7 active torsions:
REMARK  status: ('A' for Active; 'I' for Inactive)
REMARK    1  A    between atoms: N4_10  and  C5_12 
REMARK    2  A    between atoms: C5_12  and  C6_13 
REMARK    3  A    between atoms: C6_13  and  C7_14 
REMARK    4  A    between atoms: C7_14  and  C8_15 
REMARK    5  A    between atoms: C8_15  and  N5_16 
REMARK    6  A    between atoms: N8_21  and  C10_23 
REMARK    7  A    between atoms: C10_23  and  C11_27 
ROOT
HETATM    1  C11 UNL     1      22.965  54.403 -33.966  1.00  0.00     0.199 C 
HETATM    2  C12 UNL     1      22.292  55.648 -34.400  1.00  0.00     0.066 C 
HETATM    3  N10 UNL     1      21.752  56.605 -34.740  1.00  0.00    -0.197 NA
ENDROOT
BRANCH   1   4
HETATM    4  C10 UNL     1      23.756  54.678 -32.725  1.00  0.00     0.089 C 
HETATM    5  N9  UNL     1      24.122  53.698 -31.969  1.00  0.00    -0.388 N 
ATOM      6  H92 UNL     1      24.661  53.885 -31.124  1.00  0.00     0.157 HD
ATOM      7  H91 UNL     1      23.879  52.735 -32.205  1.00  0.00     0.157 HD
BRANCH   4   8
HETATM    8  N8  UNL     1      24.095  56.019 -32.396  1.00  0.00    -0.335 N 
HETATM    9  C5  UNL     1      24.931  56.746 -33.052  1.00  0.00     0.098 C 
ATOM     10  H8  UNL     1      23.643  56.435 -31.582  1.00  0.00     0.168 HD
BRANCH   9  11
HETATM   11  N4  UNL     1      25.573  56.216 -34.174  1.00  0.00    -0.179 N 
HETATM   12  C4  UNL     1      25.474  56.587 -35.383  1.00  0.00     0.695 C 
HETATM   13  N1  UNL     1      26.221  55.909 -36.384  1.00  0.00    -0.219 N 
HETATM   14  N3  UNL     1      24.650  57.663 -35.849  1.00  0.00    -0.136 N 
HETATM   15  C1  UNL     1      26.503  54.495 -36.194  1.00  0.00     0.168 C 
HETATM   16  C2  UNL     1      26.683  56.642 -37.570  1.00  0.00     0.161 C 
HETATM   17  C3  UNL     1      25.755  57.731 -37.961  1.00  0.00     0.160 C 
HETATM   18  N2  UNL     1      24.561  57.844 -37.209  1.00  0.00    -0.321 N 
ATOM     19  H2  UNL     1      23.669  58.053 -37.659  1.00  0.00     0.180 HD
ATOM     20  H3  UNL     1      24.149  58.269 -35.199  1.00  0.00     0.205 HD
ATOM     21  H4  UNL     1      26.201  55.431 -33.999  1.00  0.00     0.185 HD
ENDBRANCH   9  11
BRANCH   9  22
HETATM   22  C6  UNL     1      25.187  58.116 -32.609  1.00  0.00     0.079 C 
BRANCH  22  23
HETATM   23  C7  UNL     1      23.928  58.874 -32.262  1.00  0.00     0.027 C 
BRANCH  23  24
HETATM   24  C8  UNL     1      24.102  59.432 -30.858  1.00  0.00     0.122 C 
BRANCH  24  25
HETATM   25  N5  UNL     1      24.122  58.351 -29.897  1.00  0.00    -0.367 N 
HETATM   26  C9  UNL     1      24.436  58.588 -28.689  1.00  0.00     0.196 C 
HETATM   27  N6  UNL     1      24.468  57.542 -27.705  1.00  0.00    -0.067 NA
HETATM   28  N7  UNL     1      24.771  59.901 -28.258  1.00  0.00    -0.067 NA
ATOM     29  H5  UNL     1      23.885  57.403 -30.187  1.00  0.00     0.161 HD
ENDBRANCH  24  25
ENDBRANCH  23  24
ENDBRANCH  22  23
ENDBRANCH   9  22
ENDBRANCH   4   8
ENDBRANCH   1   4
TORSDOF 7
ENDMDL
