MODEL 1
REMARK VINA RESULT: -6.968020169      0.000      0.000
REMARK  6 active torsions:
REMARK  status: ('A' for Active; 'I' for Inactive)
REMARK    1  A    between atoms: C1_2  and  C2_4 
REMARK    2  A    between atoms: C2_4  and  N2_5 
REMARK    3  A    between atoms: C2_4  and  N3_9 
REMARK       I    between atoms: N3_9  and  C3_11 
REMARK    4  A    between atoms: C3_11  and  C4_13 
REMARK       I    between atoms: N4_17  and  C8_18 
REMARK       I    between atoms: C8_18  and  N5_20 
REMARK    5  A    between atoms: N5_20  and  C9_22 
REMARK    6  A    between atoms: C9_22  and  C10_23 
ROOT
HETATM    1  C4  UNL     1      24.749  59.374 -28.303  1.00  0.00     0.181 C 
HETATM    2  C5  UNL     1      25.044  58.799 -26.964  1.00  0.00     0.037 C 
HETATM    3  C6  UNL     1      24.863  57.314 -27.129  1.00  0.00     0.022 C 
HETATM    4  C7  UNL     1      25.413  57.128 -28.545  1.00  0.00     0.129 C 
HETATM    5  N4  UNL     1      24.927  58.314 -29.244  1.00  0.00    -0.321 N 
HETATM    6  C8  UNL     1      24.679  58.335 -30.632  1.00  0.00     0.320 C 
HETATM    7  O3  UNL     1      24.240  59.409 -31.126  1.00  0.00    -0.247 OA
HETATM    8  N5  UNL     1      24.899  57.224 -31.480  1.00  0.00    -0.324 N 
ATOM      9  H5  UNL     1      25.256  56.376 -31.040  1.00  0.00     0.165 HD
ENDROOT
BRANCH   1  10
HETATM   10  C3  UNL     1      25.571  60.577 -28.604  1.00  0.00     0.242 C 
HETATM   11  N3  UNL     1      26.951  60.454 -28.794  1.00  0.00    -0.325 N 
ATOM     12  H3  UNL     1      27.358  59.522 -28.717  1.00  0.00     0.165 HD
HETATM   13  O2  UNL     1      25.023  61.682 -28.686  1.00  0.00    -0.271 OA
BRANCH  11  14
HETATM   14  C2  UNL     1      27.843  61.553 -29.090  1.00  0.00     0.373 C 
BRANCH  14  15
HETATM   15  C1  UNL     1      29.153  61.114 -29.578  1.00  0.00     0.281 C 
HETATM   16  N1  UNL     1      30.112  60.535 -28.718  1.00  0.00    -0.059 NA
HETATM   17  O1  UNL     1      29.445  61.250 -30.785  1.00  0.00    -0.273 OA
ENDBRANCH  14  15
BRANCH  14  18
HETATM   18  N2  UNL     1      27.922  62.456 -27.955  1.00  0.00    -0.050 N 
ATOM     19  H23 UNL     1      28.802  62.970 -27.963  1.00  0.00     0.277 HD
ATOM     20  H22 UNL     1      27.271  63.234 -28.066  1.00  0.00     0.277 HD
ATOM     21  H21 UNL     1      27.781  61.992 -27.058  1.00  0.00     0.277 HD
ENDBRANCH  14  18
ENDBRANCH  11  14
ENDBRANCH   1  10
BRANCH   8  22
HETATM   22  C9  UNL     1      24.672  57.170 -32.885  1.00  0.00     0.123 A 
HETATM   23  C11 UNL     1      25.676  56.407 -33.753  1.00  0.00     0.045 A 
HETATM   24  C12 UNL     1      25.519  57.872 -33.881  1.00  0.00     0.045 A 
BRANCH  22  25
HETATM   25  C10 UNL     1      23.249  56.919 -33.304  1.00  0.00     0.202 C 
HETATM   26  O4  UNL     1      22.664  55.860 -32.960  1.00  0.00    -0.646 OA
HETATM   27  O5  UNL     1      22.623  57.884 -34.070  1.00  0.00    -0.646 OA
ENDBRANCH  22  25
ENDBRANCH   8  22
TORSDOF 6
ENDMDL
MODEL 2
REMARK VINA RESULT: -6.864100683      2.310      4.109
REMARK  6 active torsions:
REMARK  status: ('A' for Active; 'I' for Inactive)
REMARK    1  A    between atoms: C1_2  and  C2_4 
REMARK    2  A    between atoms: C2_4  and  N2_5 
REMARK    3  A    between atoms: C2_4  and  N3_9 
REMARK       I    between atoms: N3_9  and  C3_11 
REMARK    4  A    between atoms: C3_11  and  C4_13 
REMARK       I    between atoms: N4_17  and  C8_18 
REMARK       I    between atoms: C8_18  and  N5_20 
REMARK    5  A    between atoms: N5_20  and  C9_22 
REMARK    6  A    between atoms: C9_22  and  C10_23 
ROOT
HETATM    1  C4  UNL     1      27.026  60.510 -30.756  1.00  0.00     0.181 C 
HETATM    2  C5  UNL     1      27.736  61.813 -30.659  1.00  0.00     0.037 C 
HETATM    3  C6  UNL     1      27.995  62.222 -32.084  1.00  0.00     0.022 C 
HETATM    4  C7  UNL     1      26.710  61.723 -32.749  1.00  0.00     0.129 C 
HETATM    5  N4  UNL     1      26.458  60.458 -32.065  1.00  0.00    -0.321 N 
HETATM    6  C8  UNL     1      25.765  59.388 -32.668  1.00  0.00     0.320 C 
HETATM    7  O3  UNL     1      25.623  58.334 -31.990  1.00  0.00    -0.247 OA
HETATM    8  N5  UNL     1      25.230  59.444 -33.976  1.00  0.00    -0.324 N 
ATOM      9  H5  UNL     1      25.366  60.315 -34.489  1.00  0.00     0.165 HD
ENDROOT
BRANCH   1  10
HETATM   10  C3  UNL     1      26.029  60.319 -29.668  1.00  0.00     0.242 C 
HETATM   11  N3  UNL     1      25.964  59.101 -28.983  1.00  0.00    -0.325 N 
ATOM     12  H3  UNL     1      26.617  58.368 -29.258  1.00  0.00     0.165 HD
HETATM   13  O2  UNL     1      25.262  61.243 -29.378  1.00  0.00    -0.271 OA
BRANCH  11  14
HETATM   14  C2  UNL     1      25.037  58.807 -27.913  1.00  0.00     0.373 C 
BRANCH  14  15
HETATM   15  C1  UNL     1      25.590  57.897 -26.908  1.00  0.00     0.281 C 
HETATM   16  N1  UNL     1      26.968  57.591 -26.857  1.00  0.00    -0.059 NA
HETATM   17  O1  UNL     1      24.835  57.367 -26.064  1.00  0.00    -0.273 OA
ENDBRANCH  14  15
BRANCH  14  18
HETATM   18  N2  UNL     1      23.766  58.363 -28.457  1.00  0.00    -0.050 N 
ATOM     19  H23 UNL     1      23.766  58.429 -29.475  1.00  0.00     0.277 HD
ATOM     20  H22 UNL     1      23.660  57.354 -28.354  1.00  0.00     0.277 HD
ATOM     21  H21 UNL     1      22.963  58.852 -28.063  1.00  0.00     0.277 HD
ENDBRANCH  14  18
ENDBRANCH  11  14
ENDBRANCH   1  10
BRANCH   8  22
HETATM   22  C9  UNL     1      24.522  58.408 -34.651  1.00  0.00     0.123 A 
HETATM   23  C11 UNL     1      25.317  57.214 -35.182  1.00  0.00     0.045 A 
HETATM   24  C12 UNL     1      24.639  58.147 -36.106  1.00  0.00     0.045 A 
BRANCH  22  25
HETATM   25  C10 UNL     1      23.221  57.993 -34.019  1.00  0.00     0.202 C 
HETATM   26  O4  UNL     1      22.234  58.772 -34.028  1.00  0.00    -0.646 OA
HETATM   27  O5  UNL     1      23.158  56.740 -33.438  1.00  0.00    -0.646 OA
ENDBRANCH  22  25
ENDBRANCH   8  22
TORSDOF 6
ENDMDL
MODEL 3
REMARK VINA RESULT: -6.800808126      1.110      1.207
REMARK  6 active torsions:
REMARK  status: ('A' for Active; 'I' for Inactive)
REMARK    1  A    between atoms: C1_2  and  C2_4 
REMARK    2  A    between atoms: C2_4  and  N2_5 
REMARK    3  A    between atoms: C2_4  and  N3_9 
REMARK       I    between atoms: N3_9  and  C3_11 
REMARK    4  A    between atoms: C3_11  and  C4_13 
REMARK       I    between atoms: N4_17  and  C8_18 
REMARK       I    between atoms: C8_18  and  N5_20 
REMARK    5  A    between atoms: N5_20  and  C9_22 
REMARK    6  A    between atoms: C9_22  and  C10_23 
ROOT
HETATM    1  C4  UNL     1      24.834  59.356 -28.339  1.00  0.00     0.181 C 
HETATM    2  C5  UNL     1      25.047  58.785 -26.983  1.00  0.00     0.037 C 
HETATM    3  C6  UNL     1      24.743  57.318 -27.127  1.00  0.00     0.022 C 
HETATM    4  C7  UNL     1      25.307  57.057 -28.525  1.00  0.00     0.129 C 
HETATM    5  N4  UNL     1      24.942  58.267 -29.256  1.00  0.00    -0.321 N 
HETATM    6  C8  UNL     1      24.729  58.282 -30.650  1.00  0.00     0.320 C 
HETATM    7  O3  UNL     1      24.396  59.380 -31.174  1.00  0.00    -0.247 OA
HETATM    8  N5  UNL     1      24.872  57.140 -31.473  1.00  0.00    -0.324 N 
ATOM      9  H5  UNL     1      25.144  56.274 -31.010  1.00  0.00     0.165 HD
ENDROOT
BRANCH   1  10
HETATM   10  C3  UNL     1      25.764  60.478 -28.641  1.00  0.00     0.242 C 
HETATM   11  N3  UNL     1      27.145  60.257 -28.666  1.00  0.00    -0.325 N 
ATOM     12  H3  UNL     1      27.476  59.312 -28.472  1.00  0.00     0.165 HD
HETATM   13  O2  UNL     1      25.305  61.603 -28.868  1.00  0.00    -0.271 OA
BRANCH  11  14
HETATM   14  C2  UNL     1      28.136  61.271 -28.947  1.00  0.00     0.373 C 
BRANCH  14  15
HETATM   15  C1  UNL     1      28.427  62.126 -27.794  1.00  0.00     0.281 C 
HETATM   16  N1  UNL     1      28.562  61.599 -26.491  1.00  0.00    -0.059 NA
HETATM   17  O1  UNL     1      28.560  63.359 -27.950  1.00  0.00    -0.273 OA
ENDBRANCH  14  15
BRANCH  14  18
HETATM   18  N2  UNL     1      27.769  62.015 -30.140  1.00  0.00    -0.050 N 
ATOM     19  H23 UNL     1      27.165  62.802 -29.903  1.00  0.00     0.277 HD
ATOM     20  H22 UNL     1      28.572  62.524 -30.510  1.00  0.00     0.277 HD
ATOM     21  H21 UNL     1      27.344  61.436 -30.863  1.00  0.00     0.277 HD
ENDBRANCH  14  18
ENDBRANCH  11  14
ENDBRANCH   1  10
BRANCH   8  22
HETATM   22  C9  UNL     1      24.674  57.078 -32.882  1.00  0.00     0.123 A 
HETATM   23  C11 UNL     1      25.680  56.287 -33.722  1.00  0.00     0.045 A 
HETATM   24  C12 UNL     1      25.556  57.754 -33.865  1.00  0.00     0.045 A 
BRANCH  22  25
HETATM   25  C10 UNL     1      23.256  56.853 -33.330  1.00  0.00     0.202 C 
HETATM   26  O4  UNL     1      22.647  55.802 -33.003  1.00  0.00    -0.646 OA
HETATM   27  O5  UNL     1      22.660  57.832 -34.103  1.00  0.00    -0.646 OA
ENDBRANCH  22  25
ENDBRANCH   8  22
TORSDOF 6
ENDMDL
MODEL 4
REMARK VINA RESULT: -6.754290356      1.603      1.930
REMARK  6 active torsions:
REMARK  status: ('A' for Active; 'I' for Inactive)
REMARK    1  A    between atoms: C1_2  and  C2_4 
REMARK    2  A    between atoms: C2_4  and  N2_5 
REMARK    3  A    between atoms: C2_4  and  N3_9 
REMARK       I    between atoms: N3_9  and  C3_11 
REMARK    4  A    between atoms: C3_11  and  C4_13 
REMARK       I    between atoms: N4_17  and  C8_18 
REMARK       I    between atoms: C8_18  and  N5_20 
REMARK    5  A    between atoms: N5_20  and  C9_22 
REMARK    6  A    between atoms: C9_22  and  C10_23 
ROOT
HETATM    1  C4  UNL     1      24.661  59.404 -28.684  1.00  0.00     0.181 C 
HETATM    2  C5  UNL     1      25.018  58.982 -27.304  1.00  0.00     0.037 C 
HETATM    3  C6  UNL     1      24.933  57.480 -27.321  1.00  0.00     0.022 C 
HETATM    4  C7  UNL     1      25.466  57.192 -28.726  1.00  0.00     0.129 C 
HETATM    5  N4  UNL     1      24.890  58.271 -29.523  1.00  0.00    -0.321 N 
HETATM    6  C8  UNL     1      24.615  58.142 -30.900  1.00  0.00     0.320 C 
HETATM    7  O3  UNL     1      24.097  59.132 -31.483  1.00  0.00    -0.247 OA
HETATM    8  N5  UNL     1      24.891  56.970 -31.643  1.00  0.00    -0.324 N 
ATOM      9  H5  UNL     1      25.312  56.193 -31.133  1.00  0.00     0.165 HD
ENDROOT
BRANCH   1  10
HETATM   10  C3  UNL     1      25.396  60.622 -29.120  1.00  0.00     0.242 C 
HETATM   11  N3  UNL     1      26.331  60.543 -30.156  1.00  0.00    -0.325 N 
ATOM     12  H3  UNL     1      26.482  59.632 -30.589  1.00  0.00     0.165 HD
HETATM   13  O2  UNL     1      25.172  61.701 -28.558  1.00  0.00    -0.271 OA
BRANCH  11  14
HETATM   14  C2  UNL     1      27.100  61.660 -30.659  1.00  0.00     0.373 C 
BRANCH  14  15
HETATM   15  C1  UNL     1      26.498  62.288 -31.838  1.00  0.00     0.281 C 
HETATM   16  N1  UNL     1      27.213  63.206 -32.639  1.00  0.00    -0.059 NA
HETATM   17  O1  UNL     1      25.322  62.014 -32.157  1.00  0.00    -0.273 OA
ENDBRANCH  14  15
BRANCH  14  18
HETATM   18  N2  UNL     1      28.485  61.268 -30.856  1.00  0.00    -0.050 N 
ATOM     19  H23 UNL     1      29.090  62.088 -30.896  1.00  0.00     0.277 HD
ATOM     20  H22 UNL     1      28.858  60.823 -30.018  1.00  0.00     0.277 HD
ATOM     21  H21 UNL     1      28.626  60.675 -31.673  1.00  0.00     0.277 HD
ENDBRANCH  14  18
ENDBRANCH  11  14
ENDBRANCH   1  10
BRANCH   8  22
HETATM   22  C9  UNL     1      24.642  56.765 -33.030  1.00  0.00     0.123 A 
HETATM   23  C11 UNL     1      25.611  55.880 -33.818  1.00  0.00     0.045 A 
HETATM   24  C12 UNL     1      25.493  57.325 -34.109  1.00  0.00     0.045 A 
BRANCH  22  25
HETATM   25  C10 UNL     1      23.207  56.511 -33.402  1.00  0.00     0.202 C 
HETATM   26  O4  UNL     1      22.608  55.496 -32.962  1.00  0.00    -0.646 OA
HETATM   27  O5  UNL     1      22.584  57.424 -34.232  1.00  0.00    -0.646 OA
ENDBRANCH  22  25
ENDBRANCH   8  22
TORSDOF 6
ENDMDL
MODEL 5
REMARK VINA RESULT: -6.717837277      4.829      7.610
REMARK  6 active torsions:
REMARK  status: ('A' for Active; 'I' for Inactive)
REMARK    1  A    between atoms: C1_2  and  C2_4 
REMARK    2  A    between atoms: C2_4  and  N2_5 
REMARK    3  A    between atoms: C2_4  and  N3_9 
REMARK       I    between atoms: N3_9  and  C3_11 
REMARK    4  A    between atoms: C3_11  and  C4_13 
REMARK       I    between atoms: N4_17  and  C8_18 
REMARK       I    between atoms: C8_18  and  N5_20 
REMARK    5  A    between atoms: N5_20  and  C9_22 
REMARK    6  A    between atoms: C9_22  and  C10_23 
ROOT
HETATM    1  C4  UNL     1      24.180  57.074 -32.991  1.00  0.00     0.181 C 
HETATM    2  C5  UNL     1      23.467  57.678 -31.834  1.00  0.00     0.037 C 
HETATM    3  C6  UNL     1      23.704  59.158 -31.960  1.00  0.00     0.022 C 
HETATM    4  C7  UNL     1      23.649  59.316 -33.481  1.00  0.00     0.129 C 
HETATM    5  N4  UNL     1      24.328  58.115 -33.958  1.00  0.00    -0.321 N 
HETATM    6  C8  UNL     1      25.016  58.064 -35.188  1.00  0.00     0.320 C 
HETATM    7  O3  UNL     1      25.584  56.979 -35.490  1.00  0.00    -0.247 OA
HETATM    8  N5  UNL     1      25.095  59.156 -36.083  1.00  0.00    -0.324 N 
ATOM      9  H5  UNL     1      24.620  60.014 -35.801  1.00  0.00     0.165 HD
ENDROOT
BRANCH   1  10
HETATM   10  C3  UNL     1      23.492  55.866 -33.521  1.00  0.00     0.242 C 
HETATM   11  N3  UNL     1      24.209  54.681 -33.715  1.00  0.00    -0.325 N 
ATOM     12  H3  UNL     1      25.202  54.684 -33.482  1.00  0.00     0.165 HD
HETATM   13  O2  UNL     1      22.286  55.920 -33.786  1.00  0.00    -0.271 OA
BRANCH  11  14
HETATM   14  C2  UNL     1      23.643  53.450 -34.223  1.00  0.00     0.373 C 
BRANCH  14  15
HETATM   15  C1  UNL     1      23.163  52.559 -33.164  1.00  0.00     0.281 C 
HETATM   16  N1  UNL     1      22.336  51.448 -33.444  1.00  0.00    -0.059 NA
HETATM   17  O1  UNL     1      23.486  52.772 -31.976  1.00  0.00    -0.273 OA
ENDBRANCH  14  15
BRANCH  14  18
HETATM   18  N2  UNL     1      24.572  52.811 -35.139  1.00  0.00    -0.050 N 
ATOM     19  H23 UNL     1      25.035  52.021 -34.692  1.00  0.00     0.277 HD
ATOM     20  H22 UNL     1      24.070  52.317 -35.877  1.00  0.00     0.277 HD
ATOM     21  H21 UNL     1      25.256  53.454 -35.537  1.00  0.00     0.277 HD
ENDBRANCH  14  18
ENDBRANCH  11  14
ENDBRANCH   1  10
BRANCH   8  22
HETATM   22  C9  UNL     1      25.769  59.181 -37.338  1.00  0.00     0.123 A 
HETATM   23  C11 UNL     1      25.143  59.981 -38.482  1.00  0.00     0.045 A 
HETATM   24  C12 UNL     1      25.258  58.509 -38.558  1.00  0.00     0.045 A 
BRANCH  22  25
HETATM   25  C10 UNL     1      27.262  59.355 -37.269  1.00  0.00     0.202 C 
HETATM   26  O4  UNL     1      28.025  58.500 -37.788  1.00  0.00    -0.646 OA
HETATM   27  O5  UNL     1      27.751  60.476 -36.623  1.00  0.00    -0.646 OA
ENDBRANCH  22  25
ENDBRANCH   8  22
TORSDOF 6
ENDMDL
