MODEL 1
REMARK VINA RESULT: -5.900548092      0.000      0.000
REMARK  11 active torsions:
REMARK  status: ('A' for Active; 'I' for Inactive)
REMARK    1  A    between atoms: C3_4  and  O2_5 
REMARK    2  A    between atoms: O2_5  and  C4_6 
REMARK    3  A    between atoms: C7_9  and  C9_11 
REMARK    4  A    between atoms: C10_12  and  C11_13 
REMARK    5  A    between atoms: C12_14  and  C13_15 
REMARK    6  A    between atoms: C14_16  and  C15_17 
REMARK    7  A    between atoms: C15_17  and  C17_19 
REMARK    8  A    between atoms: C18_23  and  O6_24 
REMARK    9  A    between atoms: C18_23  and  C19_26 
REMARK   10  A    between atoms: C19_26  and  O7_27 
REMARK   11  A    between atoms: C21_30  and  O8_31 
ROOT
HETATM    1  C4  UNL     1       9.516 -13.631  69.076  1.00  0.00     0.202 C 
HETATM    2  C5  UNL     1       8.774 -14.856  69.478  1.00  0.00     0.055 C 
HETATM    3  C6  UNL     1       7.313 -14.622  69.637  1.00  0.00     0.016 C 
HETATM    4  C7  UNL     1       9.474 -15.300  70.729  1.00  0.00     0.085 C 
HETATM    5  C8  UNL     1       9.572 -16.829  70.797  1.00  0.00     0.051 C 
HETATM    6  O5  UNL     1      10.746 -14.749  70.708  1.00  0.00    -0.336 OA
HETATM    7  C18 UNL     1      10.652 -13.527  70.054  1.00  0.00     0.212 C 
ENDROOT
BRANCH   4   8
HETATM    8  C9  UNL     1       8.811 -14.865  71.968  1.00  0.00     0.011 C 
HETATM    9  C10 UNL     1       8.422 -15.776  72.839  1.00  0.00    -0.001 C 
BRANCH   9  10
HETATM   10  C11 UNL     1       7.772 -15.350  74.054  1.00  0.00    -0.000 C 
HETATM   11  C12 UNL     1       6.827 -16.013  74.616  1.00  0.00    -0.000 C 
BRANCH  11  12
HETATM   12  C13 UNL     1       6.301 -17.255  74.111  1.00  0.00    -0.003 C 
HETATM   13  C14 UNL     1       5.031 -17.620  74.293  1.00  0.00    -0.012 C 
BRANCH  13  14
HETATM   14  C15 UNL     1       4.578 -18.912  73.739  1.00  0.00     0.105 C 
HETATM   15  C16 UNL     1       3.909 -19.674  74.867  1.00  0.00     0.025 C 
BRANCH  14  16
HETATM   16  C17 UNL     1       5.783 -19.657  73.282  1.00  0.00     0.180 C 
HETATM   17  O3  UNL     1       6.100 -19.641  72.073  1.00  0.00    -0.647 OA
HETATM   18  O4  UNL     1       6.567 -20.371  74.163  1.00  0.00    -0.647 OA
ENDBRANCH  14  16
ENDBRANCH  13  14
ENDBRANCH  11  12
ENDBRANCH   9  10
ENDBRANCH   4   8
BRANCH   1  19
HETATM   19  O2  UNL     1       9.954 -13.717  67.736  1.00  0.00    -0.319 OA
BRANCH  19  20
HETATM   20  C3  UNL     1       9.051 -13.376  66.746  1.00  0.00     0.184 C 
HETATM   21  O1  UNL     1       7.921 -14.101  66.440  1.00  0.00    -0.299 OA
HETATM   22  C2  UNL     1       6.828 -13.591  65.716  1.00  0.00     0.267 C 
HETATM   23  C1  UNL     1       5.533 -13.646  66.500  1.00  0.00     0.071 C 
HETATM   24  O9  UNL     1       7.006 -12.293  65.286  1.00  0.00    -0.328 OA
HETATM   25  C21 UNL     1       8.293 -11.951  64.989  1.00  0.00     0.289 C 
HETATM   26  C20 UNL     1       9.281 -12.281  66.039  1.00  0.00     0.096 C 
BRANCH  25  27
HETATM   27  O8  UNL     1       8.661 -12.564  63.781  1.00  0.00    -0.368 OA
ATOM     28  H8  UNL     1       9.379 -12.085  63.383  1.00  0.00     0.213 HD
ENDBRANCH  25  27
ENDBRANCH  19  20
ENDBRANCH   1  19
BRANCH   7  29
HETATM   29  O6  UNL     1      10.413 -12.559  71.029  1.00  0.00    -0.362 OA
ATOM     30  H6  UNL     1      10.153 -11.728  70.648  1.00  0.00     0.213 HD
ENDBRANCH   7  29
BRANCH   7  31
HETATM   31  C19 UNL     1      11.973 -13.249  69.397  1.00  0.00     0.235 C 
BRANCH  31  32
HETATM   32  O7  UNL     1      13.046 -13.758  70.134  1.00  0.00    -0.395 OA
ATOM     33  H7  UNL     1      13.870 -13.678  69.668  1.00  0.00     0.209 HD
ENDBRANCH  31  32
ENDBRANCH   7  31
TORSDOF 11
ENDMDL
MODEL 2
REMARK VINA RESULT: -5.653855923      0.798      1.064
REMARK  11 active torsions:
REMARK  status: ('A' for Active; 'I' for Inactive)
REMARK    1  A    between atoms: C3_4  and  O2_5 
REMARK    2  A    between atoms: O2_5  and  C4_6 
REMARK    3  A    between atoms: C7_9  and  C9_11 
REMARK    4  A    between atoms: C10_12  and  C11_13 
REMARK    5  A    between atoms: C12_14  and  C13_15 
REMARK    6  A    between atoms: C14_16  and  C15_17 
REMARK    7  A    between atoms: C15_17  and  C17_19 
REMARK    8  A    between atoms: C18_23  and  O6_24 
REMARK    9  A    between atoms: C18_23  and  C19_26 
REMARK   10  A    between atoms: C19_26  and  O7_27 
REMARK   11  A    between atoms: C21_30  and  O8_31 
ROOT
HETATM    1  C4  UNL     1       9.535 -13.538  69.008  1.00  0.00     0.202 C 
HETATM    2  C5  UNL     1       8.834 -14.797  69.379  1.00  0.00     0.055 C 
HETATM    3  C6  UNL     1       7.362 -14.623  69.507  1.00  0.00     0.016 C 
HETATM    4  C7  UNL     1       9.523 -15.227  70.642  1.00  0.00     0.085 C 
HETATM    5  C8  UNL     1       9.682 -16.751  70.695  1.00  0.00     0.051 C 
HETATM    6  O5  UNL     1      10.772 -14.625  70.656  1.00  0.00    -0.336 OA
HETATM    7  C18 UNL     1      10.643 -13.399  70.013  1.00  0.00     0.212 C 
ENDROOT
BRANCH   4   8
HETATM    8  C9  UNL     1       8.816 -14.833  71.870  1.00  0.00     0.011 C 
HETATM    9  C10 UNL     1       8.569 -15.748  72.787  1.00  0.00    -0.001 C 
BRANCH   9  10
HETATM   10  C11 UNL     1       7.875 -15.362  73.992  1.00  0.00    -0.000 C 
HETATM   11  C12 UNL     1       7.287 -16.203  74.764  1.00  0.00    -0.000 C 
BRANCH  11  12
HETATM   12  C13 UNL     1       7.247 -17.623  74.530  1.00  0.00    -0.003 C 
HETATM   13  C14 UNL     1       6.151 -18.244  74.088  1.00  0.00    -0.012 C 
BRANCH  13  14
HETATM   14  C15 UNL     1       6.201 -19.704  73.876  1.00  0.00     0.105 C 
HETATM   15  C16 UNL     1       7.093 -19.952  72.674  1.00  0.00     0.025 C 
BRANCH  14  16
HETATM   16  C17 UNL     1       4.819 -20.167  73.574  1.00  0.00     0.180 C 
HETATM   17  O3  UNL     1       4.066 -19.455  72.875  1.00  0.00    -0.647 OA
HETATM   18  O4  UNL     1       4.343 -21.372  74.045  1.00  0.00    -0.647 OA
ENDBRANCH  14  16
ENDBRANCH  13  14
ENDBRANCH  11  12
ENDBRANCH   9  10
ENDBRANCH   4   8
BRANCH   1  19
HETATM   19  O2  UNL     1      10.006 -13.591  67.677  1.00  0.00    -0.319 OA
BRANCH  19  20
HETATM   20  C3  UNL     1       9.109 -13.286  66.670  1.00  0.00     0.184 C 
HETATM   21  O1  UNL     1       7.987 -14.027  66.376  1.00  0.00    -0.299 OA
HETATM   22  C2  UNL     1       6.897 -13.547  65.627  1.00  0.00     0.267 C 
HETATM   23  C1  UNL     1       5.595 -13.588  66.401  1.00  0.00     0.071 C 
HETATM   24  O9  UNL     1       7.070 -12.261  65.161  1.00  0.00    -0.328 OA
HETATM   25  C21 UNL     1       8.357 -11.918  64.866  1.00  0.00     0.289 C 
HETATM   26  C20 UNL     1       9.337 -12.210  65.933  1.00  0.00     0.096 C 
BRANCH  25  27
HETATM   27  O8  UNL     1       8.740 -12.564  63.679  1.00  0.00    -0.368 OA
ATOM     28  H8  UNL     1       9.301 -13.303  63.882  1.00  0.00     0.213 HD
ENDBRANCH  25  27
ENDBRANCH  19  20
ENDBRANCH   1  19
BRANCH   7  29
HETATM   29  O6  UNL     1      10.343 -12.453  70.992  1.00  0.00    -0.362 OA
ATOM     30  H6  UNL     1      10.487 -12.790  71.868  1.00  0.00     0.213 HD
ENDBRANCH   7  29
BRANCH   7  31
HETATM   31  C19 UNL     1      11.966 -13.061  69.389  1.00  0.00     0.235 C 
BRANCH  31  32
HETATM   32  O7  UNL     1      13.022 -13.757  69.983  1.00  0.00    -0.395 OA
ATOM     33  H7  UNL     1      13.634 -13.176  70.419  1.00  0.00     0.209 HD
ENDBRANCH  31  32
ENDBRANCH   7  31
TORSDOF 11
ENDMDL
MODEL 3
REMARK VINA RESULT: -5.602289122      1.043      1.618
REMARK  11 active torsions:
REMARK  status: ('A' for Active; 'I' for Inactive)
REMARK    1  A    between atoms: C3_4  and  O2_5 
REMARK    2  A    between atoms: O2_5  and  C4_6 
REMARK    3  A    between atoms: C7_9  and  C9_11 
REMARK    4  A    between atoms: C10_12  and  C11_13 
REMARK    5  A    between atoms: C12_14  and  C13_15 
REMARK    6  A    between atoms: C14_16  and  C15_17 
REMARK    7  A    between atoms: C15_17  and  C17_19 
REMARK    8  A    between atoms: C18_23  and  O6_24 
REMARK    9  A    between atoms: C18_23  and  C19_26 
REMARK   10  A    between atoms: C19_26  and  O7_27 
REMARK   11  A    between atoms: C21_30  and  O8_31 
ROOT
HETATM    1  C4  UNL     1       9.698 -13.510  69.182  1.00  0.00     0.202 C 
HETATM    2  C5  UNL     1       8.917 -14.751  69.427  1.00  0.00     0.055 C 
HETATM    3  C6  UNL     1       7.447 -14.536  69.343  1.00  0.00     0.016 C 
HETATM    4  C7  UNL     1       9.402 -15.217  70.770  1.00  0.00     0.085 C 
HETATM    5  C8  UNL     1       9.509 -16.746  70.821  1.00  0.00     0.051 C 
HETATM    6  O5  UNL     1      10.651 -14.652  70.975  1.00  0.00    -0.336 OA
HETATM    7  C18 UNL     1      10.652 -13.416  70.339  1.00  0.00     0.212 C 
ENDROOT
BRANCH   4   8
HETATM    8  C9  UNL     1       8.534 -14.817  71.888  1.00  0.00     0.011 C 
HETATM    9  C10 UNL     1       8.373 -15.646  72.901  1.00  0.00    -0.001 C 
BRANCH   9  10
HETATM   10  C11 UNL     1       7.522 -15.254  73.998  1.00  0.00    -0.000 C 
HETATM   11  C12 UNL     1       6.648 -16.035  74.523  1.00  0.00    -0.000 C 
BRANCH  11  12
HETATM   12  C13 UNL     1       6.409 -17.388  74.090  1.00  0.00    -0.003 C 
HETATM   13  C14 UNL     1       5.196 -17.943  74.117  1.00  0.00    -0.012 C 
BRANCH  13  14
HETATM   14  C15 UNL     1       5.045 -19.336  73.653  1.00  0.00     0.105 C 
HETATM   15  C16 UNL     1       4.772 -20.190  74.878  1.00  0.00     0.025 C 
BRANCH  14  16
HETATM   16  C17 UNL     1       6.333 -19.753  73.035  1.00  0.00     0.180 C 
HETATM   17  O3  UNL     1       7.146 -20.434  73.695  1.00  0.00    -0.647 OA
HETATM   18  O4  UNL     1       6.657 -19.406  71.740  1.00  0.00    -0.647 OA
ENDBRANCH  14  16
ENDBRANCH  13  14
ENDBRANCH  11  12
ENDBRANCH   9  10
ENDBRANCH   4   8
BRANCH   1  19
HETATM   19  O2  UNL     1      10.356 -13.560  67.933  1.00  0.00    -0.319 OA
BRANCH  19  20
HETATM   20  C3  UNL     1       9.573 -13.709  66.804  1.00  0.00     0.184 C 
HETATM   21  O1  UNL     1       8.854 -12.692  66.216  1.00  0.00    -0.299 OA
HETATM   22  C2  UNL     1       8.365 -12.730  64.897  1.00  0.00     0.267 C 
HETATM   23  C1  UNL     1       8.903 -11.601  64.044  1.00  0.00     0.071 C 
HETATM   24  O9  UNL     1       8.629 -13.916  64.244  1.00  0.00    -0.328 OA
HETATM   25  C21 UNL     1       8.654 -15.024  65.039  1.00  0.00     0.289 C 
HETATM   26  C20 UNL     1       9.502 -14.906  66.244  1.00  0.00     0.096 C 
BRANCH  25  27
HETATM   27  O8  UNL     1       7.339 -15.346  65.413  1.00  0.00    -0.368 OA
ATOM     28  H8  UNL     1       6.921 -15.847  64.722  1.00  0.00     0.213 HD
ENDBRANCH  25  27
ENDBRANCH  19  20
ENDBRANCH   1  19
BRANCH   7  29
HETATM   29  O6  UNL     1      10.238 -12.473  71.279  1.00  0.00    -0.362 OA
ATOM     30  H6  UNL     1      10.806 -12.458  72.041  1.00  0.00     0.213 HD
ENDBRANCH   7  29
BRANCH   7  31
HETATM   31  C19 UNL     1      12.060 -13.109  69.920  1.00  0.00     0.235 C 
BRANCH  31  32
HETATM   32  O7  UNL     1      12.826 -14.267  69.760  1.00  0.00    -0.395 OA
ATOM     33  H7  UNL     1      13.137 -14.609  70.590  1.00  0.00     0.209 HD
ENDBRANCH  31  32
ENDBRANCH   7  31
TORSDOF 11
ENDMDL
MODEL 4
REMARK VINA RESULT: -5.206198932      2.473      3.722
REMARK  11 active torsions:
REMARK  status: ('A' for Active; 'I' for Inactive)
REMARK    1  A    between atoms: C3_4  and  O2_5 
REMARK    2  A    between atoms: O2_5  and  C4_6 
REMARK    3  A    between atoms: C7_9  and  C9_11 
REMARK    4  A    between atoms: C10_12  and  C11_13 
REMARK    5  A    between atoms: C12_14  and  C13_15 
REMARK    6  A    between atoms: C14_16  and  C15_17 
REMARK    7  A    between atoms: C15_17  and  C17_19 
REMARK    8  A    between atoms: C18_23  and  O6_24 
REMARK    9  A    between atoms: C18_23  and  C19_26 
REMARK   10  A    between atoms: C19_26  and  O7_27 
REMARK   11  A    between atoms: C21_30  and  O8_31 
ROOT
HETATM    1  C4  UNL     1       8.360 -13.856  67.493  1.00  0.00     0.202 C 
HETATM    2  C5  UNL     1       9.574 -13.680  68.335  1.00  0.00     0.055 C 
HETATM    3  C6  UNL     1      10.680 -14.600  67.955  1.00  0.00     0.016 C 
HETATM    4  C7  UNL     1       9.065 -13.863  69.735  1.00  0.00     0.085 C 
HETATM    5  C8  UNL     1       9.757 -12.899  70.707  1.00  0.00     0.051 C 
HETATM    6  O5  UNL     1       7.702 -13.610  69.715  1.00  0.00    -0.336 OA
HETATM    7  C18 UNL     1       7.229 -14.011  68.471  1.00  0.00     0.212 C 
ENDROOT
BRANCH   4   8
HETATM    8  C9  UNL     1       9.267 -15.218  70.270  1.00  0.00     0.011 C 
HETATM    9  C10 UNL     1       9.221 -15.405  71.575  1.00  0.00    -0.001 C 
BRANCH   9  10
HETATM   10  C11 UNL     1       9.419 -16.734  72.099  1.00  0.00    -0.000 C 
HETATM   11  C12 UNL     1       8.801 -17.181  73.132  1.00  0.00    -0.000 C 
BRANCH  11  12
HETATM   12  C13 UNL     1       7.840 -16.422  73.890  1.00  0.00    -0.003 C 
HETATM   13  C14 UNL     1       6.553 -16.769  73.963  1.00  0.00    -0.012 C 
BRANCH  13  14
HETATM   14  C15 UNL     1       5.639 -15.932  74.764  1.00  0.00     0.105 C 
HETATM   15  C16 UNL     1       4.278 -16.602  74.738  1.00  0.00     0.025 C 
BRANCH  14  16
HETATM   16  C17 UNL     1       5.549 -14.599  74.107  1.00  0.00     0.180 C 
HETATM   17  O3  UNL     1       6.131 -14.404  73.019  1.00  0.00    -0.647 OA
HETATM   18  O4  UNL     1       4.833 -13.564  74.671  1.00  0.00    -0.647 OA
ENDBRANCH  14  16
ENDBRANCH  13  14
ENDBRANCH  11  12
ENDBRANCH   9  10
ENDBRANCH   4   8
BRANCH   1  19
HETATM   19  O2  UNL     1       8.183 -12.760  66.620  1.00  0.00    -0.319 OA
BRANCH  19  20
HETATM   20  C3  UNL     1       8.762 -12.842  65.368  1.00  0.00     0.184 C 
HETATM   21  O1  UNL     1       9.555 -13.884  64.943  1.00  0.00    -0.299 OA
HETATM   22  C2  UNL     1       9.840 -14.161  63.593  1.00  0.00     0.267 C 
HETATM   23  C1  UNL     1       9.389 -15.546  63.176  1.00  0.00     0.071 C 
HETATM   24  O9  UNL     1       9.286 -13.255  62.714  1.00  0.00    -0.328 OA
HETATM   25  C21 UNL     1       9.183 -11.978  63.184  1.00  0.00     0.289 C 
HETATM   26  C20 UNL     1       8.546 -11.855  64.512  1.00  0.00     0.096 C 
BRANCH  25  27
HETATM   27  O8  UNL     1      10.462 -11.399  63.215  1.00  0.00    -0.368 OA
ATOM     28  H8  UNL     1      10.764 -11.239  62.329  1.00  0.00     0.213 HD
ENDBRANCH  25  27
ENDBRANCH  19  20
ENDBRANCH   1  19
BRANCH   7  29
HETATM   29  O6  UNL     1       6.828 -15.340  68.595  1.00  0.00    -0.362 OA
ATOM     30  H6  UNL     1       6.914 -15.655  69.487  1.00  0.00     0.213 HD
ENDBRANCH   7  29
BRANCH   7  31
HETATM   31  C19 UNL     1       6.037 -13.165  68.132  1.00  0.00     0.235 C 
BRANCH  31  32
HETATM   32  O7  UNL     1       6.287 -11.802  68.316  1.00  0.00    -0.395 OA
ATOM     33  H7  UNL     1       5.589 -11.259  67.969  1.00  0.00     0.209 HD
ENDBRANCH  31  32
ENDBRANCH   7  31
TORSDOF 11
ENDMDL
MODEL 5
REMARK VINA RESULT: -4.770565533      2.133      3.577
REMARK  11 active torsions:
REMARK  status: ('A' for Active; 'I' for Inactive)
REMARK    1  A    between atoms: C3_4  and  O2_5 
REMARK    2  A    between atoms: O2_5  and  C4_6 
REMARK    3  A    between atoms: C7_9  and  C9_11 
REMARK    4  A    between atoms: C10_12  and  C11_13 
REMARK    5  A    between atoms: C12_14  and  C13_15 
REMARK    6  A    between atoms: C14_16  and  C15_17 
REMARK    7  A    between atoms: C15_17  and  C17_19 
REMARK    8  A    between atoms: C18_23  and  O6_24 
REMARK    9  A    between atoms: C18_23  and  C19_26 
REMARK   10  A    between atoms: C19_26  and  O7_27 
REMARK   11  A    between atoms: C21_30  and  O8_31 
ROOT
HETATM    1  C4  UNL     1       8.349 -13.948  67.395  1.00  0.00     0.202 C 
HETATM    2  C5  UNL     1       9.600 -13.554  68.096  1.00  0.00     0.055 C 
HETATM    3  C6  UNL     1      10.725 -14.495  67.845  1.00  0.00     0.016 C 
HETATM    4  C7  UNL     1       9.183 -13.450  69.534  1.00  0.00     0.085 C 
HETATM    5  C8  UNL     1       9.884 -12.276  70.231  1.00  0.00     0.051 C 
HETATM    6  O5  UNL     1       7.811 -13.255  69.553  1.00  0.00    -0.336 OA
HETATM    7  C18 UNL     1       7.286 -13.930  68.458  1.00  0.00     0.212 C 
ENDROOT
BRANCH   4   8
HETATM    8  C9  UNL     1       9.482 -14.651  70.329  1.00  0.00     0.011 C 
HETATM    9  C10 UNL     1       9.292 -14.619  71.634  1.00  0.00    -0.001 C 
BRANCH   9  10
HETATM   10  C11 UNL     1       9.585 -15.797  72.413  1.00  0.00    -0.000 C 
HETATM   11  C12 UNL     1       8.701 -16.419  73.106  1.00  0.00    -0.000 C 
BRANCH  11  12
HETATM   12  C13 UNL     1       7.318 -16.026  73.191  1.00  0.00    -0.003 C 
HETATM   13  C14 UNL     1       6.570 -16.272  74.269  1.00  0.00    -0.012 C 
BRANCH  13  14
HETATM   14  C15 UNL     1       5.161 -15.833  74.269  1.00  0.00     0.105 C 
HETATM   15  C16 UNL     1       4.977 -14.914  75.462  1.00  0.00     0.025 C 
BRANCH  14  16
HETATM   16  C17 UNL     1       4.307 -17.041  74.435  1.00  0.00     0.180 C 
HETATM   17  O3  UNL     1       4.394 -17.979  73.614  1.00  0.00    -0.647 OA
HETATM   18  O4  UNL     1       3.417 -17.156  75.481  1.00  0.00    -0.647 OA
ENDBRANCH  14  16
ENDBRANCH  13  14
ENDBRANCH  11  12
ENDBRANCH   9  10
ENDBRANCH   4   8
BRANCH   1  19
HETATM   19  O2  UNL     1       8.066 -13.073  66.323  1.00  0.00    -0.319 OA
BRANCH  19  20
HETATM   20  C3  UNL     1       8.752 -13.270  65.140  1.00  0.00     0.184 C 
HETATM   21  O1  UNL     1       9.456 -14.412  64.829  1.00  0.00    -0.299 OA
HETATM   22  C2  UNL     1       9.838 -14.775  63.525  1.00  0.00     0.267 C 
HETATM   23  C1  UNL     1       9.272 -16.116  63.104  1.00  0.00     0.071 C 
HETATM   24  O9  UNL     1       9.483 -13.848  62.567  1.00  0.00    -0.328 OA
HETATM   25  C21 UNL     1       9.484 -12.550  62.986  1.00  0.00     0.289 C 
HETATM   26  C20 UNL     1       8.738 -12.301  64.238  1.00  0.00     0.096 C 
BRANCH  25  27
HETATM   27  O8  UNL     1      10.813 -12.119  63.132  1.00  0.00    -0.368 OA
ATOM     28  H8  UNL     1      11.314 -12.775  63.603  1.00  0.00     0.213 HD
ENDBRANCH  25  27
ENDBRANCH  19  20
ENDBRANCH   1  19
BRANCH   7  29
HETATM   29  O6  UNL     1       6.957 -15.215  68.888  1.00  0.00    -0.362 OA
ATOM     30  H6  UNL     1       7.636 -15.590  69.436  1.00  0.00     0.213 HD
ENDBRANCH   7  29
BRANCH   7  31
HETATM   31  C19 UNL     1       6.036 -13.219  68.029  1.00  0.00     0.235 C 
BRANCH  31  32
HETATM   32  O7  UNL     1       6.230 -11.840  67.903  1.00  0.00    -0.395 OA
ATOM     33  H7  UNL     1       6.936 -11.631  67.303  1.00  0.00     0.209 HD
ENDBRANCH  31  32
ENDBRANCH   7  31
TORSDOF 11
ENDMDL
